REMARK  Name = DB00242
REMARK                            x       y       z     vdW  Elec       q    Type
REMARK                         _______ _______ _______ _____ _____    ______ ____
ROOT
ATOM      1 CL   LIG    1       -0.890   4.807  -0.152  0.00  0.00    -0.041 Cl
ATOM      2  C   LIG    1       -1.276   3.129  -0.064  0.00  0.00    +0.226 A 
ATOM      3  N   LIG    1       -2.567   2.824   0.144  0.00  0.00    -0.201 NA
ATOM      4  C   LIG    1       -2.926   1.515   0.230  0.00  0.00    +0.149 A 
ATOM      5  C   LIG    1       -1.918   0.536   0.093  0.00  0.00    +0.147 A 
ATOM      6  C   LIG    1       -0.627   0.980  -0.129  0.00  0.00    +0.169 A 
ATOM      7  N   LIG    1        0.131  -0.154  -0.238  0.00  0.00    -0.288 N 
ATOM      8  C   LIG    1       -0.719  -1.177  -0.015  0.00  0.00    +0.203 A 
ATOM      9  N   LIG    1       -1.963  -0.804   0.152  0.00  0.00    -0.231 NA
ATOM     10  N   LIG    1       -0.247   2.278  -0.212  0.00  0.00    -0.198 NA
ENDROOT
BRANCH   7  11
ATOM     11  C1* LIG    1        1.638  -0.232  -0.388  0.00  0.00    +0.225 C 
ATOM     12  C2* LIG    1        2.235   0.457  -1.609  0.00  0.00    +0.088 C 
ATOM     13  C3* LIG    1        3.643   0.739  -1.109  0.00  0.00    +0.150 C 
ATOM     14  C4* LIG    1        3.432   1.090   0.368  0.00  0.00    +0.175 C 
ATOM     15  O4* LIG    1        2.277   0.329   0.722  0.00  0.00    -0.348 OA
BRANCH  13  16
ATOM     16  O3* LIG    1        4.509  -0.367  -1.285  0.00  0.00    -0.389 OA
ATOM     17  H3* LIG    1        4.152  -1.114  -0.798  0.00  0.00    +0.210 HD
ENDBRANCH  13  16
BRANCH  14  18
ATOM     18  C5* LIG    1        3.164   2.588   0.631  0.00  0.00    +0.190 C 
BRANCH  18  19
ATOM     19  O5* LIG    1        2.779   2.812   1.973  0.00  0.00    -0.392 OA
ATOM     20  H5* LIG    1        2.579   3.744   2.083  0.00  0.00    +0.210 HD
ENDBRANCH  18  19
ENDBRANCH  14  18
ENDBRANCH   7  11
BRANCH   4  21
ATOM     21  N   LIG    1       -4.266   1.202   0.456  0.00  0.00    -0.341 N 
ATOM     22  H   LIG    1       -4.937   1.949   0.554  0.00  0.00    +0.144 HD
ATOM     23  H   LIG    1       -4.542   0.234   0.534  0.00  0.00    +0.144 HD
ENDBRANCH   4  21
TORSDOF 5
