REMARK  Name = DB00542
REMARK                            x       y       z     vdW  Elec       q    Type
REMARK                         _______ _______ _______ _____ _____    ______ ____
ROOT
ATOM      1  C   LIG    1       -3.256   0.785  -1.243  0.00  0.00    +0.039 C 
ATOM      2  C   LIG    1       -1.906   1.194  -1.851  0.00  0.00    +0.033 C 
ATOM      3  C   LIG    1       -0.700   1.300  -0.883  0.00  0.00    +0.142 C 
ATOM      4  C   LIG    1       -1.008   1.778   0.564  0.00  0.00    +0.237 C 
ATOM      5  O   LIG    1       -0.478   2.821   0.961  0.00  0.00    -0.274 OA
ATOM      6  N   LIG    1       -1.877   1.015   1.315  0.00  0.00    -0.259 N 
ATOM      7  C   LIG    1       -2.427  -0.248   0.940  0.00  0.00    +0.040 A 
ATOM      8  C   LIG    1       -2.445  -1.342   1.825  0.00  0.00    +0.024 A 
ATOM      9  C   LIG    1       -3.073  -2.542   1.507  0.00  0.00    +0.002 A 
ATOM     10  C   LIG    1       -3.744  -2.669   0.299  0.00  0.00    +0.000 A 
ATOM     11  C   LIG    1       -3.794  -1.589  -0.575  0.00  0.00    +0.005 A 
ATOM     12  C   LIG    1       -3.168  -0.376  -0.264  0.00  0.00    -0.026 A 
ENDROOT
BRANCH   3  13
ATOM     13  N   LIG    1        0.046   0.032  -0.841  0.00  0.00    -0.293 NA
ATOM     14  H   LIG    1       -0.108  -0.540  -1.660  0.00  0.00    +0.123 HD
BRANCH  13  15
ATOM     15  C   LIG    1        1.449   0.011  -0.351  0.00  0.00    +0.164 C 
BRANCH  15  16
ATOM     16  C   LIG    1        2.357   0.776  -1.301  0.00  0.00    +0.324 C 
ATOM     17  O   LIG    1        2.801   0.299  -2.349  0.00  0.00    -0.249 OA
BRANCH  16  18
ATOM     18  O   LIG    1        2.593   2.028  -0.850  0.00  0.00    -0.464 OA
BRANCH  18  19
ATOM     19  C   LIG    1        3.409   2.927  -1.586  0.00  0.00    +0.229 C 
ATOM     20  C   LIG    1        3.492   4.260  -0.835  0.00  0.00    +0.048 C 
ENDBRANCH  18  19
ENDBRANCH  16  18
ENDBRANCH  15  16
BRANCH  15  21
ATOM     21  C   LIG    1        1.965  -1.438  -0.151  0.00  0.00    +0.035 C 
BRANCH  21  22
ATOM     22  C   LIG    1        1.310  -2.182   1.033  0.00  0.00    +0.037 C 
BRANCH  22  23
ATOM     23  C   LIG    1        1.798  -1.702   2.393  0.00  0.00    -0.047 A 
ATOM     24  C   LIG    1        2.936  -2.276   2.967  0.00  0.00    +0.003 A 
ATOM     25  C   LIG    1        3.391  -1.829   4.205  0.00  0.00    +0.000 A 
ATOM     26  C   LIG    1        2.709  -0.808   4.864  0.00  0.00    +0.000 A 
ATOM     27  C   LIG    1        1.573  -0.232   4.298  0.00  0.00    +0.000 A 
ATOM     28  C   LIG    1        1.117  -0.681   3.062  0.00  0.00    +0.003 A 
ENDBRANCH  22  23
ENDBRANCH  21  22
ENDBRANCH  15  21
ENDBRANCH  13  15
ENDBRANCH   3  13
BRANCH   6  29
ATOM     29  C   LIG    1       -2.094   1.487   2.712  0.00  0.00    +0.234 C 
BRANCH  29  30
ATOM     30  C   LIG    1       -3.253   2.501   2.781  0.00  0.00    +0.323 C 
ATOM     31  O   LIG    1       -3.935   2.853   1.839  0.00  0.00    -0.249 OA
BRANCH  30  32
ATOM     32  O   LIG    1       -3.394   2.932   4.067  0.00  0.00    -0.480 OA
ATOM     33  H   LIG    1       -4.109   3.567   4.163  0.00  0.00    +0.295 HD
ENDBRANCH  30  32
ENDBRANCH  29  30
ENDBRANCH   6  29
TORSDOF 11
