REMARK  Name = DB00970
REMARK                            x       y       z     vdW  Elec       q    Type
REMARK                         _______ _______ _______ _____ _____    ______ ____
ROOT
ATOM      1  C   LIG    1       -2.676   0.804  -0.142  0.00  0.00    +0.121 A 
ATOM      2  N   LIG    1       -2.043   1.886   0.138  0.00  0.00    -0.239 NA
ATOM      3  C   LIG    1       -2.521   2.841   1.055  0.00  0.00    +0.119 A 
ATOM      4  C   LIG    1       -3.791   2.656   1.625  0.00  0.00    +0.157 A 
ATOM      5  C   LIG    1       -4.340   3.579   2.514  0.00  0.00    -0.006 A 
ATOM      6  C   LIG    1       -5.714   3.356   3.122  0.00  0.00    +0.047 C 
ATOM      7  C   LIG    1       -3.599   4.713   2.838  0.00  0.00    +0.008 A 
ATOM      8  C   LIG    1       -2.331   4.907   2.294  0.00  0.00    +0.015 A 
ATOM      9  O   LIG    1       -4.512   1.516   1.309  0.00  0.00    -0.451 OA
ATOM     10  C   LIG    1       -1.749   3.979   1.407  0.00  0.00    +0.066 A 
ATOM     11  C   LIG    1       -3.957   0.549   0.504  0.00  0.00    +0.161 A 
ATOM     12  C   LIG    1       -4.660  -0.602   0.376  0.00  0.00    +0.042 A 
ATOM     13  C   LIG    1       -6.004  -0.864   1.060  0.00  0.00    +0.052 C 
ATOM     14  C   LIG    1       -4.164  -1.728  -0.460  0.00  0.00    +0.207 A 
ATOM     15  O   LIG    1       -4.760  -2.807  -0.545  0.00  0.00    -0.286 OA
ATOM     16  C   LIG    1       -2.888  -1.425  -1.190  0.00  0.00    +0.087 A 
ATOM     17  C   LIG    1       -2.197  -0.236  -1.062  0.00  0.00    +0.090 A 
ENDROOT
BRANCH  10  18
ATOM     18  C   LIG    1       -0.332   4.220   0.892  0.00  0.00    +0.247 C 
ATOM     19  O   LIG    1        0.104   3.663  -0.116  0.00  0.00    -0.270 OA
ATOM     20  N   LIG    1        0.422   5.062   1.627  0.00  0.00    -0.297 N 
ATOM     21  H   LIG    1        0.003   5.490   2.439  0.00  0.00    +0.150 HD
BRANCH  20  22
ATOM     22  C   LIG    1        1.826   5.434   1.398  0.00  0.00    +0.200 C 
ATOM     23  C   LIG    1        2.242   6.743   2.139  0.00  0.00    +0.203 C 
ATOM     24  O   LIG    1        1.569   6.785   3.402  0.00  0.00    -0.458 OA
ATOM     25  C   LIG    1        2.184   7.121   4.563  0.00  0.00    +0.328 C 
ATOM     26  C   LIG    1        1.221   7.045   5.761  0.00  0.00    +0.187 C 
ATOM     27  N   LIG    1        0.391   5.803   5.652  0.00  0.00    -0.290 N 
ATOM     28  C   LIG    1       -1.030   6.075   5.406  0.00  0.00    +0.133 C 
ATOM     29  C   LIG    1        0.884   4.537   5.788  0.00  0.00    +0.233 C 
ATOM     30  O   LIG    1        2.072   4.332   6.042  0.00  0.00    -0.274 OA
ATOM     31  C   LIG    1       -0.063   3.325   5.609  0.00  0.00    +0.203 C 
ATOM     32  N   LIG    1        0.581   2.050   5.983  0.00  0.00    -0.294 N 
ATOM     33  C   LIG    1        0.663   1.777   7.426  0.00  0.00    +0.132 C 
ATOM     34  C   LIG    1        1.161   1.185   5.101  0.00  0.00    +0.236 C 
ATOM     35  O   LIG    1        1.758   0.164   5.454  0.00  0.00    -0.274 OA
ATOM     36  C   LIG    1        1.060   1.430   3.572  0.00  0.00    +0.162 C 
ATOM     37  C   LIG    1       -0.081   0.583   2.967  0.00  0.00    +0.033 C 
ATOM     38  C   LIG    1        0.465   0.040   1.658  0.00  0.00    +0.021 C 
ATOM     39  C   LIG    1        1.935  -0.158   1.971  0.00  0.00    +0.109 C 
ATOM     40  N   LIG    1        2.262   0.977   2.828  0.00  0.00    -0.288 N 
ATOM     41  C   LIG    1        3.533   1.444   2.922  0.00  0.00    +0.237 C 
ATOM     42  C   LIG    1        3.751   2.840   3.573  0.00  0.00    +0.162 C 
ATOM     43  N   LIG    1        2.938   3.928   3.004  0.00  0.00    -0.302 N 
ATOM     44  H   LIG    1        2.443   4.477   3.692  0.00  0.00    +0.150 HD
ATOM     45  O   LIG    1        4.496   0.830   2.461  0.00  0.00    -0.274 OA
ATOM     46  O   LIG    1        3.361   7.477   4.649  0.00  0.00    -0.249 OA
ATOM     47  C   LIG    1        1.859   8.017   1.363  0.00  0.00    +0.054 C 
ATOM     48  C   LIG    1        2.780   4.259   1.706  0.00  0.00    +0.238 C 
ATOM     49  O   LIG    1        3.328   3.679   0.768  0.00  0.00    -0.274 OA
BRANCH  26  50
ATOM     50  C   LIG    1        1.909   7.256   7.160  0.00  0.00    +0.014 C 
ATOM     51  C   LIG    1        2.346   8.720   7.379  0.00  0.00    +0.009 C 
ATOM     52  C   LIG    1        1.034   6.826   8.357  0.00  0.00    +0.009 C 
ENDBRANCH  26  50
BRANCH  42  53
ATOM     53  C   LIG    1        5.265   3.204   3.707  0.00  0.00    +0.012 C 
ATOM     54  C   LIG    1        6.010   3.538   2.397  0.00  0.00    +0.009 C 
ATOM     55  C   LIG    1        5.468   4.333   4.733  0.00  0.00    +0.009 C 
ENDBRANCH  42  53
ENDBRANCH  20  22
ENDBRANCH  10  18
BRANCH  17  56
ATOM     56  C   LIG    1       -0.970   0.022  -1.831  0.00  0.00    +0.249 C 
ATOM     57  O   LIG    1       -0.804   1.081  -2.439  0.00  0.00    -0.270 OA
ATOM     58  N   LIG    1       -0.013  -0.925  -1.721  0.00  0.00    -0.297 N 
ATOM     59  H   LIG    1       -0.274  -1.783  -1.257  0.00  0.00    +0.150 HD
BRANCH  58  60
ATOM     60  C   LIG    1        1.431  -0.836  -2.015  0.00  0.00    +0.200 C 
ATOM     61  C   LIG    1        2.217  -2.191  -2.073  0.00  0.00    +0.203 C 
ATOM     62  O   LIG    1        1.439  -3.386  -2.237  0.00  0.00    -0.458 OA
ATOM     63  C   LIG    1        0.711  -3.989  -1.257  0.00  0.00    +0.328 C 
ATOM     64  C   LIG    1        0.239  -5.390  -1.651  0.00  0.00    +0.187 C 
ATOM     65  N   LIG    1       -0.907  -5.282  -2.603  0.00  0.00    -0.290 N 
ATOM     66  C   LIG    1       -2.186  -5.655  -1.979  0.00  0.00    +0.133 C 
ATOM     67  C   LIG    1       -0.814  -4.932  -3.921  0.00  0.00    +0.233 C 
ATOM     68  O   LIG    1        0.263  -4.694  -4.467  0.00  0.00    -0.274 OA
ATOM     69  C   LIG    1       -2.104  -4.815  -4.766  0.00  0.00    +0.203 C 
ATOM     70  N   LIG    1       -1.849  -4.295  -6.124  0.00  0.00    -0.294 N 
ATOM     71  C   LIG    1       -1.494  -5.290  -7.143  0.00  0.00    +0.132 C 
ATOM     72  C   LIG    1       -1.927  -2.974  -6.455  0.00  0.00    +0.236 C 
ATOM     73  O   LIG    1       -1.769  -2.551  -7.603  0.00  0.00    -0.274 OA
ATOM     74  C   LIG    1       -2.225  -1.932  -5.346  0.00  0.00    +0.162 C 
ATOM     75  C   LIG    1       -3.741  -1.758  -5.143  0.00  0.00    +0.033 C 
ATOM     76  C   LIG    1       -4.130  -0.653  -6.107  0.00  0.00    +0.021 C 
ATOM     77  C   LIG    1       -2.928   0.281  -6.044  0.00  0.00    +0.109 C 
ATOM     78  N   LIG    1       -1.786  -0.562  -5.675  0.00  0.00    -0.288 N 
ATOM     79  C   LIG    1       -0.530  -0.049  -5.652  0.00  0.00    +0.237 C 
ATOM     80  C   LIG    1        0.640  -0.884  -5.057  0.00  0.00    +0.162 C 
ATOM     81  N   LIG    1        1.549   0.054  -4.391  0.00  0.00    -0.302 N 
ATOM     82  H   LIG    1        1.924   0.750  -5.019  0.00  0.00    +0.150 HD
ATOM     83  O   LIG    1       -0.288   1.095  -6.048  0.00  0.00    -0.274 OA
ATOM     84  O   LIG    1        0.489  -3.513  -0.143  0.00  0.00    -0.249 OA
ATOM     85  C   LIG    1        3.311  -2.334  -0.989  0.00  0.00    +0.054 C 
ATOM     86  C   LIG    1        1.934   0.150  -3.104  0.00  0.00    +0.238 C 
ATOM     87  O   LIG    1        2.724   1.027  -2.759  0.00  0.00    -0.274 OA
BRANCH  64  88
ATOM     88  C   LIG    1        1.399  -6.345  -2.102  0.00  0.00    +0.014 C 
ATOM     89  C   LIG    1        2.475  -6.535  -1.013  0.00  0.00    +0.009 C 
ATOM     90  C   LIG    1        0.885  -7.724  -2.561  0.00  0.00    +0.009 C 
ENDBRANCH  64  88
BRANCH  80  91
ATOM     91  C   LIG    1        1.395  -1.598  -6.228  0.00  0.00    +0.012 C 
ATOM     92  C   LIG    1        1.821  -0.703  -7.413  0.00  0.00    +0.009 C 
ATOM     93  C   LIG    1        2.595  -2.423  -5.731  0.00  0.00    +0.009 C 
ENDBRANCH  80  91
ENDBRANCH  58  60
ENDBRANCH  17  56
BRANCH  16  94
ATOM     94  N   LIG    1       -2.486  -2.454  -2.012  0.00  0.00    -0.354 N 
ATOM     95  H   LIG    1       -1.647  -2.382  -2.570  0.00  0.00    +0.142 HD
ATOM     96  H   LIG    1       -3.025  -3.307  -2.073  0.00  0.00    +0.142 HD
ENDBRANCH  16  94
TORSDOF 9
