REMARK  Name = DB00783
REMARK                            x       y       z     vdW  Elec       q    Type
REMARK                         _______ _______ _______ _____ _____    ______ ____
ROOT
ATOM      1  C   LIG    1        1.384  -0.054   0.032  0.00  0.00    +0.121 C 
ATOM      2  C   LIG    1        2.008  -0.759   1.259  0.00  0.00    +0.032 C 
ATOM      3  C   LIG    1        3.198  -1.587   0.732  0.00  0.00    +0.007 C 
ATOM      4  C   LIG    1        3.331  -1.151  -0.731  0.00  0.00    +0.001 C 
ATOM      5  C   LIG    1        4.103  -2.025  -1.750  0.00  0.00    +0.000 C 
ATOM      6  C   LIG    1        5.482  -2.545  -1.258  0.00  0.00    +0.009 C 
ATOM      7  C   LIG    1        6.578  -2.569  -2.352  0.00  0.00    +0.036 C 
ATOM      8  C   LIG    1        6.015  -2.954  -3.717  0.00  0.00    -0.040 A 
ATOM      9  C   LIG    1        6.666  -3.873  -4.548  0.00  0.00    +0.049 A 
ATOM     10  C   LIG    1        6.156  -4.184  -5.806  0.00  0.00    +0.117 A 
ATOM     11  C   LIG    1        4.985  -3.575  -6.247  0.00  0.00    +0.046 A 
ATOM     12  C   LIG    1        4.325  -2.664  -5.425  0.00  0.00    +0.008 A 
ATOM     13  C   LIG    1        4.819  -2.346  -4.151  0.00  0.00    -0.041 A 
ATOM     14  C   LIG    1        4.113  -1.388  -3.179  0.00  0.00    +0.023 C 
ATOM     15  C   LIG    1        2.720  -0.841  -3.627  0.00  0.00    +0.009 C 
ATOM     16  C   LIG    1        2.014  -0.026  -2.511  0.00  0.00    +0.010 C 
ATOM     17  C   LIG    1        1.888  -0.846  -1.200  0.00  0.00    -0.003 C 
ATOM     18  C   LIG    1        0.983  -2.102  -1.410  0.00  0.00    +0.014 C 
ENDROOT
BRANCH   1  19
ATOM     19  O   LIG    1       -0.000   0.220   0.133  0.00  0.00    -0.391 OA
ATOM     20  H   LIG    1       -0.226   0.891  -0.516  0.00  0.00    +0.210 HD
ENDBRANCH   1  19
BRANCH  10  21
ATOM     21  O   LIG    1        6.806  -5.083  -6.609  0.00  0.00    -0.507 OA
ATOM     22  H   LIG    1        6.363  -5.219  -7.450  0.00  0.00    +0.292 HD
ENDBRANCH  10  21
TORSDOF 2
