REMARK  Name = DB00441
REMARK                            x       y       z     vdW  Elec       q    Type
REMARK                         _______ _______ _______ _____ _____    ______ ____
ROOT
ATOM      1  F   LIG    1        1.777  -0.746  -2.400  0.00  0.00    -0.198 F 
ATOM      2  C   LIG    1        2.451  -0.301  -1.338  0.00  0.00    +0.321 C 
ATOM      3  C   LIG    1        1.705  -0.321   0.005  0.00  0.00    +0.296 C 
ATOM      4  O   LIG    1        2.372   0.653   0.769  0.00  0.00    -0.342 OA
ATOM      5  C   LIG    1        3.084   1.599  -0.035  0.00  0.00    +0.181 C 
ATOM      6  C   LIG    1        2.739   1.189  -1.470  0.00  0.00    +0.219 C 
ATOM      7  F   LIG    1        3.588  -0.995  -1.221  0.00  0.00    -0.198 F 
ENDROOT
BRANCH   3   8
ATOM      8  N   LIG    1        0.242  -0.148   0.011  0.00  0.00    -0.267 N 
ATOM      9  C   LIG    1       -0.560  -1.122  -0.577  0.00  0.00    +0.352 A 
ATOM     10  N   LIG    1       -1.940  -0.830  -0.665  0.00  0.00    -0.178 NA
ATOM     11  C   LIG    1       -2.470   0.204  -0.109  0.00  0.00    +0.123 A 
ATOM     12  C   LIG    1       -1.668   1.159   0.596  0.00  0.00    +0.061 A 
ATOM     13  O   LIG    1       -0.047  -2.173  -0.967  0.00  0.00    -0.244 OA
ATOM     14  C   LIG    1       -0.345   0.941   0.620  0.00  0.00    +0.097 A 
BRANCH  11  15
ATOM     15  N   LIG    1       -3.790   0.429  -0.180  0.00  0.00    -0.343 N 
ATOM     16  H   LIG    1       -4.389  -0.216  -0.673  0.00  0.00    +0.144 HD
ATOM     17  H   LIG    1       -4.198   1.242   0.259  0.00  0.00    +0.144 HD
ENDBRANCH  11  15
ENDBRANCH   3   8
BRANCH   6  18
ATOM     18  O   LIG    1        3.759   1.495  -2.404  0.00  0.00    -0.383 OA
ATOM     19  H   LIG    1        3.563   1.044  -3.230  0.00  0.00    +0.210 HD
ENDBRANCH   6  18
BRANCH   5  20
ATOM     20  C   LIG    1        2.689   3.044   0.327  0.00  0.00    +0.190 C 
BRANCH  20  21
ATOM     21  O   LIG    1        3.010   3.333   1.672  0.00  0.00    -0.392 OA
ATOM     22  H   LIG    1        2.770   4.244   1.857  0.00  0.00    +0.210 HD
ENDBRANCH  20  21
ENDBRANCH   5  20
TORSDOF 5
