REMARK  Name = DB00050
REMARK                            x       y       z     vdW  Elec       q    Type
REMARK                         _______ _______ _______ _____ _____    ______ ____
ROOT
ATOM      1  C   LIG    1       -2.081  -0.022   0.484  0.00  0.00    +0.163 C 
ENDROOT
BRANCH   1   4
ATOM      2  C   LIG    1       -2.687  -0.022   2.892  0.00  0.00    +0.236 C 
ATOM      3  O   LIG    1       -2.767  -1.247   2.999  0.00  0.00    -0.274 OA
ATOM      4  N   LIG    1       -2.372   0.627   1.761  0.00  0.00    -0.302 N 
ATOM      5  H   LIG    1       -2.327   1.636   1.762  0.00  0.00    +0.150 HD
BRANCH   2   6
ATOM      6  CA  LIG    1       -2.954   0.863   4.120  0.00  0.00    +0.184 C 
BRANCH   6   9
ATOM      7  C   LIG    1       -5.432   0.994   4.242  0.00  0.00    +0.234 C 
ATOM      8  O   LIG    1       -5.540   1.789   3.308  0.00  0.00    -0.274 OA
ATOM      9  N   LIG    1       -4.255   0.533   4.697  0.00  0.00    -0.301 N 
ATOM     10  H   LIG    1       -4.242  -0.113   5.473  0.00  0.00    +0.150 HD
BRANCH   7  11
ATOM     11  CA  LIG    1       -6.682   0.465   4.981  0.00  0.00    +0.163 C 
BRANCH  11  14
ATOM     12  C   LIG    1       -8.611   1.508   3.728  0.00  0.00    +0.234 C 
ATOM     13  O   LIG    1       -8.360   2.679   4.012  0.00  0.00    -0.274 OA
ATOM     14  N   LIG    1       -7.882   0.452   4.135  0.00  0.00    -0.302 N 
ATOM     15  H   LIG    1       -8.181  -0.470   3.850  0.00  0.00    +0.150 HD
BRANCH  12  16
ATOM     16  CA  LIG    1       -9.855   1.159   2.884  0.00  0.00    +0.163 C 
BRANCH  16  19
ATOM     17  C   LIG    1      -10.461   3.333   1.738  0.00  0.00    +0.234 C 
ATOM     18  O   LIG    1      -10.808   3.938   2.752  0.00  0.00    -0.274 OA
ATOM     19  N   LIG    1      -10.025   2.060   1.737  0.00  0.00    -0.302 N 
ATOM     20  H   LIG    1       -9.754   1.661   0.850  0.00  0.00    +0.150 HD
BRANCH  17  21
ATOM     21  CA  LIG    1      -10.468   4.056   0.367  0.00  0.00    +0.163 C 
BRANCH  21  22
ATOM     22  N   LIG    1      -11.161   5.351   0.427  0.00  0.00    -0.304 N 
ATOM     23  H   LIG    1      -10.556   6.159   0.389  0.00  0.00    +0.149 HD
ATOM     24  C   LIG    1      -12.486   5.546   0.548  0.00  0.00    +0.211 C 
ATOM     25  C   LIG    1      -12.958   6.996   0.605  0.00  0.00    +0.109 C 
ATOM     26  O   LIG    1      -13.310   4.635   0.615  0.00  0.00    -0.276 OA
ENDBRANCH  21  22
BRANCH  21  27
ATOM     27  C   LIG    1      -10.969   3.172  -0.820  0.00  0.00    +0.067 C 
BRANCH  27  32
ATOM     28  C   LIG    1       -9.106  -0.023  -1.873  0.00  0.00    -0.018 A 
ATOM     29  C   LIG    1       -7.949   0.527  -2.506  0.00  0.00    -0.018 A 
ATOM     30  C   LIG    1       -7.805   1.934  -2.571  0.00  0.00    +0.009 A 
ATOM     31  C   LIG    1       -8.775   2.767  -2.021  0.00  0.00    +0.004 A 
ATOM     32  C   LIG    1       -9.905   2.238  -1.396  0.00  0.00    -0.045 A 
ATOM     33  C   LIG    1       -6.975  -0.349  -3.046  0.00  0.00    +0.008 A 
ATOM     34  C   LIG    1       -7.144  -1.728  -2.958  0.00  0.00    +0.001 A 
ATOM     35  C   LIG    1       -8.272  -2.264  -2.344  0.00  0.00    +0.001 A 
ATOM     36  C   LIG    1      -10.076   0.854  -1.325  0.00  0.00    +0.012 A 
ATOM     37  C   LIG    1       -9.250  -1.431  -1.806  0.00  0.00    +0.008 A 
ENDBRANCH  27  32
ENDBRANCH  21  27
ENDBRANCH  17  21
ENDBRANCH  16  19
BRANCH  16  38
ATOM     38  C   LIG    1      -11.131   1.007   3.764  0.00  0.00    +0.067 C 
BRANCH  38  39
ATOM     39  C   LIG    1      -11.043  -0.149   4.762  0.00  0.00    -0.045 A 
ATOM     40  C   LIG    1      -10.847  -1.458   4.311  0.00  0.00    +0.005 A 
ATOM     41  C   LIG    1      -10.725  -2.500   5.227  0.00  0.00    +0.020 A 
ATOM     42  C   LIG    1      -10.801  -2.232   6.593  0.00  0.00    +0.041 A 
ATOM     43 CL   LIG    1      -10.637  -3.521   7.728  0.00  0.00    -0.084 Cl
ATOM     44  C   LIG    1      -11.008  -0.931   7.048  0.00  0.00    +0.020 A 
ATOM     45  C   LIG    1      -11.134   0.110   6.133  0.00  0.00    +0.005 A 
ENDBRANCH  38  39
ENDBRANCH  16  38
ENDBRANCH  12  16
ENDBRANCH  11  14
BRANCH  11  46
ATOM     46  C   LIG    1       -6.922   1.176   6.346  0.00  0.00    +0.068 C 
BRANCH  46  47
ATOM     47  C   LIG    1       -5.877   0.816   7.397  0.00  0.00    -0.027 A 
ATOM     48  C   LIG    1       -5.891  -0.435   8.026  0.00  0.00    +0.006 A 
ATOM     49  C   LIG    1       -4.903  -0.748   8.961  0.00  0.00    +0.020 A 
ATOM     50  C   LIG    1       -3.924   0.208   9.241  0.00  0.00    +0.111 A 
ATOM     51  N   LIG    1       -3.894   1.428   8.648  0.00  0.00    -0.263 NA
ATOM     52  C   LIG    1       -4.865   1.717   7.744  0.00  0.00    +0.114 A 
ENDBRANCH  46  47
ENDBRANCH  11  46
ENDBRANCH   7  11
ENDBRANCH   6   9
BRANCH   6  53
ATOM     53  C   LIG    1       -1.873   0.698   5.208  0.00  0.00    +0.187 C 
BRANCH  53  54
ATOM     54  O   LIG    1       -0.589   1.038   4.724  0.00  0.00    -0.393 OA
ATOM     55  H   LIG    1        0.043   0.945   5.441  0.00  0.00    +0.209 HD
ENDBRANCH  53  54
ENDBRANCH   6  53
ENDBRANCH   2   6
ENDBRANCH   1   4
BRANCH   1  56
ATOM     56  C   LIG    1       -0.768   0.556  -0.057  0.00  0.00    +0.234 C 
ATOM     57  O   LIG    1       -0.789   1.418  -0.936  0.00  0.00    -0.274 OA
ATOM     58  N   LIG    1        0.350   0.065   0.510  0.00  0.00    -0.302 N 
ATOM     59  H   LIG    1        0.251  -0.628   1.238  0.00  0.00    +0.150 HD
BRANCH  58  60
ATOM     60  C   LIG    1        1.736   0.416   0.174  0.00  0.00    +0.159 C 
BRANCH  60  61
ATOM     61  C   LIG    1        2.036   0.064  -1.298  0.00  0.00    +0.234 C 
ATOM     62  O   LIG    1        2.272   0.952  -2.118  0.00  0.00    -0.274 OA
ATOM     63  N   LIG    1        1.930  -1.240  -1.611  0.00  0.00    -0.302 N 
ATOM     64  H   LIG    1        1.729  -1.908  -0.880  0.00  0.00    +0.150 HD
BRANCH  63  65
ATOM     65  C   LIG    1        1.889  -1.762  -2.976  0.00  0.00    +0.159 C 
BRANCH  65  66
ATOM     66  C   LIG    1        0.504  -1.476  -3.583  0.00  0.00    +0.234 C 
ATOM     67  O   LIG    1       -0.477  -2.108  -3.190  0.00  0.00    -0.274 OA
ATOM     68  N   LIG    1        0.464  -0.510  -4.513  0.00  0.00    -0.302 N 
ATOM     69  H   LIG    1        1.316  -0.033  -4.768  0.00  0.00    +0.150 HD
BRANCH  68  70
ATOM     70  C   LIG    1       -0.749  -0.037  -5.174  0.00  0.00    +0.159 C 
BRANCH  70  71
ATOM     71  C   LIG    1       -0.350   0.613  -6.513  0.00  0.00    +0.237 C 
ATOM     72  O   LIG    1       -0.162   1.830  -6.545  0.00  0.00    -0.274 OA
ATOM     73  N   LIG    1       -0.190  -0.203  -7.587  0.00  0.00    -0.288 N 
ATOM     74  C   LIG    1       -0.237  -1.668  -7.566  0.00  0.00    +0.109 C 
ATOM     75  C   LIG    1        0.541  -2.092  -8.803  0.00  0.00    +0.021 C 
ATOM     76  C   LIG    1        0.214  -0.993  -9.797  0.00  0.00    +0.033 C 
ATOM     77  C   LIG    1        0.116   0.290  -8.947  0.00  0.00    +0.162 C 
BRANCH  77  78
ATOM     78  C   LIG    1       -0.936   1.274  -9.494  0.00  0.00    +0.234 C 
ATOM     79  N   LIG    1       -0.488   2.518  -9.746  0.00  0.00    -0.303 N 
ATOM     80  H   LIG    1        0.489   2.707  -9.576  0.00  0.00    +0.149 HD
ATOM     81  O   LIG    1       -2.099   0.896  -9.638  0.00  0.00    -0.274 OA
BRANCH  79  82
ATOM     82  C   LIG    1       -1.251   3.673 -10.236  0.00  0.00    +0.156 C 
ATOM     83  C   LIG    1       -2.399   4.026  -9.266  0.00  0.00    +0.038 C 
BRANCH  82  84
ATOM     84  C   LIG    1       -1.754   3.494 -11.686  0.00  0.00    +0.231 C 
ATOM     85  N   LIG    1       -1.194   4.273 -12.616  0.00  0.00    -0.328 N 
ATOM     86  H   LIG    1       -0.473   4.934 -12.366  0.00  0.00    +0.145 HD
ATOM     87  H   LIG    1       -1.494   4.204 -13.578  0.00  0.00    +0.145 HD
ATOM     88  O   LIG    1       -2.647   2.691 -11.948  0.00  0.00    -0.274 OA
ENDBRANCH  82  84
ENDBRANCH  79  82
ENDBRANCH  77  78
ENDBRANCH  70  71
BRANCH  70  89
ATOM     89  C   LIG    1       -1.533   0.894  -4.215  0.00  0.00    +0.035 C 
BRANCH  89  90
ATOM     90  C   LIG    1       -2.830   1.498  -4.793  0.00  0.00    +0.039 C 
BRANCH  90  91
ATOM     91  C   LIG    1       -3.744   2.112  -3.720  0.00  0.00    +0.196 C 
BRANCH  91  92
ATOM     92  N   LIG    1       -3.064   3.149  -2.958  0.00  0.00    -0.276 N 
ATOM     93  H   LIG    1       -2.077   3.237  -3.155  0.00  0.00    +0.258 HD
BRANCH  92  94
ATOM     94  C   LIG    1       -3.522   3.859  -1.853  0.00  0.00    +0.376 C 
ATOM     95  N   LIG    1       -2.791   4.647  -1.196  0.00  0.00    -0.130 NA
ATOM     96  H   LIG    1       -3.267   5.083  -0.419  0.00  0.00    +0.306 HD
BRANCH  94  97
ATOM     97  N   LIG    1       -4.853   3.626  -1.544  0.00  0.00    -0.289 N 
ATOM     98  H   LIG    1       -5.411   3.329  -2.331  0.00  0.00    +0.255 HD
ATOM     99  H   LIG    1       -5.312   4.398  -1.082  0.00  0.00    +0.255 HD
ENDBRANCH  94  97
ENDBRANCH  92  94
ENDBRANCH  91  92
ENDBRANCH  90  91
ENDBRANCH  89  90
ENDBRANCH  70  89
ENDBRANCH  68  70
ENDBRANCH  65  66
BRANCH  65 100
ATOM    100  C   LIG    1        2.238  -3.269  -2.954  0.00  0.00    +0.034 C 
BRANCH 100 101
ATOM    101  C   LIG    1        2.205  -3.987  -4.326  0.00  0.00    -0.015 C 
ATOM    102  C   LIG    1        3.156  -3.340  -5.356  0.00  0.00    +0.007 C 
ATOM    103  C   LIG    1        2.466  -5.500  -4.162  0.00  0.00    +0.007 C 
ENDBRANCH 100 101
ENDBRANCH  65 100
ENDBRANCH  63  65
ENDBRANCH  60  61
BRANCH  60 104
ATOM    104  C   LIG    1        2.077   1.879   0.563  0.00  0.00    +0.033 C 
BRANCH 104 105
ATOM    105  C   LIG    1        3.578   2.231   0.493  0.00  0.00    +0.021 C 
BRANCH 105 106
ATOM    106  C   LIG    1        3.874   3.661   0.984  0.00  0.00    +0.106 C 
BRANCH 106 107
ATOM    107  N   LIG    1        5.280   4.048   0.871  0.00  0.00    -0.300 N 
ATOM    108  H   LIG    1        5.513   4.675   0.115  0.00  0.00    +0.150 HD
ATOM    109  C   LIG    1        6.259   3.635   1.691  0.00  0.00    +0.297 C 
ATOM    110  N   LIG    1        7.449   4.130   1.351  0.00  0.00    -0.313 N 
ATOM    111  H   LIG    1        7.541   4.742   0.553  0.00  0.00    +0.146 HD
ATOM    112  H   LIG    1        8.267   3.891   1.892  0.00  0.00    +0.146 HD
ATOM    113  O   LIG    1        6.103   2.883   2.652  0.00  0.00    -0.253 OA
ENDBRANCH 106 107
ENDBRANCH 105 106
ENDBRANCH 104 105
ENDBRANCH  60 104
ENDBRANCH  58  60
ENDBRANCH   1  56
BRANCH   1 114
ATOM    114  C   LIG    1       -3.271   0.166  -0.484  0.00  0.00    +0.067 C 
BRANCH 114 115
ATOM    115  C   LIG    1       -4.591  -0.402   0.007  0.00  0.00    -0.045 A 
ATOM    116  C   LIG    1       -4.749  -1.794   0.170  0.00  0.00    +0.007 A 
ATOM    117  C   LIG    1       -5.962  -2.317   0.661  0.00  0.00    +0.045 A 
ATOM    118  C   LIG    1       -7.026  -1.450   0.979  0.00  0.00    +0.117 A 
ATOM    119  C   LIG    1       -6.875  -0.061   0.799  0.00  0.00    +0.045 A 
ATOM    120  C   LIG    1       -5.661   0.462   0.319  0.00  0.00    +0.007 A 
BRANCH 118 121
ATOM    121  O   LIG    1       -8.203  -1.955   1.450  0.00  0.00    -0.507 OA
ATOM    122  H   LIG    1       -8.874  -1.281   1.577  0.00  0.00    +0.292 HD
ENDBRANCH 118 121
ENDBRANCH 114 115
ENDBRANCH   1 114
TORSDOF 42
