REMARK  Name = DB00688
REMARK                            x       y       z     vdW  Elec       q    Type
REMARK                         _______ _______ _______ _____ _____    ______ ____
ROOT
ATOM      1  C   LIG    1        2.017  -1.347   0.050  0.00  0.00    -0.076 C 
ATOM      2  C   LIG    1        1.087  -2.378  -0.582  0.00  0.00    +0.039 C 
ATOM      3  C   LIG    1        1.616  -0.345   0.863  0.00  0.00    -0.023 C 
ENDROOT
BRANCH   1   4
ATOM      4  C   LIG    1        3.499  -1.533  -0.273  0.00  0.00    +0.041 C 
BRANCH   4   5
ATOM      5  C   LIG    1        4.001  -0.774  -1.522  0.00  0.00    +0.125 C 
BRANCH   5   6
ATOM      6  C   LIG    1        3.423  -1.291  -2.842  0.00  0.00    +0.307 C 
ATOM      7  O   LIG    1        3.710  -2.410  -3.272  0.00  0.00    -0.251 OA
BRANCH   6   8
ATOM      8  O   LIG    1        2.578  -0.409  -3.414  0.00  0.00    -0.463 OA
BRANCH   8   9
ATOM      9  C   LIG    1        1.907  -0.732  -4.626  0.00  0.00    +0.247 C 
BRANCH   9  10
ATOM     10  C   LIG    1        1.073   0.467  -5.121  0.00  0.00    +0.125 C 
BRANCH  10  14
ATOM     11  O   LIG    1        2.671   3.805  -7.125  0.00  0.00    -0.377 OA
ATOM     12  C   LIG    1        1.774   4.077  -6.055  0.00  0.00    +0.175 C 
ATOM     13  C   LIG    1        0.977   2.805  -5.699  0.00  0.00    +0.112 C 
ATOM     14  N   LIG    1        1.863   1.671  -5.403  0.00  0.00    -0.295 NA
ATOM     15  C   LIG    1        2.871   1.473  -6.456  0.00  0.00    +0.112 C 
ATOM     16  C   LIG    1        3.608   2.786  -6.796  0.00  0.00    +0.175 C 
ENDBRANCH  10  14
ENDBRANCH   9  10
ENDBRANCH   8   9
ENDBRANCH   6   8
ENDBRANCH   5   6
ENDBRANCH   4   5
ENDBRANCH   1   4
BRANCH   3  17
ATOM     17  C   LIG    1        0.204   0.005   1.306  0.00  0.00    +0.069 C 
BRANCH  17  18
ATOM     18  C   LIG    1       -0.242   1.373   0.782  0.00  0.00    +0.040 A 
ATOM     19  C   LIG    1       -0.217   2.505   1.616  0.00  0.00    +0.138 A 
ATOM     20  C   LIG    1       -0.626   3.741   1.109  0.00  0.00    +0.107 A 
ATOM     21  C   LIG    1       -0.706   5.081   1.738  0.00  0.00    +0.343 C 
ATOM     22  O   LIG    1       -0.430   5.431   2.884  0.00  0.00    -0.245 OA
ATOM     23  O   LIG    1       -1.162   5.946   0.804  0.00  0.00    -0.456 OA
ATOM     24  C   LIG    1       -1.404   5.302  -0.435  0.00  0.00    +0.269 C 
ATOM     25  C   LIG    1       -1.047   3.864  -0.200  0.00  0.00    +0.014 A 
ATOM     26  C   LIG    1       -1.081   2.756  -1.051  0.00  0.00    -0.001 A 
ATOM     27  C   LIG    1       -1.512   2.918  -2.502  0.00  0.00    +0.048 C 
ATOM     28  C   LIG    1       -0.685   1.501  -0.550  0.00  0.00    +0.130 A 
BRANCH  19  29
ATOM     29  O   LIG    1        0.210   2.421   2.920  0.00  0.00    -0.506 OA
ATOM     30  H   LIG    1        0.181   3.266   3.376  0.00  0.00    +0.292 HD
ENDBRANCH  19  29
BRANCH  28  31
ATOM     31  O   LIG    1       -0.686   0.395  -1.369  0.00  0.00    -0.494 OA
ATOM     32  C   LIG    1       -1.952  -0.239  -1.506  0.00  0.00    +0.277 C 
ENDBRANCH  28  31
ENDBRANCH  17  18
ENDBRANCH   3  17
TORSDOF 11
