REMARK  Name = DB00844
REMARK                            x       y       z     vdW  Elec       q    Type
REMARK                         _______ _______ _______ _____ _____    ______ ____
ROOT
ATOM      1  C   LIG    1       -2.467   1.845  -1.007  0.00  0.00    -0.038 A 
ATOM      2  C   LIG    1       -1.908   1.675  -2.273  0.00  0.00    +0.014 A 
ATOM      3  C   LIG    1       -2.658   1.451  -3.399  0.00  0.00    +0.166 A 
ATOM      4  O   LIG    1       -1.879   1.533  -4.535  0.00  0.00    -0.481 OA
ATOM      5  C   LIG    1       -0.618   2.116  -4.115  0.00  0.00    +0.215 C 
ATOM      6  C   LIG    1       -0.660   3.675  -4.343  0.00  0.00    +0.156 C 
ATOM      7  C   LIG    1        0.260   4.459  -3.383  0.00  0.00    +0.038 C 
ATOM      8  C   LIG    1        0.041   4.067  -1.899  0.00  0.00    +0.040 C 
ATOM      9  C   LIG    1        0.333   2.564  -1.634  0.00  0.00    +0.095 C 
ATOM     10  C   LIG    1       -0.034   2.032  -0.188  0.00  0.00    +0.094 C 
ATOM     11  N   LIG    1        0.332   0.601   0.020  0.00  0.00    -0.296 NA
ATOM     12  C   LIG    1       -0.098  -0.332  -1.046  0.00  0.00    +0.086 C 
ATOM     13  C   LIG    1        0.096   0.210  -2.483  0.00  0.00    +0.033 C 
ATOM     14  C   LIG    1       -4.033   1.252  -3.305  0.00  0.00    +0.159 A 
ATOM     15  C   LIG    1       -4.628   1.344  -2.038  0.00  0.00    +0.049 A 
ATOM     16  C   LIG    1       -0.451   1.663  -2.636  0.00  0.00    +0.070 C 
ATOM     17  C   LIG    1       -3.854   1.657  -0.906  0.00  0.00    +0.008 A 
ATOM     18  C   LIG    1       -1.548   2.255   0.150  0.00  0.00    +0.057 C 
ENDROOT
BRANCH   6  19
ATOM     19  O   LIG    1       -1.971   4.209  -4.226  0.00  0.00    -0.388 OA
ATOM     20  H   LIG    1       -2.552   3.715  -4.810  0.00  0.00    +0.210 HD
ENDBRANCH   6  19
BRANCH   9  21
ATOM     21  O   LIG    1        1.728   2.442  -1.904  0.00  0.00    -0.386 OA
ATOM     22  H   LIG    1        2.207   2.979  -1.269  0.00  0.00    +0.210 HD
ENDBRANCH   9  21
BRANCH  14  23
ATOM     23  O   LIG    1       -4.783   1.008  -4.425  0.00  0.00    -0.503 OA
ATOM     24  H   LIG    1       -5.717   0.898  -4.232  0.00  0.00    +0.292 HD
ENDBRANCH  14  23
BRANCH  11  25
ATOM     25  C   LIG    1        1.730   0.419   0.434  0.00  0.00    +0.088 C 
BRANCH  25  26
ATOM     26  C   LIG    1        1.955  -0.893   1.217  0.00  0.00    +0.003 C 
ATOM     27  C   LIG    1        3.225  -0.996   2.072  0.00  0.00    +0.005 C 
ATOM     28  C   LIG    1        2.381  -1.804   3.073  0.00  0.00    +0.001 C 
ATOM     29  C   LIG    1        1.129  -1.125   2.491  0.00  0.00    +0.005 C 
ENDBRANCH  25  26
ENDBRANCH  11  25
TORSDOF 5
