REMARK  Name = DB00937
REMARK                            x       y       z     vdW  Elec       q    Type
REMARK                         _______ _______ _______ _____ _____    ______ ____
ROOT
ATOM      1  O   LIG    1        2.377  -2.149   0.917  0.00  0.00    -0.290 OA
ATOM      2  C   LIG    1        1.813  -1.581  -0.023  0.00  0.00    +0.180 C 
ENDROOT
BRANCH   2   3
ATOM      3  C   LIG    1        1.558  -2.313  -1.313  0.00  0.00    +0.019 A 
ATOM      4  C   LIG    1        2.019  -3.629  -1.469  0.00  0.00    +0.011 A 
ATOM      5  C   LIG    1        1.785  -4.327  -2.651  0.00  0.00    +0.001 A 
ATOM      6  C   LIG    1        1.085  -3.716  -3.686  0.00  0.00    +0.000 A 
ATOM      7  C   LIG    1        0.614  -2.414  -3.547  0.00  0.00    +0.001 A 
ATOM      8  C   LIG    1        0.847  -1.715  -2.366  0.00  0.00    +0.011 A 
ENDBRANCH   2   3
BRANCH   2   9
ATOM      9  C   LIG    1        1.387  -0.120   0.138  0.00  0.00    +0.125 C 
ATOM     10  C   LIG    1        2.256   0.645   1.170  0.00  0.00    +0.032 C 
BRANCH   9  11
ATOM     11  N   LIG    1       -0.090  -0.036   0.342  0.00  0.00    -0.293 NA
BRANCH  11  12
ATOM     12  C   LIG    1       -0.589  -0.555   1.627  0.00  0.00    +0.082 C 
ATOM     13  C   LIG    1       -1.644  -1.648   1.396  0.00  0.00    +0.020 C 
ENDBRANCH  11  12
BRANCH  11  14
ATOM     14  C   LIG    1       -0.632   1.279  -0.024  0.00  0.00    +0.082 C 
ATOM     15  C   LIG    1       -2.160   1.294  -0.194  0.00  0.00    +0.020 C 
ENDBRANCH  11  14
ENDBRANCH   9  11
ENDBRANCH   2   9
TORSDOF 5
