REMARK  Name = DB00545
REMARK                            x       y       z     vdW  Elec       q    Type
REMARK                         _______ _______ _______ _____ _____    ______ ____
ROOT
ATOM      1  C   LIG    1        3.367  -1.146   0.016  0.00  0.00    +0.177 C 
ATOM      2  C   LIG    1        4.073  -1.235   1.221  0.00  0.00    +0.051 C 
ATOM      3  C   LIG    1        5.467  -1.329   1.199  0.00  0.00    +0.020 C 
ATOM      4  C   LIG    1        6.134  -1.339  -0.029  0.00  0.00    +0.078 C 
ATOM      5  N   LIG    1        5.428  -1.258  -1.184  0.00  0.00    -0.292 NA
ATOM      6  C   LIG    1        6.134  -1.276  -2.479  0.00  0.00    +0.105 C 
ATOM      7  C   LIG    1        4.076  -1.170  -1.191  0.00  0.00    +0.126 C 
ENDROOT
BRANCH   1   8
ATOM      8  O   LIG    1        1.993  -1.070   0.016  0.00  0.00    -0.438 OA
BRANCH   8   9
ATOM      9  C   LIG    1        1.378   0.154   0.004  0.00  0.00    +0.403 C 
ATOM     10  N   LIG    1       -0.021   0.032   0.002  0.00  0.00    -0.274 N 
ATOM     11  C   LIG    1       -0.873   1.222  -0.004  0.00  0.00    +0.135 C 
ATOM     12  C   LIG    1       -0.741  -1.246   0.006  0.00  0.00    +0.135 C 
ATOM     13  O   LIG    1        1.992   1.227  -0.004  0.00  0.00    -0.226 OA
ENDBRANCH   8   9
ENDBRANCH   1   8
TORSDOF 2
