REMARK  Name = DB00953
REMARK                            x       y       z     vdW  Elec       q    Type
REMARK                         _______ _______ _______ _____ _____    ______ ____
ROOT
ATOM      1  N   LIG    1       -0.964   3.823  -0.744  0.00  0.00    -0.360 N 
ATOM      2  H   LIG    1       -0.982   4.710  -1.225  0.00  0.00    +0.165 HD
ATOM      3  C   LIG    1       -0.306   2.727  -1.237  0.00  0.00    +0.087 A 
ATOM      4  C   LIG    1       -0.447   1.652  -0.379  0.00  0.00    -0.021 A 
ATOM      5  C   LIG    1       -1.250   2.136   0.715  0.00  0.00    +0.003 A 
ATOM      6  C   LIG    1       -1.744   1.550   1.892  0.00  0.00    +0.015 A 
ATOM      7  C   LIG    1       -2.516   2.314   2.769  0.00  0.00    -0.025 A 
ATOM      8  C   LIG    1       -2.797   3.652   2.486  0.00  0.00    +0.007 A 
ATOM      9  C   LIG    1       -2.331   4.278   1.331  0.00  0.00    +0.026 A 
ATOM     10  C   LIG    1       -1.560   3.506   0.457  0.00  0.00    +0.047 A 
ENDROOT
BRANCH   4  11
ATOM     11  C   LIG    1        0.126   0.258  -0.534  0.00  0.00    +0.052 C 
BRANCH  11  12
ATOM     12  C   LIG    1        1.346   0.049   0.388  0.00  0.00    +0.088 C 
BRANCH  12  13
ATOM     13  N   LIG    1        1.800  -1.346   0.432  0.00  0.00    -0.308 NA
ATOM     14  C   LIG    1        2.326  -1.804  -0.853  0.00  0.00    +0.104 C 
ATOM     15  C   LIG    1        2.835  -1.493   1.451  0.00  0.00    +0.104 C 
ENDBRANCH  12  13
ENDBRANCH  11  12
ENDBRANCH   4  11
BRANCH   7  16
ATOM     16  C   LIG    1       -3.064   1.682   4.043  0.00  0.00    +0.180 C 
BRANCH  16  17
ATOM     17  N   LIG    1       -4.478   1.340   3.957  0.00  0.00    -0.248 N 
ATOM     18  C   LIG    1       -5.546   1.906   4.598  0.00  0.00    +0.219 A 
ATOM     19  N   LIG    1       -6.659   1.344   4.201  0.00  0.00    -0.223 NA
ATOM     20  C   LIG    1       -6.217   0.462   3.316  0.00  0.00    +0.245 A 
ATOM     21  N   LIG    1       -4.918   0.406   3.108  0.00  0.00    -0.158 NA
ENDBRANCH  16  17
ENDBRANCH   7  16
TORSDOF 5
