REMARK  Name = DB00239
REMARK                            x       y       z     vdW  Elec       q    Type
REMARK                         _______ _______ _______ _____ _____    ______ ____
ROOT
ATOM      1  N   LIG    1        1.107   0.128  -0.690  0.00  0.00    -0.087 NA
ATOM      2  C   LIG    1        1.563  -1.061  -0.796  0.00  0.00    +0.108 C 
ENDROOT
BRANCH   2   3
ATOM      3  C   LIG    1        3.025  -1.282  -0.773  0.00  0.00    +0.020 A 
ATOM      4  C   LIG    1        3.618  -2.030  -1.804  0.00  0.00    +0.013 A 
ATOM      5  C   LIG    1        4.988  -2.282  -1.822  0.00  0.00    +0.021 A 
ATOM      6  C   LIG    1        5.798  -1.794  -0.801  0.00  0.00    +0.042 A 
ATOM      7 CL   LIG    1        7.495  -2.106  -0.818  0.00  0.00    -0.083 Cl
ATOM      8  C   LIG    1        5.233  -1.057   0.237  0.00  0.00    +0.040 A 
ATOM      9  C   LIG    1        3.860  -0.802   0.263  0.00  0.00    +0.051 A 
ATOM     10 CL   LIG    1        3.247   0.078   1.626  0.00  0.00    -0.083 Cl
ENDBRANCH   2   3
BRANCH   1  11
ATOM     11  O   LIG    1       -0.297   0.175  -0.724  0.00  0.00    -0.389 OA
BRANCH  11  12
ATOM     12  C   LIG    1       -0.732   1.492  -0.419  0.00  0.00    +0.299 C 
BRANCH  12  13
ATOM     13  C   LIG    1       -2.240   1.468  -0.209  0.00  0.00    +0.011 A 
ATOM     14  C   LIG    1       -2.812   0.802   0.888  0.00  0.00    +0.049 A 
ATOM     15 CL   LIG    1       -1.834  -0.017   2.059  0.00  0.00    -0.083 Cl
ATOM     16  C   LIG    1       -4.198   0.789   1.050  0.00  0.00    +0.040 A 
ATOM     17  C   LIG    1       -5.021   1.434   0.127  0.00  0.00    +0.042 A 
ATOM     18 CL   LIG    1       -6.735   1.410   0.333  0.00  0.00    -0.083 Cl
ATOM     19  C   LIG    1       -4.458   2.097  -0.962  0.00  0.00    +0.020 A 
ATOM     20  C   LIG    1       -3.074   2.114  -1.129  0.00  0.00    +0.010 A 
ENDBRANCH  12  13
ENDBRANCH  11  12
ENDBRANCH   1  11
BRANCH   2  21
ATOM     21  C   LIG    1        0.698  -2.330  -0.980  0.00  0.00    +0.182 C 
BRANCH  21  22
ATOM     22  N   LIG    1        0.958  -3.335   0.044  0.00  0.00    -0.331 N 
ATOM     23  C   LIG    1        1.688  -4.490  -0.076  0.00  0.00    +0.107 A 
ATOM     24  C   LIG    1        1.645  -5.085   1.176  0.00  0.00    +0.130 A 
ATOM     25  N   LIG    1        0.941  -4.372   2.039  0.00  0.00    -0.244 NA
ATOM     26  C   LIG    1        0.536  -3.329   1.353  0.00  0.00    +0.199 A 
ENDBRANCH  21  22
ENDBRANCH   2  21
TORSDOF 6
