REMARK  Name = DB00959
REMARK                            x       y       z     vdW  Elec       q    Type
REMARK                         _______ _______ _______ _____ _____    ______ ____
ROOT
ATOM      1  C   LIG    1       -1.776  -1.624  -0.671  0.00  0.00    +0.008 C 
ATOM      2  C   LIG    1       -0.589  -0.798  -1.211  0.00  0.00    +0.043 C 
ATOM      3  C   LIG    1       -0.014   0.000   0.004  0.00  0.00    +0.131 C 
ATOM      4  C   LIG    1       -0.422  -0.894   1.240  0.00  0.00    +0.009 C 
ATOM      5  C   LIG    1        0.497  -2.161   1.360  0.00  0.00    +0.015 C 
ATOM      6  C   LIG    1       -0.541  -0.154   2.609  0.00  0.00    +0.041 C 
ATOM      7  C   LIG    1       -1.258  -0.983   3.713  0.00  0.00    +0.120 C 
ATOM      8  C   LIG    1       -2.658  -1.524   3.231  0.00  0.00    +0.035 C 
ATOM      9  C   LIG    1       -2.598  -2.193   1.815  0.00  0.00    -0.000 C 
ATOM     10  C   LIG    1       -4.023  -2.525   1.317  0.00  0.00    +0.012 C 
ATOM     11  C   LIG    1       -4.830  -3.398   2.300  0.00  0.00    +0.013 C 
ATOM     12  C   LIG    1       -6.216  -3.753   1.718  0.00  0.00    +0.012 C 
ATOM     13  C   LIG    1       -4.865  -2.680   3.669  0.00  0.00    -0.053 C 
ATOM     14  C   LIG    1       -6.011  -2.298   4.293  0.00  0.00    +0.051 C 
ATOM     15  C   LIG    1       -6.095  -1.596   5.573  0.00  0.00    +0.179 C 
ATOM     16  O   LIG    1       -7.160  -1.277   6.098  0.00  0.00    -0.288 OA
ATOM     17  C   LIG    1       -4.797  -1.306   6.166  0.00  0.00    +0.047 C 
ATOM     18  C   LIG    1       -3.624  -1.655   5.606  0.00  0.00    -0.012 C 
ATOM     19  C   LIG    1       -3.453  -2.404   4.274  0.00  0.00    +0.013 C 
ATOM     20  C   LIG    1       -2.795  -3.769   4.624  0.00  0.00    +0.020 C 
ATOM     21  C   LIG    1       -1.870  -1.249   0.816  0.00  0.00    +0.002 C 
ENDROOT
BRANCH   3  22
ATOM     22  C   LIG    1        1.528   0.234  -0.100  0.00  0.00    +0.190 C 
ATOM     23  O   LIG    1        2.241  -0.531  -0.756  0.00  0.00    -0.292 OA
BRANCH  22  24
ATOM     24  C   LIG    1        2.136   1.446   0.642  0.00  0.00    +0.233 C 
BRANCH  24  25
ATOM     25  O   LIG    1        3.546   1.471   0.501  0.00  0.00    -0.387 OA
ATOM     26  H   LIG    1        3.885   2.253   0.943  0.00  0.00    +0.210 HD
ENDBRANCH  24  25
ENDBRANCH  22  24
ENDBRANCH   3  22
BRANCH   3  27
ATOM     27  O   LIG    1       -0.602   1.299   0.028  0.00  0.00    -0.380 OA
ATOM     28  H   LIG    1       -1.557   1.200   0.026  0.00  0.00    +0.211 HD
ENDBRANCH   3  27
BRANCH   7  29
ATOM     29  O   LIG    1       -0.393  -1.970   4.236  0.00  0.00    -0.391 OA
ATOM     30  H   LIG    1       -0.835  -2.404   4.969  0.00  0.00    +0.210 HD
ENDBRANCH   7  29
TORSDOF 5
