REMARK  Name = DB00439
REMARK                            x       y       z     vdW  Elec       q    Type
REMARK                         _______ _______ _______ _____ _____    ______ ____
ROOT
ATOM      1  C   LIG    1       -0.813  -1.608   0.042  0.00  0.00    -0.002 A 
ATOM      2  C   LIG    1        0.006  -0.460  -0.074  0.00  0.00    +0.004 A 
ATOM      3  C   LIG    1       -0.616   0.793  -0.225  0.00  0.00    +0.052 A 
ATOM      4  N   LIG    1       -1.962   0.924  -0.291  0.00  0.00    -0.255 NA
ATOM      5  C   LIG    1       -2.756  -0.171  -0.199  0.00  0.00    +0.050 A 
ATOM      6  C   LIG    1       -2.221  -1.463  -0.013  0.00  0.00    +0.008 A 
ENDROOT
BRANCH   1  11
ATOM      7  F   LIG    1        1.523  -6.669   0.867  0.00  0.00    -0.205 F 
ATOM      8  C   LIG    1        0.962  -5.455   0.668  0.00  0.00    +0.123 A 
ATOM      9  C   LIG    1        0.954  -4.519   1.699  0.00  0.00    +0.039 A 
ATOM     10  C   LIG    1        0.375  -3.270   1.493  0.00  0.00    +0.011 A 
ATOM     11  C   LIG    1       -0.199  -2.952   0.257  0.00  0.00    -0.017 A 
ATOM     12  C   LIG    1       -0.182  -3.900  -0.772  0.00  0.00    +0.011 A 
ATOM     13  C   LIG    1        0.397  -5.149  -0.568  0.00  0.00    +0.039 A 
ENDBRANCH   1  11
BRANCH   3  14
ATOM     14  C   LIG    1        0.162   2.113  -0.392  0.00  0.00    +0.032 C 
ATOM     15  C   LIG    1        0.249   2.522  -1.874  0.00  0.00    +0.014 C 
ATOM     16  C   LIG    1       -0.393   3.261   0.478  0.00  0.00    +0.014 C 
ENDBRANCH   3  14
BRANCH   5  17
ATOM     17  C   LIG    1       -4.269   0.121  -0.280  0.00  0.00    +0.032 C 
ATOM     18  C   LIG    1       -4.909   0.134   1.122  0.00  0.00    +0.014 C 
ATOM     19  C   LIG    1       -4.642   1.406  -1.059  0.00  0.00    +0.014 C 
ENDBRANCH   5  17
BRANCH   2  20
ATOM     20  C   LIG    1        1.484  -0.548  -0.050  0.00  0.00    +0.008 C 
ATOM     21  C   LIG    1        2.227  -1.284  -0.895  0.00  0.00    +0.005 C 
BRANCH  21  22
ATOM     22  C   LIG    1        3.742  -1.354  -0.868  0.00  0.00    +0.140 C 
BRANCH  22  23
ATOM     23  O   LIG    1        4.106  -2.718  -0.825  0.00  0.00    -0.388 OA
ATOM     24  H   LIG    1        3.950  -3.103  -1.690  0.00  0.00    +0.210 HD
ENDBRANCH  22  23
BRANCH  22  25
ATOM     25  C   LIG    1        4.406  -0.683  -2.093  0.00  0.00    +0.067 C 
BRANCH  25  26
ATOM     26  C   LIG    1        4.118   0.832  -2.235  0.00  0.00    +0.128 C 
BRANCH  26  27
ATOM     27  O   LIG    1        4.601   1.517  -1.091  0.00  0.00    -0.391 OA
ATOM     28  H   LIG    1        4.206   1.123  -0.310  0.00  0.00    +0.210 HD
ENDBRANCH  26  27
BRANCH  26  29
ATOM     29  C   LIG    1        4.744   1.429  -3.520  0.00  0.00    +0.151 C 
BRANCH  29  30
ATOM     30  C   LIG    1        4.345   2.883  -3.801  0.00  0.00    +0.307 C 
ATOM     31  O   LIG    1        5.148   3.813  -3.805  0.00  0.00    -0.251 OA
BRANCH  30  32
ATOM     32  O   LIG    1        3.010   3.004  -4.058  0.00  0.00    -0.481 OA
ATOM     33  H   LIG    1        2.757   3.912  -4.238  0.00  0.00    +0.295 HD
ENDBRANCH  30  32
ENDBRANCH  29  30
ENDBRANCH  26  29
ENDBRANCH  25  26
ENDBRANCH  22  25
ENDBRANCH  21  22
ENDBRANCH   2  20
BRANCH   6  34
ATOM     34  C   LIG    1       -3.121  -2.693   0.176  0.00  0.00    +0.197 C 
BRANCH  34  35
ATOM     35  O   LIG    1       -2.971  -3.175   1.505  0.00  0.00    -0.378 OA
ATOM     36  C   LIG    1       -3.589  -4.432   1.728  0.00  0.00    +0.194 C 
ENDBRANCH  34  35
ENDBRANCH   6  34
TORSDOF 14
