REMARK  Name = DB00974
REMARK                            x       y       z     vdW  Elec       q    Type
REMARK                         _______ _______ _______ _____ _____    ______ ____
ROOT
ATOM      1  C   LIG    1       -0.022   0.415   0.880  0.00  0.00    +0.101 C 
ENDROOT
BRANCH   1   2
ATOM      2  N   LIG    1       -0.619   1.620   0.257  0.00  0.00    -0.281 NA
BRANCH   2   3
ATOM      3  C   LIG    1       -1.124   1.276  -1.097  0.00  0.00    +0.206 C 
BRANCH   3   5
ATOM      4  O   LIG    1        0.977   2.037  -2.114  0.00  0.00    -0.250 OA
ATOM      5  C   LIG    1       -0.041   1.350  -2.188  0.00  0.00    +0.319 C 
BRANCH   5   6
ATOM      6  O   LIG    1       -0.393   0.603  -3.273  0.00  0.00    -0.480 OA
ATOM      7  H   LIG    1        0.257   0.656  -3.977  0.00  0.00    +0.295 HD
ENDBRANCH   5   6
ENDBRANCH   3   5
ENDBRANCH   2   3
BRANCH   2   8
ATOM      8  C   LIG    1       -1.777   1.940   1.122  0.00  0.00    +0.206 C 
BRANCH   8   9
ATOM      9  C   LIG    1       -2.331   3.349   0.842  0.00  0.00    +0.319 C 
ATOM     10  O   LIG    1       -3.528   3.569   0.668  0.00  0.00    -0.250 OA
BRANCH   9  11
ATOM     11  O   LIG    1       -1.360   4.310   0.855  0.00  0.00    -0.480 OA
ATOM     12  H   LIG    1       -1.711   5.188   0.692  0.00  0.00    +0.295 HD
ENDBRANCH   9  11
ENDBRANCH   8   9
ENDBRANCH   2   8
ENDBRANCH   1   2
BRANCH   1  13
ATOM     13  C   LIG    1        1.357   0.005   0.310  0.00  0.00    +0.101 C 
BRANCH  13  14
ATOM     14  N   LIG    1        2.196  -0.792   1.243  0.00  0.00    -0.281 NA
BRANCH  14  15
ATOM     15  C   LIG    1        3.556  -0.820   0.658  0.00  0.00    +0.206 C 
BRANCH  15  16
ATOM     16  C   LIG    1        4.324   0.493   0.900  0.00  0.00    +0.319 C 
ATOM     17  O   LIG    1        4.907   1.095   0.002  0.00  0.00    -0.250 OA
BRANCH  16  18
ATOM     18  O   LIG    1        4.314   0.874   2.212  0.00  0.00    -0.480 OA
ATOM     19  H   LIG    1        4.801   1.688   2.360  0.00  0.00    +0.295 HD
ENDBRANCH  16  18
ENDBRANCH  15  16
ENDBRANCH  14  15
BRANCH  14  20
ATOM     20  C   LIG    1        1.717  -2.195   1.253  0.00  0.00    +0.206 C 
BRANCH  20  21
ATOM     21  C   LIG    1        0.521  -2.428   2.196  0.00  0.00    +0.319 C 
ATOM     22  O   LIG    1        0.255  -1.727   3.172  0.00  0.00    -0.250 OA
BRANCH  21  23
ATOM     23  O   LIG    1       -0.166  -3.550   1.840  0.00  0.00    -0.480 OA
ATOM     24  H   LIG    1       -0.904  -3.726   2.428  0.00  0.00    +0.295 HD
ENDBRANCH  21  23
ENDBRANCH  20  21
ENDBRANCH  14  20
ENDBRANCH  13  14
ENDBRANCH   1  13
TORSDOF 15
