REMARK  Name = DB00604
REMARK                            x       y       z     vdW  Elec       q    Type
REMARK                         _______ _______ _______ _____ _____    ______ ____
ROOT
ATOM      1  C   LIG    1        1.331  -0.121   0.379  0.00  0.00    +0.104 C 
ATOM      2  C   LIG    1        2.077  -1.064  -0.590  0.00  0.00    +0.040 C 
ATOM      3  C   LIG    1        3.602  -1.129  -0.338  0.00  0.00    +0.086 C 
ATOM      4  N   LIG    1        3.946  -1.363   1.072  0.00  0.00    -0.300 NA
ATOM      5  C   LIG    1        3.327  -0.335   1.921  0.00  0.00    +0.117 C 
ATOM      6  C   LIG    1        1.783  -0.393   1.833  0.00  0.00    +0.152 C 
ENDROOT
BRANCH   1   9
ATOM      7  C   LIG    1       -0.937   0.920   0.592  0.00  0.00    +0.248 C 
ATOM      8  O   LIG    1       -0.532   1.910   1.205  0.00  0.00    -0.270 OA
ATOM      9  N   LIG    1       -0.116  -0.055   0.154  0.00  0.00    -0.306 N 
ATOM     10  H   LIG    1       -0.531  -0.865  -0.284  0.00  0.00    +0.149 HD
BRANCH   7  11
ATOM     11  C   LIG    1       -2.405   0.747   0.259  0.00  0.00    +0.080 A 
ATOM     12  C   LIG    1       -2.962  -0.542   0.235  0.00  0.00    +0.038 A 
ATOM     13  C   LIG    1       -4.310  -0.746  -0.053  0.00  0.00    +0.062 A 
ATOM     14 CL   LIG    1       -4.922  -2.366  -0.063  0.00  0.00    -0.082 Cl
ATOM     15  C   LIG    1       -5.132   0.352  -0.322  0.00  0.00    +0.047 A 
ATOM     16  C   LIG    1       -4.594   1.638  -0.300  0.00  0.00    +0.070 A 
ATOM     17  C   LIG    1       -3.235   1.858  -0.012  0.00  0.00    +0.134 A 
BRANCH  15  18
ATOM     18  N   LIG    1       -6.487   0.191  -0.617  0.00  0.00    -0.357 N 
ATOM     19  H   LIG    1       -7.002   0.986  -0.966  0.00  0.00    +0.142 HD
ATOM     20  H   LIG    1       -6.834  -0.746  -0.765  0.00  0.00    +0.142 HD
ENDBRANCH  15  18
BRANCH  17  21
ATOM     21  O   LIG    1       -2.673   3.126  -0.003  0.00  0.00    -0.494 OA
ATOM     22  C   LIG    1       -3.482   4.269  -0.259  0.00  0.00    +0.277 C 
ENDBRANCH  17  21
ENDBRANCH   7  11
ENDBRANCH   1   9
BRANCH   6  23
ATOM     23  O   LIG    1        1.229  -1.645   2.248  0.00  0.00    -0.377 OA
ATOM     24  C   LIG    1        1.297  -1.912   3.642  0.00  0.00    +0.194 C 
ENDBRANCH   6  23
BRANCH   4  25
ATOM     25  C   LIG    1        5.402  -1.425   1.231  0.00  0.00    +0.088 C 
BRANCH  25  26
ATOM     26  C   LIG    1        5.841  -1.947   2.617  0.00  0.00    +0.056 C 
BRANCH  26  27
ATOM     27  C   LIG    1        7.342  -2.266   2.689  0.00  0.00    +0.230 C 
BRANCH  27  28
ATOM     28  O   LIG    1        8.090  -1.080   2.430  0.00  0.00    -0.492 OA
BRANCH  28  29
ATOM     29  C   LIG    1        9.470  -1.131   2.430  0.00  0.00    +0.121 A 
ATOM     30  C   LIG    1       10.220  -2.292   2.684  0.00  0.00    +0.048 A 
ATOM     31  C   LIG    1       11.612  -2.245   2.662  0.00  0.00    +0.042 A 
ATOM     32  C   LIG    1       12.260  -1.044   2.388  0.00  0.00    +0.124 A 
ATOM     33  C   LIG    1       11.527   0.113   2.137  0.00  0.00    +0.042 A 
ATOM     34  F   LIG    1       13.611  -1.000   2.368  0.00  0.00    -0.205 F 
ATOM     35  C   LIG    1       10.136   0.066   2.159  0.00  0.00    +0.048 A 
ENDBRANCH  28  29
ENDBRANCH  27  28
ENDBRANCH  26  27
ENDBRANCH  25  26
ENDBRANCH   4  25
TORSDOF 10
