REMARK  Name = DB00196
REMARK                            x       y       z     vdW  Elec       q    Type
REMARK                         _______ _______ _______ _____ _____    ______ ____
ROOT
ATOM      1  C   LIG    1       -0.048   0.055  -0.075  0.00  0.00    +0.132 C 
ENDROOT
BRANCH   1   9
ATOM      2  F   LIG    1        0.570  -2.724  -0.611  0.00  0.00    -0.205 F 
ATOM      3  C   LIG    1       -0.204  -2.073  -1.510  0.00  0.00    +0.132 A 
ATOM      4  C   LIG    1       -0.655  -2.774  -2.628  0.00  0.00    +0.077 A 
ATOM      5  C   LIG    1       -1.456  -2.142  -3.576  0.00  0.00    +0.126 A 
ATOM      6  C   LIG    1       -1.807  -0.806  -3.407  0.00  0.00    +0.039 A 
ATOM      7  C   LIG    1       -1.356  -0.102  -2.291  0.00  0.00    +0.012 A 
ATOM      8  F   LIG    1       -1.893  -2.826  -4.658  0.00  0.00    -0.205 F 
ATOM      9  C   LIG    1       -0.548  -0.721  -1.321  0.00  0.00    +0.023 A 
ENDBRANCH   1   9
BRANCH   1  10
ATOM     10  O   LIG    1       -0.494   1.409  -0.056  0.00  0.00    -0.380 OA
ATOM     11  H   LIG    1       -0.151   1.833   0.734  0.00  0.00    +0.211 HD
ENDBRANCH   1  10
BRANCH   1  12
ATOM     12  C   LIG    1       -0.585  -0.566   1.255  0.00  0.00    +0.186 C 
BRANCH  12  13
ATOM     13  N   LIG    1       -2.046  -0.632   1.330  0.00  0.00    -0.249 N 
ATOM     14  C   LIG    1       -2.921   0.238   1.920  0.00  0.00    +0.219 A 
ATOM     15  N   LIG    1       -4.152  -0.166   1.738  0.00  0.00    -0.223 NA
ATOM     16  C   LIG    1       -3.973  -1.274   1.035  0.00  0.00    +0.244 A 
ATOM     17  N   LIG    1       -2.735  -1.618   0.747  0.00  0.00    -0.158 NA
ENDBRANCH  12  13
ENDBRANCH   1  12
BRANCH   1  18
ATOM     18  C   LIG    1        1.512   0.144  -0.026  0.00  0.00    +0.186 C 
BRANCH  18  19
ATOM     19  N   LIG    1        2.108   0.777  -1.204  0.00  0.00    -0.249 N 
ATOM     20  C   LIG    1        2.504   2.075  -1.379  0.00  0.00    +0.219 A 
ATOM     21  N   LIG    1        2.962   2.248  -2.591  0.00  0.00    -0.223 NA
ATOM     22  C   LIG    1        2.822   1.037  -3.110  0.00  0.00    +0.244 A 
ATOM     23  N   LIG    1        2.312   0.101  -2.338  0.00  0.00    -0.158 NA
ENDBRANCH  18  19
ENDBRANCH   1  18
TORSDOF 6
