REMARK  Name = DB00315
REMARK                            x       y       z     vdW  Elec       q    Type
REMARK                         _______ _______ _______ _____ _____    ______ ____
ROOT
ATOM      1  C   LIG    1        0.400   2.633  -2.107  0.00  0.00    +0.014 A 
ATOM      2  C   LIG    1        0.431   3.850  -2.792  0.00  0.00    -0.045 A 
ATOM      3  C   LIG    1       -0.255   4.960  -2.297  0.00  0.00    +0.006 A 
ATOM      4  C   LIG    1       -0.992   4.909  -1.114  0.00  0.00    +0.026 A 
ATOM      5  C   LIG    1       -1.018   3.687  -0.434  0.00  0.00    +0.047 A 
ATOM      6  N   LIG    1       -1.642   3.317   0.736  0.00  0.00    -0.360 N 
ATOM      7  H   LIG    1       -2.217   3.891   1.336  0.00  0.00    +0.165 HD
ATOM      8  C   LIG    1       -1.375   2.001   1.007  0.00  0.00    +0.087 A 
ATOM      9  C   LIG    1       -0.566   1.460   0.025  0.00  0.00    -0.021 A 
ATOM     10  C   LIG    1       -0.328   2.531  -0.910  0.00  0.00    +0.003 A 
ENDROOT
BRANCH   9  11
ATOM     11  C   LIG    1       -0.031   0.045  -0.060  0.00  0.00    +0.052 C 
BRANCH  11  12
ATOM     12  C   LIG    1        1.493   0.007   0.185  0.00  0.00    +0.088 C 
BRANCH  12  13
ATOM     13  N   LIG    1        2.024  -1.357   0.279  0.00  0.00    -0.308 NA
ATOM     14  C   LIG    1        3.422  -1.312   0.698  0.00  0.00    +0.104 C 
ATOM     15  C   LIG    1        1.929  -2.079  -0.989  0.00  0.00    +0.104 C 
ENDBRANCH  12  13
ENDBRANCH  11  12
ENDBRANCH   9  11
BRANCH   2  16
ATOM     16  C   LIG    1        1.216   3.965  -4.094  0.00  0.00    +0.061 C 
BRANCH  16  17
ATOM     17  C   LIG    1        0.326   3.899  -5.359  0.00  0.00    +0.118 C 
ATOM     18  C   LIG    1        1.110   3.946  -6.660  0.00  0.00    +0.256 C 
ATOM     19  O   LIG    1        1.143   2.594  -7.075  0.00  0.00    -0.449 OA
ATOM     20  C   LIG    1        0.269   1.814  -6.406  0.00  0.00    +0.401 C 
ATOM     21  O   LIG    1        0.126   0.615  -6.629  0.00  0.00    -0.226 OA
ATOM     22  N   LIG    1       -0.365   2.635  -5.489  0.00  0.00    -0.275 N 
ATOM     23  H   LIG    1       -1.332   2.516  -5.224  0.00  0.00    +0.152 HD
ENDBRANCH  16  17
ENDBRANCH   2  16
TORSDOF 5
