REMARK  Name = DB00487
REMARK                            x       y       z     vdW  Elec       q    Type
REMARK                         _______ _______ _______ _____ _____    ______ ____
ROOT
ATOM      1  F   LIG    1        1.275  -0.537   2.013  0.00  0.00    -0.204 F 
ATOM      2  C   LIG    1        2.018  -0.110   0.963  0.00  0.00    +0.145 A 
ATOM      3  C   LIG    1        3.405  -0.125   1.093  0.00  0.00    +0.054 A 
ATOM      4  C   LIG    1        4.245   0.250   0.035  0.00  0.00    +0.049 A 
ATOM      5  C   LIG    1        5.744   0.221   0.238  0.00  0.00    +0.203 A 
ATOM      6  C   LIG    1        6.539   0.650  -0.951  0.00  0.00    +0.122 A 
ATOM      7  C   LIG    1        5.875   1.000  -2.087  0.00  0.00    +0.105 A 
ATOM      8  N   LIG    1        4.501   1.000  -2.265  0.00  0.00    -0.346 N 
ATOM      9  O   LIG    1        6.222  -0.134   1.319  0.00  0.00    -0.286 OA
ATOM     10  C   LIG    1        3.653   0.639  -1.186  0.00  0.00    +0.055 A 
ATOM     11  C   LIG    1        2.254   0.655  -1.302  0.00  0.00    +0.052 A 
ATOM     12  C   LIG    1        1.414   0.304  -0.234  0.00  0.00    +0.067 A 
ENDROOT
BRANCH  12  13
ATOM     13  N   LIG    1        0.025   0.299  -0.376  0.00  0.00    -0.325 N 
ATOM     14  C   LIG    1       -0.805   1.067   0.573  0.00  0.00    +0.120 C 
ATOM     15  C   LIG    1       -2.296   0.655   0.568  0.00  0.00    +0.103 C 
ATOM     16  N   LIG    1       -2.855   0.787  -0.775  0.00  0.00    -0.302 NA
ATOM     17  C   LIG    1       -4.271   0.434  -0.768  0.00  0.00    +0.105 C 
ATOM     18  C   LIG    1       -2.117  -0.111  -1.660  0.00  0.00    +0.103 C 
ATOM     19  C   LIG    1       -0.622   0.281  -1.703  0.00  0.00    +0.120 C 
ENDBRANCH  12  13
BRANCH   6  20
ATOM     20  C   LIG    1        8.005   0.695  -0.905  0.00  0.00    +0.342 C 
ATOM     21  O   LIG    1        8.680   0.398   0.080  0.00  0.00    -0.245 OA
BRANCH  20  22
ATOM     22  O   LIG    1        8.597   1.103  -2.069  0.00  0.00    -0.477 OA
ATOM     23  H   LIG    1        9.554   1.118  -2.001  0.00  0.00    +0.295 HD
ENDBRANCH  20  22
ENDBRANCH   6  20
BRANCH   8  24
ATOM     24  C   LIG    1        3.988   1.494  -3.549  0.00  0.00    +0.118 C 
ATOM     25  C   LIG    1        3.582   2.975  -3.513  0.00  0.00    +0.027 C 
ENDBRANCH   8  24
TORSDOF 4
