REMARK  Name = DB00336
REMARK                            x       y       z     vdW  Elec       q    Type
REMARK                         _______ _______ _______ _____ _____    ______ ____
ROOT
ATOM      1  O   LIG    1       -0.561   1.213   0.000  0.00  0.00    -0.433 OA
ATOM      2  C   LIG    1       -1.905   0.994   0.000  0.00  0.00    +0.276 A 
ATOM      3  C   LIG    1       -2.151  -0.371   0.000  0.00  0.00    +0.076 A 
ATOM      4  C   LIG    1       -0.904  -0.997   0.000  0.00  0.00    +0.053 A 
ATOM      5  C   LIG    1        0.063   0.004   0.000  0.00  0.00    +0.150 A 
ENDROOT
BRANCH   2   6
ATOM      6  N   LIG    1       -2.779   2.121   0.000  0.00  0.00    +0.043 N 
ATOM      7  O   LIG    1       -3.985   1.897   0.000  0.00  0.00    -0.127 OA
BRANCH   6   8
ATOM      8  O   LIG    1       -2.274   3.240   0.000  0.00  0.00    -0.394 OA
ATOM      9  H   LIG    1       -2.820   4.001   0.000  0.00  0.00    +0.329 HD
ENDBRANCH   6   8
ENDBRANCH   2   6
BRANCH   5  10
ATOM     10  C   LIG    1        1.517   0.012   0.000  0.00  0.00    +0.176 C 
ATOM     11  N   LIG    1        2.170  -1.077   0.000  0.00  0.00    -0.183 NA
BRANCH  11  12
ATOM     12  N   LIG    1        3.501  -0.879   0.000  0.00  0.00    -0.191 N 
ATOM     13  H   LIG    1        3.801   0.084   0.000  0.00  0.00    +0.179 HD
ATOM     14  C   LIG    1        4.379  -1.899   0.000  0.00  0.00    +0.317 C 
ATOM     15  N   LIG    1        5.643  -1.475   0.000  0.00  0.00    -0.312 N 
ATOM     16  H   LIG    1        6.398  -2.145   0.000  0.00  0.00    +0.147 HD
ATOM     17  H   LIG    1        5.856  -0.488   0.000  0.00  0.00    +0.147 HD
ATOM     18  O   LIG    1        4.086  -3.095   0.000  0.00  0.00    -0.251 OA
ENDBRANCH  11  12
ENDBRANCH   5  10
TORSDOF 4
