REMARK  Name = DB00423
REMARK                            x       y       z     vdW  Elec       q    Type
REMARK                         _______ _______ _______ _____ _____    ______ ____
ROOT
ATOM      1  C   LIG    1        1.987  -1.305   0.169  0.00  0.00    +0.189 C 
ENDROOT
BRANCH   1   2
ATOM      2  O   LIG    1        1.567  -1.871   1.398  0.00  0.00    -0.385 OA
ATOM      3  H   LIG    1        0.619  -1.744   1.481  0.00  0.00    +0.210 HD
ENDBRANCH   1   2
BRANCH   1   4
ATOM      4  C   LIG    1        3.517  -1.435   0.050  0.00  0.00    +0.268 C 
BRANCH   4   5
ATOM      5  O   LIG    1        3.898  -2.805  -0.048  0.00  0.00    -0.448 OA
BRANCH   5   6
ATOM      6  C   LIG    1        5.195  -3.153  -0.141  0.00  0.00    +0.398 C 
ATOM      7  N   LIG    1        5.296  -4.523  -0.214  0.00  0.00    -0.295 N 
ATOM      8  H   LIG    1        6.208  -4.948  -0.288  0.00  0.00    +0.148 HD
ATOM      9  H   LIG    1        4.457  -5.083  -0.186  0.00  0.00    +0.148 HD
ATOM     10  O   LIG    1        6.146  -2.371  -0.159  0.00  0.00    -0.227 OA
ENDBRANCH   5   6
ENDBRANCH   4   5
ENDBRANCH   1   4
BRANCH   1  11
ATOM     11  C   LIG    1        1.533   0.165   0.123  0.00  0.00    +0.264 C 
BRANCH  11  12
ATOM     12  O   LIG    1        0.110   0.219   0.051  0.00  0.00    -0.486 OA
BRANCH  12  13
ATOM     13  C   LIG    1       -0.531   1.446   0.022  0.00  0.00    +0.162 A 
ATOM     14  C   LIG    1        0.145   2.679   0.047  0.00  0.00    +0.049 A 
ATOM     15  C   LIG    1       -0.563   3.878   0.016  0.00  0.00    +0.004 A 
ATOM     16  C   LIG    1       -1.953   3.863  -0.041  0.00  0.00    +0.004 A 
ATOM     17  C   LIG    1       -2.636   2.649  -0.067  0.00  0.00    +0.049 A 
ATOM     18  C   LIG    1       -1.934   1.430  -0.035  0.00  0.00    +0.161 A 
BRANCH  18  19
ATOM     19  O   LIG    1       -2.549   0.191  -0.057  0.00  0.00    -0.491 OA
ATOM     20  C   LIG    1       -3.969   0.114  -0.120  0.00  0.00    +0.277 C 
ENDBRANCH  18  19
ENDBRANCH  12  13
ENDBRANCH  11  12
ENDBRANCH   1  11
TORSDOF 8
