REMARK  Name = DB00198
REMARK                            x       y       z     vdW  Elec       q    Type
REMARK                         _______ _______ _______ _____ _____    ______ ____
ROOT
ATOM      1  C   LIG    1        1.446   0.057   0.014  0.00  0.00    +0.164 C 
ATOM      2  C   LIG    1        1.962  -0.546  -1.289  0.00  0.00    +0.016 C 
ATOM      3  C   LIG    1        2.945  -1.474  -1.369  0.00  0.00    +0.037 C 
ATOM      4  C   LIG    1        3.597  -2.075  -0.117  0.00  0.00    +0.062 C 
ATOM      5  C   LIG    1        3.462  -1.117   1.091  0.00  0.00    +0.078 C 
ATOM      6  C   LIG    1        1.978  -0.680   1.276  0.00  0.00    +0.122 C 
ENDROOT
BRANCH   6   7
ATOM      7  N   LIG    1        1.738   0.103   2.498  0.00  0.00    -0.308 N 
ATOM      8  H   LIG    1        2.233   0.980   2.559  0.00  0.00    +0.149 HD
ATOM      9  C   LIG    1        0.913  -0.224   3.509  0.00  0.00    +0.210 C 
ATOM     10  C   LIG    1        0.826   0.772   4.660  0.00  0.00    +0.109 C 
ATOM     11  O   LIG    1        0.243  -1.256   3.548  0.00  0.00    -0.276 OA
ENDBRANCH   6   7
BRANCH   5  12
ATOM     12  N   LIG    1        4.069  -1.694   2.281  0.00  0.00    -0.325 NA
ATOM     13  H   LIG    1        4.018  -1.035   3.044  0.00  0.00    +0.119 HD
ATOM     14  H   LIG    1        5.048  -1.873   2.114  0.00  0.00    +0.119 HD
ENDBRANCH   5  12
BRANCH   3  15
ATOM     15  C   LIG    1        3.392  -1.953  -2.697  0.00  0.00    +0.335 C 
ATOM     16  O   LIG    1        3.003  -1.457  -3.759  0.00  0.00    -0.245 OA
BRANCH  15  17
ATOM     17  O   LIG    1        4.270  -2.986  -2.637  0.00  0.00    -0.462 OA
BRANCH  17  18
ATOM     18  C   LIG    1        4.810  -3.563  -3.820  0.00  0.00    +0.229 C 
ATOM     19  C   LIG    1        5.791  -4.677  -3.442  0.00  0.00    +0.048 C 
ENDBRANCH  17  18
ENDBRANCH  15  17
ENDBRANCH   3  15
BRANCH   1  20
ATOM     20  O   LIG    1        0.017   0.048   0.003  0.00  0.00    -0.367 OA
BRANCH  20  21
ATOM     21  C   LIG    1       -0.652   1.311  -0.025  0.00  0.00    +0.119 C 
BRANCH  21  22
ATOM     22  C   LIG    1       -0.502   1.976  -1.418  0.00  0.00    +0.028 C 
ATOM     23  C   LIG    1       -1.093   3.392  -1.515  0.00  0.00    +0.006 C 
ENDBRANCH  21  22
BRANCH  21  24
ATOM     24  C   LIG    1       -2.126   1.062   0.365  0.00  0.00    +0.028 C 
ATOM     25  C   LIG    1       -2.303   0.391   1.736  0.00  0.00    +0.006 C 
ENDBRANCH  21  24
ENDBRANCH  20  21
ENDBRANCH   1  20
TORSDOF 9
