REMARK  Name = DB00162
REMARK                            x       y       z     vdW  Elec       q    Type
REMARK                         _______ _______ _______ _____ _____    ______ ____
ROOT
ATOM      1  C   LIG    1       -0.688   0.873  -0.319  0.00  0.00    +0.004 C 
ATOM      2  C   LIG    1        0.087   0.025   0.388  0.00  0.00    +0.003 C 
ENDROOT
BRANCH   1   3
ATOM      3  C   LIG    1       -2.142   0.987  -0.176  0.00  0.00    -0.043 C 
ATOM      4  C   LIG    1       -2.693   2.399   0.180  0.00  0.00    -0.010 C 
ATOM      5  C   LIG    1       -2.575   3.286  -1.084  0.00  0.00    +0.016 C 
ATOM      6  C   LIG    1       -1.901   2.977   1.383  0.00  0.00    +0.016 C 
ATOM      7  C   LIG    1       -4.187   2.330   0.617  0.00  0.00    +0.011 C 
ATOM      8  C   LIG    1       -5.029   1.401  -0.256  0.00  0.00    +0.005 C 
ATOM      9  C   LIG    1       -4.483  -0.028  -0.183  0.00  0.00    +0.031 C 
ATOM     10  C   LIG    1       -2.965  -0.090  -0.369  0.00  0.00    -0.069 C 
ATOM     11  C   LIG    1       -2.476  -1.489  -0.748  0.00  0.00    +0.039 C 
ENDBRANCH   1   3
BRANCH   2  12
ATOM     12  C   LIG    1        1.536  -0.086   0.268  0.00  0.00    -0.050 C 
ATOM     13  C   LIG    1        2.122  -1.493   0.221  0.00  0.00    +0.044 C 
ATOM     14  C   LIG    1        2.289   1.035   0.158  0.00  0.00    +0.003 C 
BRANCH  14  15
ATOM     15  C   LIG    1        3.737   1.101   0.029  0.00  0.00    +0.001 C 
ATOM     16  C   LIG    1        4.402   2.264  -0.124  0.00  0.00    +0.003 C 
BRANCH  16  17
ATOM     17  C   LIG    1        5.849   2.391  -0.247  0.00  0.00    -0.052 C 
ATOM     18  C   LIG    1        6.383   3.379  -1.275  0.00  0.00    +0.043 C 
ATOM     19  C   LIG    1        6.660   1.652   0.548  0.00  0.00    +0.004 C 
BRANCH  19  20
ATOM     20  C   LIG    1        8.180   1.620   0.565  0.00  0.00    +0.183 C 
BRANCH  20  21
ATOM     21  O   LIG    1        8.595   0.271   0.585  0.00  0.00    -0.391 OA
ATOM     22  H   LIG    1        9.554   0.248   0.630  0.00  0.00    +0.210 HD
ENDBRANCH  20  21
ENDBRANCH  19  20
ENDBRANCH  16  17
ENDBRANCH  14  15
ENDBRANCH   2  12
TORSDOF 6
