REMARK  Name = DB00644
REMARK                            x       y       z     vdW  Elec       q    Type
REMARK                         _______ _______ _______ _____ _____    ______ ____
ROOT
ATOM      1  C   LIG    1       -1.802   0.226  -1.245  0.00  0.00    +0.163 C 
ENDROOT
BRANCH   1   2
ATOM      2  N   LIG    1       -2.907   1.128  -0.922  0.00  0.00    -0.302 N 
ATOM      3  H   LIG    1       -3.088   1.869  -1.584  0.00  0.00    +0.150 HD
ATOM      4  C   LIG    1       -3.607   1.071   0.225  0.00  0.00    +0.236 C 
ATOM      5  O   LIG    1       -3.442   0.202   1.083  0.00  0.00    -0.274 OA
BRANCH   4   6
ATOM      6  CA  LIG    1       -4.643   2.189   0.449  0.00  0.00    +0.184 C 
BRANCH   6   7
ATOM      7  N   LIG    1       -5.457   1.861   1.619  0.00  0.00    -0.301 N 
ATOM      8  H   LIG    1       -5.085   1.113   2.187  0.00  0.00    +0.150 HD
ATOM      9  C   LIG    1       -6.600   2.447   2.007  0.00  0.00    +0.234 C 
ATOM     10  O   LIG    1       -7.148   3.365   1.396  0.00  0.00    -0.274 OA
BRANCH   9  11
ATOM     11  CA  LIG    1       -7.215   1.866   3.301  0.00  0.00    +0.163 C 
BRANCH  11  12
ATOM     12  N   LIG    1       -8.665   2.078   3.422  0.00  0.00    -0.302 N 
ATOM     13  H   LIG    1       -9.220   1.245   3.291  0.00  0.00    +0.150 HD
ATOM     14  C   LIG    1       -9.318   3.233   3.655  0.00  0.00    +0.234 C 
ATOM     15  O   LIG    1       -8.772   4.324   3.822  0.00  0.00    -0.274 OA
BRANCH  14  16
ATOM     16  CA  LIG    1      -10.857   3.131   3.690  0.00  0.00    +0.165 C 
BRANCH  16  17
ATOM     17  N   LIG    1      -11.409   2.447   2.512  0.00  0.00    -0.302 N 
ATOM     18  H   LIG    1      -11.929   1.606   2.717  0.00  0.00    +0.150 HD
ATOM     19  C   LIG    1      -11.336   2.850   1.228  0.00  0.00    +0.234 C 
ATOM     20  O   LIG    1      -10.719   3.856   0.873  0.00  0.00    -0.274 OA
BRANCH  19  21
ATOM     21  CA  LIG    1      -12.081   1.964   0.206  0.00  0.00    +0.159 C 
ATOM     22  C   LIG    1      -13.597   2.046   0.388  0.00  0.00    +0.041 C 
ATOM     23  C   LIG    1      -14.145   1.939  -1.025  0.00  0.00    +0.098 C 
ATOM     24  C   LIG    1      -12.990   2.306  -1.957  0.00  0.00    +0.214 C 
ATOM     25  O   LIG    1      -13.066   2.483  -3.170  0.00  0.00    -0.276 OA
ATOM     26  N   LIG    1      -11.895   2.389  -1.180  0.00  0.00    -0.304 N 
ATOM     27  H   LIG    1      -10.972   2.535  -1.563  0.00  0.00    +0.149 HD
ENDBRANCH  19  21
ENDBRANCH  16  17
BRANCH  16  28
ATOM     28  CB  LIG    1      -11.556   4.497   3.919  0.00  0.00    +0.086 C 
BRANCH  28  29
ATOM     29  CG  LIG    1      -13.064   4.458   4.035  0.00  0.00    +0.038 A 
ATOM     30  CD2 LIG    1      -13.959   3.421   4.204  0.00  0.00    +0.133 A 
ATOM     31  NE2 LIG    1      -15.264   3.917   4.240  0.00  0.00    -0.244 NA
ATOM     32  CE1 LIG    1      -15.114   5.228   4.098  0.00  0.00    +0.196 A 
ATOM     33  ND1 LIG    1      -13.839   5.604   3.974  0.00  0.00    -0.348 N 
ATOM     34  HD1 LIG    1      -13.502   6.549   3.854  0.00  0.00    +0.166 HD
ENDBRANCH  28  29
ENDBRANCH  16  28
ENDBRANCH  14  16
ENDBRANCH  11  12
BRANCH  11  35
ATOM     35  CB  LIG    1       -6.475   2.274   4.607  0.00  0.00    +0.069 C 
BRANCH  35  36
ATOM     36  CG  LIG    1       -4.976   2.149   4.633  0.00  0.00    -0.020 A 
ATOM     37  CD1 LIG    1       -4.110   3.182   4.754  0.00  0.00    +0.087 A 
ATOM     38  NE1 LIG    1       -2.815   2.712   4.695  0.00  0.00    -0.360 N 
ATOM     39  HE1 LIG    1       -2.011   3.321   4.764  0.00  0.00    +0.165 HD
ATOM     40  CE2 LIG    1       -2.774   1.346   4.516  0.00  0.00    +0.047 A 
ATOM     41  CZ2 LIG    1       -1.722   0.425   4.376  0.00  0.00    +0.026 A 
ATOM     42  CH2 LIG    1       -2.020  -0.936   4.183  0.00  0.00    +0.002 A 
ATOM     43  CZ3 LIG    1       -3.363  -1.359   4.146  0.00  0.00    +0.001 A 
ATOM     44  CE3 LIG    1       -4.411  -0.426   4.296  0.00  0.00    +0.010 A 
ATOM     45  CD2 LIG    1       -4.147   0.952   4.481  0.00  0.00    +0.003 A 
ENDBRANCH  35  36
ENDBRANCH  11  35
ENDBRANCH   9  11
ENDBRANCH   6   7
BRANCH   6  46
ATOM     46  C   LIG    1       -3.991   3.587   0.615  0.00  0.00    +0.187 C 
BRANCH  46  47
ATOM     47  O   LIG    1       -2.927   3.588   1.547  0.00  0.00    -0.393 OA
ATOM     48  H   LIG    1       -3.285   3.408   2.420  0.00  0.00    +0.209 HD
ENDBRANCH  46  47
ENDBRANCH   6  46
ENDBRANCH   4   6
ENDBRANCH   1   2
BRANCH   1  51
ATOM     49  N   LIG    1       -0.317   0.271   0.692  0.00  0.00    -0.305 N 
ATOM     50  H   LIG    1       -1.039  -0.287   1.125  0.00  0.00    +0.149 HD
ATOM     51  C   LIG    1       -0.502   0.701  -0.565  0.00  0.00    +0.234 C 
ATOM     52  O   LIG    1        0.283   1.428  -1.174  0.00  0.00    -0.274 OA
BRANCH  49  53
ATOM     53  C   LIG    1        0.911   0.458   1.466  0.00  0.00    +0.200 C 
BRANCH  53  56
ATOM     54  N   LIG    1        1.271  -1.917   0.852  0.00  0.00    -0.303 N 
ATOM     55  H   LIG    1        0.489  -1.795   0.225  0.00  0.00    +0.149 HD
ATOM     56  C   LIG    1        1.692  -0.863   1.577  0.00  0.00    +0.231 C 
ATOM     57  O   LIG    1        2.651  -0.924   2.345  0.00  0.00    -0.274 OA
BRANCH  54  58
ATOM     58  C   LIG    1        1.826  -3.268   0.903  0.00  0.00    +0.159 C 
BRANCH  58  61
ATOM     59  N   LIG    1        4.083  -4.169   0.822  0.00  0.00    -0.302 N 
ATOM     60  H   LIG    1        3.833  -4.599   1.700  0.00  0.00    +0.150 HD
ATOM     61  C   LIG    1        3.197  -3.360   0.219  0.00  0.00    +0.234 C 
ATOM     62  O   LIG    1        3.391  -2.775  -0.848  0.00  0.00    -0.274 OA
BRANCH  59  63
ATOM     63  C   LIG    1        5.328  -4.645   0.223  0.00  0.00    +0.159 C 
BRANCH  63  65
ATOM     64  O   LIG    1        4.711  -6.950   0.147  0.00  0.00    -0.274 OA
ATOM     65  C   LIG    1        4.980  -5.951  -0.524  0.00  0.00    +0.237 C 
ATOM     66  N   LIG    1        4.883  -5.916  -1.875  0.00  0.00    -0.288 N 
ATOM     67  C   LIG    1        5.440  -4.895  -2.761  0.00  0.00    +0.109 C 
ATOM     68  C   LIG    1        5.565  -5.595  -4.106  0.00  0.00    +0.021 C 
ATOM     69  C   LIG    1        4.372  -6.536  -4.120  0.00  0.00    +0.033 C 
ATOM     70  C   LIG    1        4.165  -6.950  -2.647  0.00  0.00    +0.162 C 
BRANCH  70  71
ATOM     71  C   LIG    1        2.673  -7.024  -2.263  0.00  0.00    +0.234 C 
ATOM     72  N   LIG    1        2.261  -8.170  -1.696  0.00  0.00    -0.305 N 
ATOM     73  H   LIG    1        2.926  -8.920  -1.571  0.00  0.00    +0.149 HD
ATOM     74  O   LIG    1        1.949  -6.044  -2.445  0.00  0.00    -0.274 OA
BRANCH  72  75
ATOM     75  C   LIG    1        0.902  -8.406  -1.203  0.00  0.00    +0.199 C 
BRANCH  75  76
ATOM     76  C   LIG    1       -0.127  -8.593  -2.336  0.00  0.00    +0.228 C 
ATOM     77  N   LIG    1       -1.411  -8.590  -1.973  0.00  0.00    -0.328 N 
ATOM     78  H   LIG    1       -2.131  -8.714  -2.670  0.00  0.00    +0.145 HD
ATOM     79  H   LIG    1       -1.671  -8.463  -1.006  0.00  0.00    +0.145 HD
ATOM     80  O   LIG    1        0.208  -8.758  -3.509  0.00  0.00    -0.274 OA
ENDBRANCH  75  76
ENDBRANCH  72  75
ENDBRANCH  70  71
ENDBRANCH  63  65
BRANCH  63  81
ATOM     81  C   LIG    1        6.402  -4.900   1.302  0.00  0.00    +0.035 C 
BRANCH  81  82
ATOM     82  C   LIG    1        6.804  -3.629   2.082  0.00  0.00    +0.043 C 
BRANCH  82  83
ATOM     83  C   LIG    1        7.938  -3.852   3.102  0.00  0.00    +0.243 C 
BRANCH  83  84
ATOM     84  N   LIG    1        7.490  -4.718   4.185  0.00  0.00    -0.114 NA
ATOM     85  C   LIG    1        8.064  -5.833   4.414  0.00  0.00    +0.376 C 
BRANCH  85  86
ATOM     86  N   LIG    1        9.329  -6.257   3.939  0.00  0.00    -0.289 N 
ATOM     87  H   LIG    1        9.873  -6.862   4.535  0.00  0.00    +0.255 HD
ATOM     88  H   LIG    1        9.915  -5.564   3.496  0.00  0.00    +0.255 HD
ENDBRANCH  85  86
BRANCH  85  89
ATOM     89  N   LIG    1        7.475  -6.810   5.242  0.00  0.00    -0.289 N 
ATOM     90  H   LIG    1        8.090  -7.391   5.793  0.00  0.00    +0.255 HD
ATOM     91  H   LIG    1        6.662  -6.537   5.774  0.00  0.00    +0.255 HD
ENDBRANCH  85  89
ENDBRANCH  83  84
ENDBRANCH  82  83
ENDBRANCH  81  82
ENDBRANCH  63  81
ENDBRANCH  59  63
ENDBRANCH  58  61
BRANCH  58  92
ATOM     92  C   LIG    1        0.850  -4.244   0.206  0.00  0.00    +0.034 C 
BRANCH  92  93
ATOM     93  C   LIG    1       -0.572  -4.316   0.806  0.00  0.00    -0.015 C 
ATOM     94  C   LIG    1       -1.490  -5.190  -0.076  0.00  0.00    +0.007 C 
ATOM     95  C   LIG    1       -0.568  -4.771   2.281  0.00  0.00    +0.007 C 
ENDBRANCH  92  93
ENDBRANCH  58  92
ENDBRANCH  54  58
ENDBRANCH  53  56
ENDBRANCH  49  53
ENDBRANCH   1  51
BRANCH   1  96
ATOM     96  C   LIG    1       -1.679   0.084  -2.779  0.00  0.00    +0.067 C 
BRANCH  96  97
ATOM     97  C   LIG    1       -0.590  -0.872  -3.242  0.00  0.00    -0.045 A 
ATOM     98  C   LIG    1       -0.762  -2.265  -3.091  0.00  0.00    +0.007 A 
ATOM     99  C   LIG    1        0.254  -3.152  -3.496  0.00  0.00    +0.045 A 
ATOM    100  C   LIG    1        1.450  -2.650  -4.046  0.00  0.00    +0.117 A 
ATOM    101  C   LIG    1        1.624  -1.262  -4.201  0.00  0.00    +0.045 A 
ATOM    102  C   LIG    1        0.605  -0.375  -3.805  0.00  0.00    +0.007 A 
BRANCH 100 103
ATOM    103  O   LIG    1        2.439  -3.507  -4.428  0.00  0.00    -0.507 OA
ATOM    104  H   LIG    1        3.216  -3.054  -4.763  0.00  0.00    +0.292 HD
ENDBRANCH 100 103
ENDBRANCH  96  97
ENDBRANCH   1  96
TORSDOF 35
