REMARK  Name = DB00494
REMARK                            x       y       z     vdW  Elec       q    Type
REMARK                         _______ _______ _______ _____ _____    ______ ____
ROOT
ATOM      1  C   LIG    1        3.551   0.396   0.149  0.00  0.00    -0.018 A 
ATOM      2  C   LIG    1        3.821   1.742  -0.090  0.00  0.00    +0.057 A 
ATOM      3  C   LIG    1        5.108   2.163  -0.418  0.00  0.00    +0.161 A 
ATOM      4  C   LIG    1        6.153   1.233  -0.516  0.00  0.00    +0.189 A 
ATOM      5  C   LIG    1        5.907  -0.140  -0.286  0.00  0.00    +0.167 A 
ATOM      6  C   LIG    1        4.596  -0.529   0.043  0.00  0.00    +0.044 A 
ENDROOT
BRANCH   1   8
ATOM      7  C   LIG    1        1.776  -0.996   1.329  0.00  0.00    +0.114 C 
ATOM      8  C   LIG    1        2.171   0.000   0.499  0.00  0.00    +0.032 C 
BRANCH   7  10
ATOM      9  O   LIG    1       -0.120  -1.170   2.644  0.00  0.00    -0.269 OA
ATOM     10  C   LIG    1        0.365  -1.271   1.516  0.00  0.00    +0.257 C 
ATOM     11  N   LIG    1       -0.379  -1.657   0.436  0.00  0.00    -0.297 N 
BRANCH  11  12
ATOM     12  C   LIG    1       -1.839  -1.829   0.551  0.00  0.00    +0.105 C 
ATOM     13  C   LIG    1       -2.616  -0.504   0.645  0.00  0.00    +0.024 C 
ENDBRANCH  11  12
BRANCH  11  14
ATOM     14  C   LIG    1        0.167  -2.021  -0.886  0.00  0.00    +0.105 C 
ATOM     15  C   LIG    1       -0.232  -1.053  -2.011  0.00  0.00    +0.024 C 
ENDBRANCH  11  14
ENDBRANCH   7  10
BRANCH   7  16
ATOM     16  C   LIG    1        2.669  -1.814   2.087  0.00  0.00    +0.104 C 
ATOM     17  N   LIG    1        3.381  -2.476   2.715  0.00  0.00    -0.191 NA
ENDBRANCH   7  16
ENDBRANCH   1   8
BRANCH   5  18
ATOM     18  N   LIG    1        6.969  -1.184  -0.381  0.00  0.00    +0.010 N 
ATOM     19  O   LIG    1        6.659  -2.353  -0.167  0.00  0.00    -0.130 OA
BRANCH  18  20
ATOM     20  O   LIG    1        8.118  -0.866  -0.666  0.00  0.00    -0.396 OA
ATOM     21  H   LIG    1        8.785  -1.521  -0.726  0.00  0.00    +0.329 HD
ENDBRANCH  18  20
ENDBRANCH   5  18
BRANCH   4  22
ATOM     22  O   LIG    1        7.404   1.702  -0.841  0.00  0.00    -0.502 OA
ATOM     23  H   LIG    1        7.419   2.654  -0.965  0.00  0.00    +0.292 HD
ENDBRANCH   4  22
BRANCH   3  24
ATOM     24  O   LIG    1        5.325   3.501  -0.640  0.00  0.00    -0.503 OA
ATOM     25  H   LIG    1        4.533   4.033  -0.539  0.00  0.00    +0.292 HD
ENDBRANCH   3  24
TORSDOF 9
