REMARK  Name = DB00190
REMARK                            x       y       z     vdW  Elec       q    Type
REMARK                         _______ _______ _______ _____ _____    ______ ____
ROOT
ATOM      1  C   LIG    1        0.056   0.094   0.024  0.00  0.00    +0.069 C 
ENDROOT
BRANCH   1   2
ATOM      2  C   LIG    1       -0.536   1.504   0.005  0.00  0.00    -0.041 A 
ATOM      3  C   LIG    1       -0.839   2.127  -1.211  0.00  0.00    +0.053 A 
ATOM      4  C   LIG    1       -1.380   3.414  -1.233  0.00  0.00    +0.158 A 
ATOM      5  C   LIG    1       -1.627   4.087  -0.030  0.00  0.00    +0.158 A 
ATOM      6  C   LIG    1       -1.334   3.465   1.185  0.00  0.00    +0.049 A 
ATOM      7  C   LIG    1       -0.793   2.180   1.202  0.00  0.00    +0.007 A 
BRANCH   4   8
ATOM      8  O   LIG    1       -1.661   4.002  -2.441  0.00  0.00    -0.503 OA
ATOM      9  H   LIG    1       -2.018   4.888  -2.341  0.00  0.00    +0.292 HD
ENDBRANCH   4   8
BRANCH   5  10
ATOM     10  O   LIG    1       -2.158   5.352  -0.024  0.00  0.00    -0.503 OA
ATOM     11  H   LIG    1       -2.280   5.702   0.862  0.00  0.00    +0.292 HD
ENDBRANCH   5  10
ENDBRANCH   1   2
BRANCH   1  12
ATOM     12  C   LIG    1        1.620  -0.003   0.041  0.00  0.00    +0.131 C 
ATOM     13  C   LIG    1        2.076  -1.491   0.068  0.00  0.00    +0.041 C 
BRANCH  12  14
ATOM     14  N   LIG    1        2.164   0.694   1.221  0.00  0.00    -0.243 NA
ATOM     15  H   LIG    1        1.951   1.681   1.265  0.00  0.00    +0.142 HD
BRANCH  14  16
ATOM     16  N   LIG    1        1.826   0.107   2.500  0.00  0.00    -0.269 NA
ATOM     17  H   LIG    1        2.422  -0.697   2.640  0.00  0.00    +0.137 HD
ATOM     18  H   LIG    1        0.852  -0.161   2.473  0.00  0.00    +0.137 HD
ENDBRANCH  14  16
ENDBRANCH  12  14
BRANCH  12  19
ATOM     19  C   LIG    1        2.260   0.666  -1.216  0.00  0.00    +0.326 C 
ATOM     20  O   LIG    1        3.112   1.557  -1.184  0.00  0.00    -0.249 OA
BRANCH  19  21
ATOM     21  O   LIG    1        1.764   0.145  -2.377  0.00  0.00    -0.479 OA
ATOM     22  H   LIG    1        2.156   0.552  -3.153  0.00  0.00    +0.295 HD
ENDBRANCH  19  21
ENDBRANCH  12  19
ENDBRANCH   1  12
TORSDOF 8
