REMARK  Name = DB00590
REMARK                            x       y       z     vdW  Elec       q    Type
REMARK                         _______ _______ _______ _____ _____    ______ ____
ROOT
ATOM      1  C   LIG    1        5.487   7.902   1.203  0.00  0.00    +0.260 C 
ATOM      2  N   LIG    1        5.781   6.768   0.507  0.00  0.00    -0.295 N 
ATOM      3  C   LIG    1        6.776   5.779   0.935  0.00  0.00    +0.127 C 
ATOM      4  C   LIG    1        6.048   4.471   1.316  0.00  0.00    +0.127 C 
ATOM      5  N   LIG    1        5.059   3.959   0.343  0.00  0.00    -0.297 N 
ATOM      6  C   LIG    1        4.220   5.032  -0.232  0.00  0.00    +0.127 C 
ATOM      7  C   LIG    1        4.950   6.336  -0.622  0.00  0.00    +0.127 C 
ATOM      8  O   LIG    1        4.543   8.631   0.886  0.00  0.00    -0.271 OA
ENDROOT
BRANCH   1  18
ATOM      9  O   LIG    1        7.743   8.548   1.820  0.00  0.00    -0.473 OA
ATOM     10  C   LIG    1        7.961   9.779   1.226  0.00  0.00    +0.163 A 
ATOM     11  C   LIG    1        9.089   9.920   0.419  0.00  0.00    +0.049 A 
ATOM     12  C   LIG    1        9.368  11.155  -0.170  0.00  0.00    +0.004 A 
ATOM     13  C   LIG    1        8.525  12.247   0.052  0.00  0.00    +0.004 A 
ATOM     14  C   LIG    1        7.397  12.111   0.865  0.00  0.00    +0.049 A 
ATOM     15  C   LIG    1        7.119  10.882   1.461  0.00  0.00    +0.162 A 
ATOM     16  O   LIG    1        5.967  10.779   2.216  0.00  0.00    -0.484 OA
ATOM     17  C   LIG    1        5.964   9.652   3.098  0.00  0.00    +0.283 C 
ATOM     18  C   LIG    1        6.423   8.357   2.363  0.00  0.00    +0.296 C 
ENDBRANCH   1  18
BRANCH   5  19
ATOM     19  C   LIG    1        4.609   2.632   0.395  0.00  0.00    +0.220 A 
ATOM     20  N   LIG    1        5.332   1.744   1.130  0.00  0.00    -0.199 NA
ATOM     21  C   LIG    1        4.926   0.455   1.135  0.00  0.00    +0.129 A 
ATOM     22  C   LIG    1        3.797   0.002   0.397  0.00  0.00    +0.044 A 
ATOM     23  C   LIG    1        3.322  -1.334   0.361  0.00  0.00    +0.062 A 
ATOM     24  C   LIG    1        2.196  -1.677  -0.404  0.00  0.00    +0.162 A 
ATOM     25  C   LIG    1        1.527  -0.693  -1.144  0.00  0.00    +0.164 A 
ATOM     26  C   LIG    1        1.984   0.634  -1.120  0.00  0.00    +0.078 A 
ATOM     27  C   LIG    1        3.114   0.998  -0.356  0.00  0.00    +0.082 A 
ATOM     28  N   LIG    1        3.525   2.297  -0.361  0.00  0.00    -0.214 NA
BRANCH  21  29
ATOM     29  N   LIG    1        5.697  -0.408   1.915  0.00  0.00    -0.343 N 
ATOM     30  H   LIG    1        6.491  -0.041   2.419  0.00  0.00    +0.144 HD
ATOM     31  H   LIG    1        5.452  -1.386   1.969  0.00  0.00    +0.144 HD
ENDBRANCH  21  29
BRANCH  25  32
ATOM     32  O   LIG    1        0.424  -1.103  -1.873  0.00  0.00    -0.491 OA
ATOM     33  C   LIG    1       -0.300  -0.155  -2.650  0.00  0.00    +0.277 C 
ENDBRANCH  25  32
BRANCH  24  34
ATOM     34  O   LIG    1        1.689  -2.963  -0.477  0.00  0.00    -0.491 OA
ATOM     35  C   LIG    1        2.322  -4.013   0.248  0.00  0.00    +0.277 C 
ENDBRANCH  24  34
ENDBRANCH   5  19
TORSDOF 5
