REMARK  Name = DB00158
REMARK                            x       y       z     vdW  Elec       q    Type
REMARK                         _______ _______ _______ _____ _____    ______ ____
ROOT
ATOM      1  C   UNK A  0       -1.524  -0.126  -1.028  0.00  0.00    +0.037 A 
ATOM      2  C   UNK A  0       -0.682  -0.667  -1.998  0.00  0.00    +0.015 A 
ATOM      3  C   UNK A  0       -1.156  -1.691  -2.824  0.00  0.00    +0.023 A 
ATOM      4  C   UNK A  0       -2.474  -2.169  -2.710  0.00  0.00    +0.027 A 
ATOM      5  C   UNK A  0       -3.259  -1.682  -1.653  0.00  0.00    +0.023 A 
ATOM      6  C   UNK A  0       -2.802  -0.643  -0.836  0.00  0.00    +0.015 A 
ENDROOT
BRANCH   1   9
ATOM      7  N   GLU A  1       -0.071   0.897   0.573  0.00  0.00    -0.303 N 
ATOM      8  H   GLU A  1        0.436   0.018   0.632  0.00  0.00    +0.150 HD
ATOM      9  C   UNK A  0       -1.116   1.078  -0.282  0.00  0.00    +0.245 C 
ATOM     10  O   UNK A  0       -1.713   2.122  -0.510  0.00  0.00    -0.270 OA
BRANCH   7  11
ATOM     11  CA  GLU A  1        0.630   1.982   1.294  0.00  0.00    +0.119 C 
BRANCH  11  13
ATOM     12  O   GLU A  1        2.452   0.421   1.242  0.00  0.00    -0.548 OA
ATOM     13  C   GLU A  1        2.169   1.658   1.380  0.00  0.00    +0.062 C 
ATOM     14  OXT GLU A  1        2.955   2.642   1.481  0.00  0.00    -0.548 OA
ENDBRANCH  11  13
BRANCH  11  15
ATOM     15  CB  GLU A  1        0.080   2.171   2.721  0.00  0.00    +0.034 C 
BRANCH  15  16
ATOM     16  CG  GLU A  1       -1.385   2.623   2.756  0.00  0.00    +0.054 C 
BRANCH  16  17
ATOM     17  CD  GLU A  1       -1.878   2.864   4.183  0.00  0.00    +0.042 C 
ATOM     18  OE2 GLU A  1       -2.596   1.942   4.675  0.00  0.00    -0.550 OA
ATOM     19  OE1 GLU A  1       -1.566   3.977   4.696  0.00  0.00    -0.550 OA
ENDBRANCH  16  17
ENDBRANCH  15  16
ENDBRANCH  11  15
ENDBRANCH   7  11
ENDBRANCH   1   9
BRANCH   4  20
ATOM     20  N   UNK A  0       -2.899  -3.177  -3.609  0.00  0.00    -0.338 N 
ATOM     21  H   UNK A  0       -2.446  -2.999  -4.504  0.00  0.00    +0.146 HD
BRANCH  20  22
ATOM     22  C   UNK A  0       -4.350  -3.351  -3.750  0.00  0.00    +0.158 C 
BRANCH  22  23
ATOM     23  C   UNK A  0       -4.761  -4.412  -4.751  0.00  0.00    +0.077 A 
ATOM     24  N   UNK A  0       -6.088  -4.477  -5.048  0.00  0.00    -0.240 NA
ATOM     25  C   UNK A  0       -6.462  -5.481  -5.885  0.00  0.00    +0.173 A 
ATOM     26  C   UNK A  0       -7.907  -5.686  -6.209  0.00  0.00    +0.302 A 
ATOM     27  O   UNK A  0       -8.737  -4.883  -5.794  0.00  0.00    -0.263 OA
ATOM     28  N   UNK A  0       -8.285  -6.785  -6.968  0.00  0.00    -0.176 NA
ATOM     29  C   UNK A  0       -7.358  -7.540  -7.456  0.00  0.00    +0.195 A 
ATOM     30  N   UNK A  0       -6.026  -7.374  -7.300  0.00  0.00    -0.311 N 
ATOM     31  H   UNK A  0       -5.350  -8.073  -7.560  0.00  0.00    +0.170 HD
ATOM     32  C   UNK A  0       -5.566  -6.386  -6.441  0.00  0.00    +0.164 A 
ATOM     33  N   UNK A  0       -4.244  -6.320  -6.161  0.00  0.00    -0.234 NA
ATOM     34  C   UNK A  0       -3.871  -5.334  -5.297  0.00  0.00    +0.138 A 
BRANCH  29  35
ATOM     35  N   UNK A  0       -7.689  -8.621  -8.203  0.00  0.00    -0.329 N 
ATOM     36  H   UNK A  0       -7.172  -8.707  -9.069  0.00  0.00    +0.145 HD
ATOM     37  H   UNK A  0       -8.692  -8.634  -8.380  0.00  0.00    +0.145 HD
ENDBRANCH  29  35
ENDBRANCH  22  23
ENDBRANCH  20  22
ENDBRANCH   4  20
TORSDOF 10
