REMARK  Name = DB00316
REMARK                            x       y       z     vdW  Elec       q    Type
REMARK                         _______ _______ _______ _____ _____    ______ ____
ROOT
ATOM      1  C   LIG    1        4.269  -0.015   0.000  0.00  0.00    +0.117 A 
ATOM      2  C   LIG    1        3.622   1.143  -0.426  0.00  0.00    +0.047 A 
ATOM      3  C   LIG    1        2.230   1.196  -0.438  0.00  0.00    +0.027 A 
ATOM      4  C   LIG    1        1.482   0.085  -0.014  0.00  0.00    +0.034 A 
ATOM      5  C   LIG    1        2.142  -1.076   0.398  0.00  0.00    +0.027 A 
ATOM      6  C   LIG    1        3.533  -1.125   0.410  0.00  0.00    +0.047 A 
ENDROOT
BRANCH   4   7
ATOM      7  N   LIG    1        0.076   0.039  -0.004  0.00  0.00    -0.286 N 
ATOM      8  H   LIG    1       -0.314  -0.891   0.057  0.00  0.00    +0.155 HD
ATOM      9  C   LIG    1       -0.804   1.062   0.016  0.00  0.00    +0.214 C 
ATOM     10  C   LIG    1       -2.278   0.667   0.004  0.00  0.00    +0.109 C 
ATOM     11  O   LIG    1       -0.508   2.256   0.065  0.00  0.00    -0.276 OA
ENDBRANCH   4   7
BRANCH   1  12
ATOM     12  O   LIG    1        5.637  -0.065   0.011  0.00  0.00    -0.507 OA
ATOM     13  H   LIG    1        6.043   0.746  -0.302  0.00  0.00    +0.292 HD
ENDBRANCH   1  12
TORSDOF 2
