REMARK  Name = DB00948
REMARK                            x       y       z     vdW  Elec       q    Type
REMARK                         _______ _______ _______ _____ _____    ______ ____
ROOT
ATOM      1  CA  LIG    1        1.616  -0.052  -0.162  0.00  0.00    +0.191 C 
ENDROOT
BRANCH   1   2
ATOM      2  N   LIG    1        2.141  -0.790  -1.326  0.00  0.00    -0.284 N 
ATOM      3  H   LIG    1        2.123  -1.795  -1.231  0.00  0.00    +0.151 HD
ATOM      4  C   LIG    1        2.421  -0.278  -2.546  0.00  0.00    +0.311 C 
ATOM      5  N   LIG    1        2.831  -1.188  -3.483  0.00  0.00    -0.207 N 
ATOM      6  C   LIG    1        3.528  -0.911  -4.619  0.00  0.00    +0.331 C 
ATOM      7  N   LIG    1        3.660  -2.143  -5.307  0.00  0.00    -0.158 N 
ATOM      8  C   LIG    1        3.124  -3.289  -4.576  0.00  0.00    +0.155 C 
ATOM      9  O   LIG    1        3.980   0.175  -4.990  0.00  0.00    -0.250 OA
ATOM     10  C   LIG    1        2.581  -2.627  -3.326  0.00  0.00    +0.140 C 
ATOM     11  O   LIG    1        2.343   0.936  -2.760  0.00  0.00    -0.252 OA
BRANCH   7  12
ATOM     12  S   LIG    1        4.640  -2.372  -6.761  0.00  0.00    +0.046 S 
ATOM     13  C   LIG    1        6.402  -2.388  -6.088  0.00  0.00    +0.219 C 
ATOM     14  O   LIG    1        4.493  -1.184  -7.610  0.00  0.00    -0.155 OA
ATOM     15  O   LIG    1        4.345  -3.705  -7.298  0.00  0.00    -0.155 OA
ENDBRANCH   7  12
ENDBRANCH   1   2
BRANCH   1  16
ATOM     16  C   LIG    1        1.980  -0.752   1.136  0.00  0.00    -0.018 A 
ATOM     17  C   LIG    1        2.148  -2.144   1.216  0.00  0.00    +0.006 A 
ATOM     18  C   LIG    1        2.476  -2.746   2.428  0.00  0.00    +0.000 A 
ATOM     19  C   LIG    1        2.635  -1.963   3.568  0.00  0.00    +0.000 A 
ATOM     20  C   LIG    1        2.466  -0.583   3.507  0.00  0.00    +0.000 A 
ATOM     21  C   LIG    1        2.138   0.019   2.295  0.00  0.00    +0.006 A 
ENDBRANCH   1  16
BRANCH   1  24
ATOM     22  N   LIG    1       -0.388   1.258   0.371  0.00  0.00    -0.300 N 
ATOM     23  H   LIG    1        0.260   1.861   0.856  0.00  0.00    +0.150 HD
ATOM     24  C   LIG    1        0.088   0.173  -0.265  0.00  0.00    +0.239 C 
ATOM     25  O   LIG    1       -0.624  -0.638  -0.862  0.00  0.00    -0.273 OA
BRANCH  22  33
ATOM     26  S   LIG    1       -0.933   4.265   1.503  0.00  0.00    -0.127 S 
ATOM     27  C   LIG    1       -1.996   5.557   0.787  0.00  0.00    +0.042 C 
ATOM     28  C   LIG    1       -1.205   6.836   0.443  0.00  0.00    +0.025 C 
ATOM     29  C   LIG    1       -3.012   5.923   1.908  0.00  0.00    +0.025 C 
ATOM     30  CA  LIG    1       -2.665   4.858  -0.450  0.00  0.00    +0.201 C 
ATOM     31  N   LIG    1       -2.804   3.439  -0.089  0.00  0.00    -0.271 N 
ATOM     32  C   LIG    1       -2.313   2.384  -0.867  0.00  0.00    +0.240 C 
ATOM     33  CA  LIG    1       -1.795   1.661   0.401  0.00  0.00    +0.190 C 
ATOM     34  O   LIG    1       -2.246   2.191  -2.079  0.00  0.00    -0.273 OA
ATOM     35  C   LIG    1       -2.145   2.964   1.156  0.00  0.00    +0.165 C 
BRANCH  30  36
ATOM     36  C   LIG    1       -3.984   5.505  -0.929  0.00  0.00    +0.327 C 
ATOM     37  OXT LIG    1       -5.081   5.003  -0.788  0.00  0.00    -0.249 OA
BRANCH  36  38
ATOM     38  O   LIG    1       -3.730   6.689  -1.556  0.00  0.00    -0.479 OA
ATOM     39  H   LIG    1       -4.530   7.108  -1.881  0.00  0.00    +0.295 HD
ENDBRANCH  36  38
ENDBRANCH  30  36
ENDBRANCH  22  33
ENDBRANCH   1  24
TORSDOF 7
