REMARK  Name = DB00385
REMARK                            x       y       z     vdW  Elec       q    Type
REMARK                         _______ _______ _______ _____ _____    ______ ____
ROOT
ATOM      1  C   LIG    1       -9.258  -3.170   4.447  0.00  0.00    +0.004 A 
ATOM      2  C   LIG    1       -7.984  -2.653   4.626  0.00  0.00    +0.012 A 
ATOM      3  C   LIG    1       -7.263  -2.120   3.548  0.00  0.00    +0.037 A 
ATOM      4  C   LIG    1       -7.846  -2.106   2.258  0.00  0.00    +0.075 A 
ATOM      5  C   LIG    1       -7.064  -1.515   1.109  0.00  0.00    +0.202 C 
ATOM      6  C   LIG    1       -5.554  -1.452   1.276  0.00  0.00    +0.078 A 
ATOM      7  C   LIG    1       -4.693  -1.367   0.157  0.00  0.00    +0.134 A 
ATOM      8  C   LIG    1       -3.295  -1.311   0.288  0.00  0.00    +0.030 A 
ATOM      9  C   LIG    1       -2.417  -1.107  -0.967  0.00  0.00    +0.158 C 
ATOM     10  C   LIG    1       -0.914  -1.347  -0.700  0.00  0.00    +0.079 C 
ATOM     11  C   LIG    1       -0.429  -0.655   0.594  0.00  0.00    +0.134 C 
ATOM     12  C   LIG    1       -1.196  -1.306   1.768  0.00  0.00    +0.082 C 
ATOM     13  C   LIG    1       -2.728  -1.330   1.582  0.00  0.00    +0.007 A 
ATOM     14  C   LIG    1       -3.575  -1.425   2.699  0.00  0.00    +0.132 A 
ATOM     15  C   LIG    1       -4.982  -1.481   2.572  0.00  0.00    +0.078 A 
ATOM     16  O   LIG    1       -7.615  -1.224   0.045  0.00  0.00    -0.286 OA
ATOM     17  C   LIG    1       -9.146  -2.645   2.076  0.00  0.00    +0.132 A 
ATOM     18  C   LIG    1       -5.881  -1.590   3.791  0.00  0.00    +0.198 C 
ATOM     19  O   LIG    1       -5.475  -1.397   4.940  0.00  0.00    -0.286 OA
ATOM     20  C   LIG    1       -9.833  -3.168   3.185  0.00  0.00    +0.046 A 
ENDROOT
BRANCH   7  21
ATOM     21  O   LIG    1       -5.198  -1.341  -1.125  0.00  0.00    -0.506 OA
ATOM     22  H   LIG    1       -4.513  -1.258  -1.793  0.00  0.00    +0.292 HD
ENDBRANCH   7  21
BRANCH  11  23
ATOM     23  O   LIG    1       -0.663   0.743   0.565  0.00  0.00    -0.381 OA
ATOM     24  H   LIG    1       -0.260   1.102  -0.229  0.00  0.00    +0.211 HD
ENDBRANCH  11  23
BRANCH  11  25
ATOM     25  C   LIG    1        1.097  -0.853   0.811  0.00  0.00    +0.202 C 
ATOM     26  O   LIG    1        1.727  -1.707   0.181  0.00  0.00    -0.291 OA
BRANCH  25  27
ATOM     27  C   LIG    1        1.810   0.017   1.871  0.00  0.00    +0.309 C 
BRANCH  27  28
ATOM     28  O   LIG    1        3.232   0.023   1.717  0.00  0.00    -0.457 OA
BRANCH  28  29
ATOM     29  C   LIG    1        3.851   0.806   0.792  0.00  0.00    +0.307 C 
ATOM     30  O   LIG    1        3.287   1.587   0.023  0.00  0.00    -0.251 OA
BRANCH  29  31
ATOM     31  C   LIG    1        5.378   0.641   0.755  0.00  0.00    +0.120 C 
BRANCH  31  32
ATOM     32  C   LIG    1        6.055   0.200   2.075  0.00  0.00    +0.011 C 
BRANCH  32  33
ATOM     33  C   LIG    1        5.940   1.219   3.226  0.00  0.00    -0.003 C 
ATOM     34  C   LIG    1        6.657   0.756   4.502  0.00  0.00    +0.004 C 
ENDBRANCH  32  33
ENDBRANCH  31  32
ENDBRANCH  29  31
ENDBRANCH  28  29
ENDBRANCH  27  28
ENDBRANCH  25  27
ENDBRANCH  11  25
BRANCH  14  35
ATOM     35  O   LIG    1       -2.973  -1.492   3.936  0.00  0.00    -0.506 OA
ATOM     36  H   LIG    1       -2.015  -1.453   3.890  0.00  0.00    +0.292 HD
ENDBRANCH  14  35
BRANCH  17  37
ATOM     37  O   LIG    1       -9.703  -2.652   0.806  0.00  0.00    -0.494 OA
ATOM     38  C   LIG    1      -11.005  -3.186   0.591  0.00  0.00    +0.277 C 
ENDBRANCH  17  37
BRANCH   9  39
ATOM     39  O   LIG    1       -2.706   0.183  -1.518  0.00  0.00    -0.343 OA
BRANCH  39  40
ATOM     40  C   LIG    1       -2.220   0.450  -2.805  0.00  0.00    +0.253 C 
ATOM     41  O   LIG    1       -1.019   1.182  -2.767  0.00  0.00    -0.346 OA
ATOM     42  C   LIG    1       -1.128   2.505  -2.223  0.00  0.00    +0.148 C 
ATOM     43  C   LIG    1        0.280   3.113  -2.110  0.00  0.00    +0.041 C 
ATOM     44  C   LIG    1       -2.129   3.372  -3.019  0.00  0.00    +0.163 C 
ATOM     45  C   LIG    1       -3.496   2.655  -3.111  0.00  0.00    +0.109 C 
ATOM     46  C   LIG    1       -3.305   1.202  -3.590  0.00  0.00    +0.086 C 
BRANCH  45  47
ATOM     47  N   LIG    1       -4.528   3.356  -3.884  0.00  0.00    -0.302 N 
ATOM     48  H   LIG    1       -4.727   2.978  -4.799  0.00  0.00    +0.149 HD
ATOM     49  C   LIG    1       -5.141   4.502  -3.525  0.00  0.00    +0.318 C 
ATOM     50  O   LIG    1       -4.926   5.067  -2.451  0.00  0.00    -0.266 OA
BRANCH  49  51
ATOM     51  C   LIG    1       -6.190   5.079  -4.491  0.00  0.00    +0.469 C 
ATOM     52  F   LIG    1       -6.044   6.402  -4.576  0.00  0.00    -0.162 F 
ATOM     53  F   LIG    1       -7.407   4.815  -4.015  0.00  0.00    -0.162 F 
ATOM     54  F   LIG    1       -6.076   4.545  -5.710  0.00  0.00    -0.162 F 
ENDBRANCH  49  51
ENDBRANCH  45  47
BRANCH  44  55
ATOM     55  O   LIG    1       -1.634   3.762  -4.291  0.00  0.00    -0.387 OA
ATOM     56  H   LIG    1       -1.517   2.974  -4.826  0.00  0.00    +0.210 HD
ENDBRANCH  44  55
ENDBRANCH  39  40
ENDBRANCH   9  39
TORSDOF 16
