REMARK  Name = DB00338
REMARK                            x       y       z     vdW  Elec       q    Type
REMARK                         _______ _______ _______ _____ _____    ______ ____
ROOT
ATOM      1  S   LIG    1       -0.503   1.691  -0.307  0.00  0.00    +0.095 S 
ATOM      2  O   LIG    1       -0.082   2.133  -1.710  0.00  0.00    -0.249 OA
ENDROOT
BRANCH   1   3
ATOM      3  C   LIG    1       -2.286   1.275  -0.443  0.00  0.00    +0.198 A 
ATOM      4  N   LIG    1       -3.074   0.867   0.520  0.00  0.00    -0.220 NA
ATOM      5  C   LIG    1       -4.290   0.691  -0.088  0.00  0.00    +0.090 A 
ATOM      6  C   LIG    1       -5.504   0.266   0.467  0.00  0.00    +0.033 A 
ATOM      7  C   LIG    1       -6.612   0.169  -0.374  0.00  0.00    +0.048 A 
ATOM      8  C   LIG    1       -6.545   0.477  -1.736  0.00  0.00    +0.122 A 
ATOM      9  C   LIG    1       -5.334   0.903  -2.315  0.00  0.00    +0.073 A 
ATOM     10  C   LIG    1       -4.226   1.002  -1.469  0.00  0.00    +0.070 A 
ATOM     11  N   LIG    1       -2.916   1.374  -1.661  0.00  0.00    -0.331 N 
ATOM     12  H   LIG    1       -2.451   1.671  -2.507  0.00  0.00    +0.168 HD
BRANCH   8  13
ATOM     13  O   LIG    1       -7.724   0.336  -2.443  0.00  0.00    -0.495 OA
ATOM     14  C   LIG    1       -7.744   0.636  -3.835  0.00  0.00    +0.277 C 
ENDBRANCH   8  13
ENDBRANCH   1   3
BRANCH   1  15
ATOM     15  C   LIG    1        0.092  -0.053  -0.083  0.00  0.00    +0.167 C 
BRANCH  15  16
ATOM     16  C   LIG    1        1.613  -0.075   0.023  0.00  0.00    +0.060 A 
ATOM     17  C   LIG    1        2.293   0.068   1.246  0.00  0.00    +0.014 A 
ATOM     18  C   LIG    1        1.536   0.294   2.552  0.00  0.00    +0.049 C 
ATOM     19  C   LIG    1        3.700   0.022   1.230  0.00  0.00    +0.129 A 
ATOM     20  C   LIG    1        4.373  -0.137   0.008  0.00  0.00    +0.010 A 
ATOM     21  C   LIG    1        5.891  -0.156  -0.065  0.00  0.00    +0.049 C 
ATOM     22  C   LIG    1        3.612  -0.262  -1.156  0.00  0.00    +0.118 A 
ATOM     23  N   LIG    1        2.258  -0.239  -1.161  0.00  0.00    -0.258 NA
BRANCH  19  24
ATOM     24  O   LIG    1        4.424   0.152   2.391  0.00  0.00    -0.494 OA
ATOM     25  C   LIG    1        4.614  -1.066   3.099  0.00  0.00    +0.277 C 
ENDBRANCH  19  24
ENDBRANCH  15  16
ENDBRANCH   1  15
TORSDOF 5
