REMARK  Name = DB00891
REMARK                            x       y       z     vdW  Elec       q    Type
REMARK                         _______ _______ _______ _____ _____    ______ ____
ROOT
ATOM      1  S   LIG    1       -0.067  -0.000   0.000  0.00  0.00    +0.073 S 
ATOM      2  O   LIG    1       -0.521  -0.570   1.274  0.00  0.00    -0.150 OA
ATOM      3  O   LIG    1       -0.521  -0.570  -1.274  0.00  0.00    -0.150 OA
ENDROOT
BRANCH   1   4
ATOM      4  C   LIG    1       -0.445   1.749   0.000  0.00  0.00    +0.109 A 
ATOM      5  C   LIG    1       -0.584   2.429  -1.212  0.00  0.00    +0.030 A 
ATOM      6  C   LIG    1       -0.870   3.792  -1.211  0.00  0.00    +0.024 A 
ATOM      7  C   LIG    1       -1.013   4.470   0.000  0.00  0.00    +0.025 A 
ATOM      8  C   LIG    1       -0.870   3.792   1.211  0.00  0.00    +0.024 A 
ATOM      9  C   LIG    1       -0.584   2.429   1.212  0.00  0.00    +0.030 A 
BRANCH   7  10
ATOM     10  N   LIG    1       -1.300   5.834   0.000  0.00  0.00    -0.358 N 
ATOM     11  H   LIG    1       -1.420   6.317   0.879  0.00  0.00    +0.142 HD
ATOM     12  H   LIG    1       -1.420   6.317  -0.879  0.00  0.00    +0.142 HD
ENDBRANCH   7  10
ENDBRANCH   1   4
BRANCH   1  13
ATOM     13  N   LIG    1        1.705  -0.088   0.000  0.00  0.00    -0.199 N 
ATOM     14  H   LIG    1        2.227   0.775   0.000  0.00  0.00    +0.175 HD
BRANCH  13  15
ATOM     15  C   LIG    1        2.418  -1.295   0.000  0.00  0.00    +0.138 A 
ATOM     16  C   LIG    1        3.816  -1.244   0.000  0.00  0.00    +0.045 A 
ATOM     17  C   LIG    1        4.536  -2.441   0.000  0.00  0.00    +0.005 A 
ATOM     18  C   LIG    1        3.850  -3.656   0.000  0.00  0.00    +0.020 A 
ATOM     19  C   LIG    1        2.455  -3.630   0.000  0.00  0.00    +0.113 A 
ATOM     20  N   LIG    1        1.741  -2.476   0.000  0.00  0.00    -0.239 NA
ENDBRANCH  13  15
ENDBRANCH   1  13
TORSDOF 4
