REMARK  Name = DB00602
REMARK                            x       y       z     vdW  Elec       q    Type
REMARK                         _______ _______ _______ _____ _____    ______ ____
ROOT
ATOM      1  C   LIG    1       -1.224   3.682  -6.912  0.00  0.00    +0.159 C 
ATOM      2  C   LIG    1       -1.334   4.512  -8.186  0.00  0.00    -0.008 C 
ATOM      3  C   LIG    1       -1.451   5.856  -8.212  0.00  0.00    -0.045 C 
ATOM      4  C   LIG    1       -1.556   6.603  -9.534  0.00  0.00    +0.041 C 
ATOM      5  C   LIG    1       -1.396   6.708  -6.936  0.00  0.00    +0.172 C 
ATOM      6  C   LIG    1       -1.360   5.888  -5.612  0.00  0.00    +0.188 C 
ATOM      7  O   LIG    1       -2.647   5.507  -5.143  0.00  0.00    -0.366 OA
ATOM      8  C   LIG    1       -2.483   4.439  -4.211  0.00  0.00    +0.194 C 
ATOM      9  C   LIG    1       -1.043   3.964  -4.350  0.00  0.00    -0.009 C 
ATOM     10  C   LIG    1       -0.288   3.260  -3.482  0.00  0.00    +0.004 C 
ATOM     11  C   LIG    1       -0.753   2.753  -2.204  0.00  0.00    -0.004 C 
ATOM     12  C   LIG    1        0.048   2.091  -1.348  0.00  0.00    -0.021 C 
ATOM     13  C   LIG    1       -0.388   1.522  -0.002  0.00  0.00    +0.042 C 
ATOM     14  C   LIG    1        0.210   2.331   1.165  0.00  0.00    +0.015 C 
ATOM     15  C   LIG    1       -0.100   0.001   0.150  0.00  0.00    +0.153 C 
ATOM     16  C   LIG    1       -0.791  -0.871  -0.913  0.00  0.00    -0.047 C 
ATOM     17  C   LIG    1       -2.309  -0.937  -0.781  0.00  0.00    +0.041 C 
ATOM     18  C   LIG    1       -0.091  -1.507  -1.880  0.00  0.00    -0.023 C 
ATOM     19  C   LIG    1       -0.599  -2.329  -3.057  0.00  0.00    +0.059 C 
ATOM     20  C   LIG    1       -0.134  -1.741  -4.402  0.00  0.00    +0.129 C 
ATOM     21  C   LIG    1       -0.742  -0.353  -4.676  0.00  0.00    +0.076 C 
ATOM     22  C   LIG    1       -0.306   0.158  -6.049  0.00  0.00    +0.184 C 
ATOM     23  C   LIG    1       -0.577  -0.906  -7.128  0.00  0.00    +0.109 C 
ATOM     24  C   LIG    1        0.090  -2.243  -6.746  0.00  0.00    +0.174 C 
ATOM     25  C   LIG    1       -0.227  -3.358  -7.762  0.00  0.00    +0.065 C 
ATOM     26  C   LIG    1        0.625  -4.611  -7.501  0.00  0.00    +0.011 C 
ATOM     27  C   LIG    1        2.121  -4.256  -7.432  0.00  0.00    +0.015 C 
ATOM     28  C   LIG    1        2.961  -5.522  -7.170  0.00  0.00    +0.010 C 
ATOM     29  C   LIG    1        2.286  -3.168  -6.337  0.00  0.00    +0.127 C 
ATOM     30  O   LIG    1        1.488  -2.030  -6.710  0.00  0.00    -0.345 OA
ATOM     31  O   LIG    1       -0.964   1.400  -6.266  0.00  0.00    -0.461 OA
ATOM     32  O   LIG    1       -0.403  -2.650  -5.482  0.00  0.00    -0.345 OA
ATOM     33  C   LIG    1       -0.484   2.341  -7.105  0.00  0.00    +0.317 C 
ATOM     34  O   LIG    1        0.451   2.202  -7.897  0.00  0.00    -0.250 OA
ATOM     35  C   LIG    1       -0.660   4.525  -5.709  0.00  0.00    +0.134 C 
ENDROOT
BRANCH   5  36
ATOM     36  O   LIG    1       -2.442   7.662  -6.888  0.00  0.00    -0.385 OA
ATOM     37  H   LIG    1       -3.271   7.193  -6.771  0.00  0.00    +0.210 HD
ENDBRANCH   5  36
BRANCH  29  38
ATOM     38  C   LIG    1        3.736  -2.658  -6.089  0.00  0.00    +0.015 C 
ATOM     39  C   LIG    1        4.394  -2.057  -7.352  0.00  0.00    +0.010 C 
BRANCH  38  40
ATOM     40  C   LIG    1        3.774  -1.682  -4.883  0.00  0.00    +0.002 C 
ATOM     41  C   LIG    1        5.178  -1.306  -4.385  0.00  0.00    +0.004 C 
ENDBRANCH  38  40
ENDBRANCH  29  38
BRANCH  35  42
ATOM     42  O   LIG    1        0.745   4.694  -5.872  0.00  0.00    -0.380 OA
ATOM     43  H   LIG    1        0.905   5.078  -6.737  0.00  0.00    +0.211 HD
ENDBRANCH  35  42
BRANCH  15  44
ATOM     44  O   LIG    1        1.325  -0.160   0.127  0.00  0.00    -0.343 OA
BRANCH  44  45
ATOM     45  C   LIG    1        1.912  -1.042   1.048  0.00  0.00    +0.254 C 
ATOM     46  C   LIG    1        2.562  -2.211   0.304  0.00  0.00    +0.095 C 
ATOM     47  C   LIG    1        3.734  -1.728  -0.580  0.00  0.00    +0.154 C 
ATOM     48  C   LIG    1        4.739  -0.900   0.266  0.00  0.00    +0.179 C 
ATOM     49  C   LIG    1        3.965   0.180   1.070  0.00  0.00    +0.150 C 
ATOM     50  C   LIG    1        4.860   0.951   2.054  0.00  0.00    +0.041 C 
ATOM     51  O   LIG    1        2.879  -0.382   1.824  0.00  0.00    -0.346 OA
BRANCH  47  52
ATOM     52  O   LIG    1        4.300  -2.791  -1.351  0.00  0.00    -0.377 OA
ATOM     53  C   LIG    1        4.853  -3.900  -0.648  0.00  0.00    +0.194 C 
ENDBRANCH  47  52
BRANCH  48  54
ATOM     54  O   LIG    1        5.723  -0.217  -0.520  0.00  0.00    -0.343 OA
BRANCH  54  55
ATOM     55  C   LIG    1        6.806  -0.951  -1.023  0.00  0.00    +0.254 C 
ATOM     56  C   LIG    1        7.688  -0.006  -1.841  0.00  0.00    +0.095 C 
ATOM     57  C   LIG    1        8.385   1.039  -0.952  0.00  0.00    +0.154 C 
ATOM     58  C   LIG    1        9.128   0.333   0.208  0.00  0.00    +0.172 C 
ATOM     59  C   LIG    1        8.197  -0.689   0.911  0.00  0.00    +0.149 C 
ATOM     60  C   LIG    1        8.928  -1.561   1.945  0.00  0.00    +0.041 C 
ATOM     61  O   LIG    1        7.570  -1.578  -0.022  0.00  0.00    -0.346 OA
BRANCH  57  62
ATOM     62  O   LIG    1        9.245   1.782  -1.817  0.00  0.00    -0.377 OA
ATOM     63  C   LIG    1        9.607   3.088  -1.387  0.00  0.00    +0.194 C 
ENDBRANCH  57  62
BRANCH  58  64
ATOM     64  O   LIG    1        9.618   1.264   1.157  0.00  0.00    -0.387 OA
ATOM     65  H   LIG    1       10.287   1.806   0.731  0.00  0.00    +0.210 HD
ENDBRANCH  58  64
ENDBRANCH  54  55
ENDBRANCH  48  54
ENDBRANCH  44  45
ENDBRANCH  15  44
TORSDOF 11
