REMARK  Name = DB00977
REMARK                            x       y       z     vdW  Elec       q    Type
REMARK                         _______ _______ _______ _____ _____    ______ ____
ROOT
ATOM      1  C   LIG    1        1.386   0.034   0.056  0.00  0.00    +0.132 C 
ATOM      2  C   LIG    1        1.990  -0.780   1.243  0.00  0.00    +0.049 C 
ATOM      3  C   LIG    1        3.228  -1.535   0.713  0.00  0.00    +0.008 C 
ATOM      4  C   LIG    1        3.354  -1.094  -0.750  0.00  0.00    +0.002 C 
ATOM      5  C   LIG    1        4.118  -1.983  -1.764  0.00  0.00    +0.000 C 
ATOM      6  C   LIG    1        4.125  -1.375  -3.204  0.00  0.00    +0.023 C 
ATOM      7  C   LIG    1        4.817  -2.359  -4.161  0.00  0.00    -0.041 A 
ATOM      8  C   LIG    1        4.315  -2.693  -5.428  0.00  0.00    +0.008 A 
ATOM      9  C   LIG    1        4.960  -3.627  -6.235  0.00  0.00    +0.046 A 
ATOM     10  C   LIG    1        6.123  -4.246  -5.787  0.00  0.00    +0.117 A 
ATOM     11  C   LIG    1        6.641  -3.918  -4.537  0.00  0.00    +0.049 A 
ATOM     12  C   LIG    1        6.007  -2.975  -3.721  0.00  0.00    -0.040 A 
ATOM     13  C   LIG    1        6.584  -2.569  -2.368  0.00  0.00    +0.036 C 
ATOM     14  C   LIG    1        2.735  -0.825  -3.655  0.00  0.00    +0.009 C 
ATOM     15  C   LIG    1        2.051   0.022  -2.550  0.00  0.00    +0.011 C 
ATOM     16  C   LIG    1        5.497  -2.501  -1.269  0.00  0.00    +0.009 C 
ATOM     17  C   LIG    1        1.907  -0.761  -1.206  0.00  0.00    +0.011 C 
ATOM     18  C   LIG    1        1.017  -2.034  -1.427  0.00  0.00    +0.015 C 
ENDROOT
BRANCH   1  19
ATOM     19  O   LIG    1       -0.028   0.082   0.155  0.00  0.00    -0.376 OA
ATOM     20  H   LIG    1       -0.373   0.483  -0.646  0.00  0.00    +0.211 HD
ENDBRANCH   1  19
BRANCH   1  21
ATOM     21  C   LIG    1        1.823   1.454   0.131  0.00  0.00    -0.070 C 
ATOM     22  C   LIG    1        2.197   2.615   0.200  0.00  0.00    +0.007 C 
ENDBRANCH   1  21
BRANCH  10  23
ATOM     23  O   LIG    1        6.758  -5.168  -6.575  0.00  0.00    -0.507 OA
ATOM     24  H   LIG    1        6.312  -5.314  -7.412  0.00  0.00    +0.292 HD
ENDBRANCH  10  23
TORSDOF 3
