REMARK  Name = DB00766
REMARK                            x       y       z     vdW  Elec       q    Type
REMARK                         _______ _______ _______ _____ _____    ______ ____
ROOT
ATOM      1  O   LIG    1       -0.057   2.524   0.122  0.00  0.00    -0.472 OA
ATOM      2  C   LIG    1       -0.617   1.293  -0.029  0.00  0.00    +0.130 C 
ATOM      3  C   LIG    1        0.144   0.187  -0.131  0.00  0.00    +0.044 C 
ATOM      4  C   LIG    1       -2.129   1.436  -0.013  0.00  0.00    +0.253 C 
ATOM      5  N   LIG    1       -2.305   2.810   0.397  0.00  0.00    -0.245 N 
ATOM      6  C   LIG    1       -2.448   3.301   1.699  0.00  0.00    +0.224 C 
ATOM      7  C   LIG    1       -1.229   4.238   1.517  0.00  0.00    +0.161 C 
ATOM      8  O   LIG    1       -3.221   3.042   2.619  0.00  0.00    -0.275 OA
ATOM      9  C   LIG    1       -1.043   3.519   0.152  0.00  0.00    +0.274 C 
ENDROOT
BRANCH   4  10
ATOM     10  C   LIG    1       -2.747   1.219  -1.410  0.00  0.00    +0.333 C 
ATOM     11  O   LIG    1       -2.980   2.099  -2.215  0.00  0.00    -0.248 OA
BRANCH  10  12
ATOM     12  O   LIG    1       -2.974  -0.112  -1.608  0.00  0.00    -0.479 OA
ATOM     13  H   LIG    1       -3.351  -0.293  -2.471  0.00  0.00    +0.295 HD
ENDBRANCH  10  12
ENDBRANCH   4  10
BRANCH   3  14
ATOM     14  C   LIG    1        1.659   0.156  -0.114  0.00  0.00    +0.186 C 
BRANCH  14  15
ATOM     15  O   LIG    1        2.106  -0.480  -1.292  0.00  0.00    -0.391 OA
ATOM     16  H   LIG    1        3.066  -0.492  -1.287  0.00  0.00    +0.210 HD
ENDBRANCH  14  15
ENDBRANCH   3  14
TORSDOF 4
