REMARK  Name = DB00682
REMARK                            x       y       z     vdW  Elec       q    Type
REMARK                         _______ _______ _______ _____ _____    ______ ____
ROOT
ATOM      1  C   LIG    1       -2.558  -3.694  -2.158  0.00  0.00    +0.015 A 
ATOM      2  C   LIG    1       -1.784  -2.529  -2.267  0.00  0.00    +0.059 A 
ATOM      3  C   LIG    1       -1.471  -2.036  -3.541  0.00  0.00    +0.143 A 
ATOM      4  O   LIG    1       -0.712  -0.891  -3.721  0.00  0.00    -0.422 OA
ATOM      5  C   LIG    1       -0.198  -0.161  -2.660  0.00  0.00    +0.345 A 
ATOM      6  O   LIG    1        0.476   0.814  -2.988  0.00  0.00    -0.245 OA
ATOM      7  C   LIG    1       -0.511  -0.641  -1.283  0.00  0.00    +0.087 A 
ATOM      8  C   LIG    1       -1.921  -2.690  -4.689  0.00  0.00    +0.047 A 
ATOM      9  C   LIG    1       -2.689  -3.848  -4.569  0.00  0.00    +0.004 A 
ATOM     10  C   LIG    1       -1.259  -1.760  -1.121  0.00  0.00    +0.138 A 
ATOM     11  C   LIG    1       -3.007  -4.349  -3.306  0.00  0.00    +0.001 A 
ENDROOT
BRANCH  10  12
ATOM     12  O   LIG    1       -1.592  -2.265   0.101  0.00  0.00    -0.506 OA
ATOM     13  H   LIG    1       -2.126  -3.054  -0.015  0.00  0.00    +0.292 HD
ENDBRANCH  10  12
BRANCH   7  14
ATOM     14  C   LIG    1        0.050   0.200  -0.116  0.00  0.00    +0.067 C 
BRANCH  14  15
ATOM     15  C   LIG    1       -0.577   1.607  -0.052  0.00  0.00    -0.039 A 
ATOM     16  C   LIG    1        0.106   2.740  -0.515  0.00  0.00    +0.004 A 
ATOM     17  C   LIG    1       -0.491   3.996  -0.444  0.00  0.00    +0.000 A 
ATOM     18  C   LIG    1       -1.771   4.123   0.090  0.00  0.00    +0.000 A 
ATOM     19  C   LIG    1       -2.460   3.005   0.552  0.00  0.00    +0.000 A 
ATOM     20  C   LIG    1       -1.863   1.750   0.480  0.00  0.00    +0.004 A 
ENDBRANCH  14  15
BRANCH  14  21
ATOM     21  C   LIG    1        1.605   0.138  -0.021  0.00  0.00    +0.087 C 
BRANCH  21  22
ATOM     22  C   LIG    1        2.247   0.780   1.220  0.00  0.00    +0.131 C 
ATOM     23  C   LIG    1        3.765   0.908   1.213  0.00  0.00    +0.086 C 
ATOM     24  O   LIG    1        1.586   1.173   2.180  0.00  0.00    -0.298 OA
ENDBRANCH  21  22
ENDBRANCH  14  21
ENDBRANCH   7  14
TORSDOF 5
