REMARK  Name = DB00488
REMARK                            x       y       z     vdW  Elec       q    Type
REMARK                         _______ _______ _______ _____ _____    ______ ____
ROOT
ATOM      1  C   LIG    1        1.458   0.000  -0.000  0.00  0.00    +0.223 A 
ATOM      2  N   LIG    1        2.085   0.000   1.206  0.00  0.00    -0.181 NA
ATOM      3  C   LIG    1        3.443   0.000   1.146  0.00  0.00    +0.223 A 
ATOM      4  N   LIG    1        4.174   0.000   0.000  0.00  0.00    -0.181 NA
ATOM      5  C   LIG    1        3.443   0.000  -1.146  0.00  0.00    +0.223 A 
ATOM      6  N   LIG    1        2.086   0.000  -1.206  0.00  0.00    -0.181 NA
ENDROOT
BRANCH   1   7
ATOM      7  N   LIG    1        0.059   0.000  -0.000  0.00  0.00    -0.306 N 
ATOM      8  C   LIG    1       -0.652   1.270   0.000  0.00  0.00    +0.132 C 
ATOM      9  C   LIG    1       -0.652  -1.270   0.000  0.00  0.00    +0.132 C 
ENDBRANCH   1   7
BRANCH   5  10
ATOM     10  N   LIG    1        4.143   0.000  -2.358  0.00  0.00    -0.306 N 
ATOM     11  C   LIG    1        4.498  -1.270  -2.973  0.00  0.00    +0.132 C 
ATOM     12  C   LIG    1        4.498   1.270  -2.973  0.00  0.00    +0.132 C 
ENDBRANCH   5  10
BRANCH   3  13
ATOM     13  N   LIG    1        4.143   0.000   2.358  0.00  0.00    -0.306 N 
ATOM     14  C   LIG    1        4.498   1.270   2.973  0.00  0.00    +0.132 C 
ATOM     15  C   LIG    1        4.498  -1.270   2.973  0.00  0.00    +0.132 C 
ENDBRANCH   3  13
TORSDOF 3
