REMARK  Name = DB00887
REMARK                            x       y       z     vdW  Elec       q    Type
REMARK                         _______ _______ _______ _____ _____    ______ ____
ROOT
ATOM      1  C   LIG    1        3.600  -1.019   0.124  0.00  0.00    +0.150 A 
ATOM      2  C   LIG    1        4.311   0.182   0.136  0.00  0.00    +0.047 A 
ATOM      3  C   LIG    1        3.652   1.412   0.026  0.00  0.00    +0.063 A 
ATOM      4  C   LIG    1        2.255   1.415  -0.101  0.00  0.00    +0.041 A 
ATOM      5  C   LIG    1        1.521   0.220  -0.113  0.00  0.00    +0.073 A 
ATOM      6  C   LIG    1        2.203  -1.004   0.010  0.00  0.00    +0.175 A 
ENDROOT
BRANCH   1   7
ATOM      7  S   LIG    1        4.489  -2.573   0.271  0.00  0.00    +0.060 S 
ATOM      8  O   LIG    1        5.920  -2.294   0.102  0.00  0.00    -0.153 OA
ATOM      9  O   LIG    1        3.992  -3.234   1.483  0.00  0.00    -0.153 OA
BRANCH   7  10
ATOM     10  N   LIG    1        3.976  -3.529  -1.107  0.00  0.00    -0.203 NA
ATOM     11  H   LIG    1        4.281  -3.162  -2.012  0.00  0.00    +0.144 HD
ATOM     12  H   LIG    1        2.985  -3.787  -1.091  0.00  0.00    +0.144 HD
ENDBRANCH   7  10
ENDBRANCH   1   7
BRANCH   3  13
ATOM     13  C   LIG    1        4.445   2.700   0.043  0.00  0.00    +0.337 C 
ATOM     14  O   LIG    1        5.671   2.715   0.148  0.00  0.00    -0.245 OA
BRANCH  13  15
ATOM     15  O   LIG    1        3.702   3.841  -0.065  0.00  0.00    -0.477 OA
ATOM     16  H   LIG    1        4.248   4.630  -0.050  0.00  0.00    +0.295 HD
ENDBRANCH  13  15
ENDBRANCH   3  13
BRANCH   5  17
ATOM     17  N   LIG    1        0.119   0.199  -0.254  0.00  0.00    -0.341 N 
ATOM     18  H   LIG    1       -0.330  -0.680  -0.039  0.00  0.00    +0.146 HD
BRANCH  17  19
ATOM     19  C   LIG    1       -0.691   1.397  -0.073  0.00  0.00    +0.101 C 
BRANCH  19  20
ATOM     20  C   LIG    1       -2.193   1.139  -0.271  0.00  0.00    +0.018 C 
BRANCH  20  21
ATOM     21  C   LIG    1       -3.054   2.387  -0.014  0.00  0.00    -0.002 C 
ATOM     22  C   LIG    1       -4.553   2.130  -0.219  0.00  0.00    +0.004 C 
ENDBRANCH  20  21
ENDBRANCH  19  20
ENDBRANCH  17  19
ENDBRANCH   5  17
BRANCH   6  23
ATOM     23  O   LIG    1        1.513  -2.199   0.003  0.00  0.00    -0.452 OA
BRANCH  23  24
ATOM     24  C   LIG    1        0.792  -2.614   1.107  0.00  0.00    +0.129 A 
ATOM     25  C   LIG    1        0.940  -2.053   2.386  0.00  0.00    +0.046 A 
ATOM     26  C   LIG    1        0.181  -2.531   3.451  0.00  0.00    +0.004 A 
ATOM     27  C   LIG    1       -0.721  -3.571   3.244  0.00  0.00    +0.000 A 
ATOM     28  C   LIG    1       -0.869  -4.140   1.982  0.00  0.00    +0.004 A 
ATOM     29  C   LIG    1       -0.110  -3.662   0.917  0.00  0.00    +0.046 A 
ENDBRANCH  23  24
ENDBRANCH   6  23
TORSDOF 10
