REMARK  Name = DB00279
REMARK                            x       y       z     vdW  Elec       q    Type
REMARK                         _______ _______ _______ _____ _____    ______ ____
ROOT
ATOM      1  I   LIG    1        4.364  -0.770   3.234  0.00  0.00    -0.040 I 
ATOM      2  C   LIG    1        3.463  -0.330   1.395  0.00  0.00    +0.057 A 
ATOM      3  C   LIG    1        4.236  -0.134   0.243  0.00  0.00    +0.155 A 
ATOM      4  C   LIG    1        3.605   0.170  -0.970  0.00  0.00    +0.057 A 
ATOM      5  C   LIG    1        2.214   0.261  -1.030  0.00  0.00    +0.021 A 
ATOM      6  C   LIG    1        1.441   0.059   0.117  0.00  0.00    -0.043 A 
ATOM      7  I   LIG    1        4.721   0.484  -2.714  0.00  0.00    -0.040 I 
ATOM      8  C   LIG    1        2.073  -0.237   1.328  0.00  0.00    +0.021 A 
ENDROOT
BRANCH   6   9
ATOM      9  C   LIG    1       -0.079   0.155   0.043  0.00  0.00    +0.065 C 
BRANCH   9  10
ATOM     10  CA  LIG    1       -0.574   1.619  -0.067  0.00  0.00    +0.165 C 
BRANCH  10  11
ATOM     11  N   LIG    1       -0.135   2.479   1.049  0.00  0.00    -0.318 NA
ATOM     12  H1  LIG    1       -0.287   2.036   1.944  0.00  0.00    +0.119 HD
ATOM     13  H2  LIG    1       -0.626   3.362   1.056  0.00  0.00    +0.119 HD
ENDBRANCH  10  11
BRANCH  10  14
ATOM     14  C   LIG    1       -2.115   1.679  -0.158  0.00  0.00    +0.322 C 
ATOM     15  OXT LIG    1       -2.851   1.950   0.792  0.00  0.00    -0.249 OA
BRANCH  14  16
ATOM     16  O   LIG    1       -2.540   1.370  -1.418  0.00  0.00    -0.480 OA
ATOM     17  H   LIG    1       -3.496   1.394  -1.496  0.00  0.00    +0.295 HD
ENDBRANCH  14  16
ENDBRANCH  10  14
ENDBRANCH   9  10
ENDBRANCH   6   9
BRANCH   3  18
ATOM     18  O   LIG    1        5.607  -0.222   0.304  0.00  0.00    -0.454 OA
BRANCH  18  19
ATOM     19  C   LIG    1        6.245  -1.437   0.140  0.00  0.00    +0.130 A 
ATOM     20  C   LIG    1        7.610  -1.486   0.430  0.00  0.00    +0.050 A 
ATOM     21  C   LIG    1        8.326  -2.674   0.286  0.00  0.00    +0.050 A 
ATOM     22  C   LIG    1        7.684  -3.831  -0.156  0.00  0.00    +0.130 A 
ATOM     23  C   LIG    1        6.317  -3.796  -0.455  0.00  0.00    +0.058 A 
ATOM     24  I   LIG    1        5.302  -5.502  -1.127  0.00  0.00    -0.040 I 
ATOM     25  C   LIG    1        5.605  -2.605  -0.309  0.00  0.00    +0.064 A 
BRANCH  22  26
ATOM     26  O   LIG    1        8.405  -4.988  -0.290  0.00  0.00    -0.506 OA
ATOM     27  H   LIG    1        9.329  -4.882  -0.055  0.00  0.00    +0.292 HD
ENDBRANCH  22  26
ENDBRANCH  18  19
ENDBRANCH   3  18
TORSDOF 8
