REMARK  Name = DB00353
REMARK                            x       y       z     vdW  Elec       q    Type
REMARK                         _______ _______ _______ _____ _____    ______ ____
ROOT
ATOM      1  C   LIG    1       -2.572   0.828   0.307  0.00  0.00    +0.112 C 
ATOM      2  C   LIG    1       -2.924  -0.143  -0.821  0.00  0.00    -0.007 C 
ATOM      3  C   LIG    1       -3.303   0.267  -2.048  0.00  0.00    -0.025 C 
ATOM      4  C   LIG    1       -3.703  -0.647  -3.140  0.00  0.00    -0.011 A 
ATOM      5  C   LIG    1       -3.338  -1.992  -3.276  0.00  0.00    +0.009 A 
ATOM      6  C   LIG    1       -3.795  -2.759  -4.357  0.00  0.00    +0.003 A 
ATOM      7  C   LIG    1       -4.642  -2.235  -5.346  0.00  0.00    +0.026 A 
ATOM      8  C   LIG    1       -5.033  -0.900  -5.193  0.00  0.00    +0.047 A 
ATOM      9  N   LIG    1       -5.837  -0.032  -5.910  0.00  0.00    -0.360 N 
ATOM     10  H   LIG    1       -6.337  -0.224  -6.766  0.00  0.00    +0.165 HD
ATOM     11  C   LIG    1       -5.890   1.201  -5.282  0.00  0.00    +0.087 A 
ATOM     12  C   LIG    1       -5.122   1.172  -4.129  0.00  0.00    -0.020 A 
ATOM     13  C   LIG    1       -4.777   2.123  -2.979  0.00  0.00    +0.061 C 
ATOM     14  C   LIG    1       -4.577  -0.143  -4.102  0.00  0.00    +0.010 A 
ATOM     15  C   LIG    1       -3.347   1.770  -2.424  0.00  0.00    +0.091 C 
ATOM     16  N   LIG    1       -2.804   2.669  -1.383  0.00  0.00    -0.297 NA
ATOM     17  C   LIG    1       -3.036   4.093  -1.602  0.00  0.00    +0.105 C 
ATOM     18  C   LIG    1       -3.129   2.251  -0.015  0.00  0.00    +0.101 C 
ENDROOT
BRANCH   1  20
ATOM     19  O   LIG    1       -0.729   1.495   1.699  0.00  0.00    -0.275 OA
ATOM     20  C   LIG    1       -1.069   0.912   0.667  0.00  0.00    +0.221 C 
ATOM     21  N   LIG    1       -0.183   0.336  -0.170  0.00  0.00    -0.310 N 
ATOM     22  H   LIG    1       -0.545  -0.094  -1.009  0.00  0.00    +0.149 HD
BRANCH  21  23
ATOM     23  CA  LIG    1        1.278   0.312  -0.023  0.00  0.00    +0.098 C 
BRANCH  23  24
ATOM     24  C   LIG    1        1.793  -0.965   0.694  0.00  0.00    +0.021 C 
ATOM     25  C   LIG    1        1.225  -1.198   2.105  0.00  0.00    +0.006 C 
ENDBRANCH  23  24
BRANCH  23  26
ATOM     26  C   LIG    1        1.933   0.521  -1.408  0.00  0.00    +0.178 C 
BRANCH  26  27
ATOM     27  O   LIG    1        3.340   0.641  -1.326  0.00  0.00    -0.393 OA
ATOM     28  H   LIG    1        3.687   0.782  -2.210  0.00  0.00    +0.209 HD
ENDBRANCH  26  27
ENDBRANCH  23  26
ENDBRANCH  21  23
ENDBRANCH   1  20
TORSDOF 5
