REMARK  Name = DB00274
REMARK                            x       y       z     vdW  Elec       q    Type
REMARK                         _______ _______ _______ _____ _____    ______ ____
ROOT
ATOM      1  S   LIG    1        1.076   0.590   2.776  0.00  0.00    -0.128 S 
ATOM      2  C   LIG    1        2.225  -0.014   4.062  0.00  0.00    +0.104 C 
ATOM      3  C   LIG    1        2.514  -1.525   3.969  0.00  0.00    -0.021 C 
ATOM      4  C   LIG    1        2.431  -2.199   2.780  0.00  0.00    +0.123 C 
ATOM      5  N   LIG    1        2.108  -1.581   1.596  0.00  0.00    -0.244 N 
ATOM      6  C   LIG    1        1.792  -1.938   0.280  0.00  0.00    +0.275 C 
ATOM      7  C   LIG    1        1.364  -0.445  -0.013  0.00  0.00    +0.242 C 
ATOM      8  O   LIG    1        1.798  -2.992  -0.356  0.00  0.00    -0.270 OA
ATOM      9  C   LIG    1        2.012  -0.119   1.387  0.00  0.00    +0.199 C 
ENDROOT
BRANCH   7  10
ATOM     10  N   LIG    1       -0.074  -0.342  -0.080  0.00  0.00    -0.277 N 
ATOM     11  H   LIG    1       -0.589  -1.205   0.016  0.00  0.00    +0.152 HD
ATOM     12  C   LIG    1       -0.773   0.800  -0.219  0.00  0.00    +0.225 C 
ATOM     13  O   LIG    1       -0.253   1.906  -0.371  0.00  0.00    -0.275 OA
BRANCH  12  14
ATOM     14  C   LIG    1       -2.296   0.665  -0.201  0.00  0.00    +0.165 C 
BRANCH  14  15
ATOM     15  S   LIG    1       -3.025   0.956   1.440  0.00  0.00    -0.137 S 
BRANCH  15  16
ATOM     16  C   LIG    1       -2.981   2.769   1.576  0.00  0.00    +0.187 C 
BRANCH  16  17
ATOM     17  C   LIG    1       -1.670   3.288   1.995  0.00  0.00    +0.073 C 
ATOM     18  N   LIG    1       -0.642   3.702   2.327  0.00  0.00    -0.196 NA
ENDBRANCH  16  17
ENDBRANCH  15  16
ENDBRANCH  14  15
ENDBRANCH  12  14
ENDBRANCH   7  10
BRANCH   4  19
ATOM     19  C   LIG    1        2.707  -3.624   2.709  0.00  0.00    +0.351 C 
ATOM     20  O   LIG    1        1.867  -4.476   2.425  0.00  0.00    -0.244 OA
BRANCH  19  21
ATOM     21  O   LIG    1        4.025  -3.904   2.929  0.00  0.00    -0.476 OA
ATOM     22  H   LIG    1        4.214  -4.842   2.861  0.00  0.00    +0.295 HD
ENDBRANCH  19  21
ENDBRANCH   4  19
BRANCH   7  23
ATOM     23  O   LIG    1        2.075   0.115  -1.089  0.00  0.00    -0.349 OA
ATOM     24  C   LIG    1        1.748  -0.318  -2.409  0.00  0.00    +0.197 C 
ENDBRANCH   7  23
BRANCH   3  25
ATOM     25  C   LIG    1        2.833  -2.164   5.327  0.00  0.00    +0.111 C 
BRANCH  25  26
ATOM     26  S   LIG    1        4.444  -1.656   6.013  0.00  0.00    -0.080 S 
BRANCH  26  27
ATOM     27  C   LIG    1        5.384  -3.131   5.766  0.00  0.00    +0.209 A 
ATOM     28  N   LIG    1        4.958  -4.354   5.979  0.00  0.00    -0.102 NA
ATOM     29  N   LIG    1        6.024  -5.193   5.672  0.00  0.00    -0.022 NA
ATOM     30  N   LIG    1        7.114  -4.445   5.276  0.00  0.00    -0.043 NA
ATOM     31  N   LIG    1        6.689  -3.179   5.327  0.00  0.00    -0.223 N 
ATOM     32  C   LIG    1        7.603  -2.095   5.006  0.00  0.00    +0.177 C 
ENDBRANCH  26  27
ENDBRANCH  25  26
ENDBRANCH   3  25
TORSDOF 11
