REMARK  Name = DB00419
REMARK                            x       y       z     vdW  Elec       q    Type
REMARK                         _______ _______ _______ _____ _____    ______ ____
ROOT
ATOM      1  C   LIG    1       -2.111   1.448  -0.142  0.00  0.00    +0.165 C 
ATOM      2  C   LIG    1       -2.640   0.549  -1.287  0.00  0.00    +0.174 C 
ATOM      3  C   LIG    1       -1.980  -0.841  -1.232  0.00  0.00    +0.159 C 
ATOM      4  C   LIG    1       -0.450  -0.706  -1.209  0.00  0.00    +0.118 C 
ATOM      5  N   LIG    1        0.018   0.107  -0.077  0.00  0.00    -0.292 NA
ATOM      6  C   LIG    1       -0.549   1.477  -0.027  0.00  0.00    +0.113 C 
ENDROOT
BRANCH   1   7
ATOM      7  O   LIG    1       -2.637   2.757  -0.305  0.00  0.00    -0.388 OA
ATOM      8  H   LIG    1       -2.478   3.253   0.501  0.00  0.00    +0.210 HD
ENDBRANCH   1   7
BRANCH   3   9
ATOM      9  O   LIG    1       -2.384  -1.678  -2.301  0.00  0.00    -0.388 OA
ATOM     10  H   LIG    1       -2.675  -1.122  -3.028  0.00  0.00    +0.210 HD
ENDBRANCH   3   9
BRANCH   2  11
ATOM     11  O   LIG    1       -4.055   0.450  -1.269  0.00  0.00    -0.387 OA
ATOM     12  H   LIG    1       -4.414   1.312  -1.042  0.00  0.00    +0.210 HD
ENDBRANCH   2  11
BRANCH   5  13
ATOM     13  C   LIG    1        1.488   0.048  -0.002  0.00  0.00    +0.085 C 
BRANCH  13  14
ATOM     14  C   LIG    1        1.948  -0.749   1.237  0.00  0.00    +0.015 C 
BRANCH  14  15
ATOM     15  C   LIG    1        1.529  -2.232   1.251  0.00  0.00    -0.002 C 
ATOM     16  C   LIG    1        2.088  -2.998   2.457  0.00  0.00    +0.004 C 
ENDBRANCH  14  15
ENDBRANCH  13  14
ENDBRANCH   5  13
BRANCH   6  17
ATOM     17  C   LIG    1       -0.119   2.309   1.223  0.00  0.00    +0.177 C 
BRANCH  17  18
ATOM     18  O   LIG    1        1.014   3.113   0.962  0.00  0.00    -0.393 OA
ATOM     19  H   LIG    1        1.244   3.587   1.764  0.00  0.00    +0.209 HD
ENDBRANCH  17  18
ENDBRANCH   6  17
TORSDOF 8
