REMARK  Name = DB00881
REMARK                            x       y       z     vdW  Elec       q    Type
REMARK                         _______ _______ _______ _____ _____    ______ ____
ROOT
ATOM      1  CA  ALA A  1        0.032   1.692  -0.755  0.00  0.00    +0.138 C 
ATOM      2  CB  ALA A  1        0.134   2.859  -1.756  0.00  0.00    +0.034 C 
ENDROOT
BRANCH   1   4
ATOM      3  O   ALA A  1       -2.251   0.985  -0.929  0.00  0.00    -0.274 OA
ATOM      4  C   ALA A  1       -1.420   1.552  -0.212  0.00  0.00    +0.233 C 
ATOM      5  N   UNK A  2       -1.719   2.032   1.037  0.00  0.00    -0.282 N 
ATOM      6  C   UNK A  2       -1.072   3.269   1.516  0.00  0.00    +0.144 C 
ATOM      7  C   UNK A  2       -1.949   4.487   1.217  0.00  0.00    -0.027 A 
ATOM      8  C   UNK A  2       -1.380   5.761   1.114  0.00  0.00    +0.005 A 
ATOM      9  C   UNK A  2       -2.168   6.883   0.870  0.00  0.00    +0.000 A 
ATOM     10  C   UNK A  2       -3.544   6.743   0.730  0.00  0.00    +0.000 A 
ATOM     11  C   UNK A  2       -4.125   5.481   0.830  0.00  0.00    +0.004 A 
ATOM     12  C   UNK A  2       -3.346   4.343   1.068  0.00  0.00    -0.040 A 
ATOM     13  C   UNK A  2       -3.999   2.960   1.154  0.00  0.00    +0.069 C 
ATOM     14  C   UNK A  2       -3.041   1.857   1.708  0.00  0.00    +0.189 C 
BRANCH  14  15
ATOM     15  C   UNK A  2       -3.649   0.424   1.688  0.00  0.00    +0.326 C 
ATOM     16  O   UNK A  2       -3.000  -0.586   1.500  0.00  0.00    -0.249 OA
BRANCH  15  17
ATOM     17  O   UNK A  2       -4.986   0.445   1.966  0.00  0.00    -0.479 OA
ATOM     18  H   UNK A  2       -5.369  -0.435   1.973  0.00  0.00    +0.295 HD
ENDBRANCH  15  17
ENDBRANCH  14  15
ENDBRANCH   1   4
BRANCH   1  19
ATOM     19  N   ALA A  1        0.405   0.392  -1.362  0.00  0.00    -0.294 NA
ATOM     20  H   ALA A  1        0.385   0.497  -2.366  0.00  0.00    +0.123 HD
BRANCH  19  21
ATOM     21  C   UNK A  0        1.753  -0.080  -0.975  0.00  0.00    +0.164 C 
BRANCH  21  22
ATOM     22  C   UNK A  0        2.273  -1.008  -2.059  0.00  0.00    +0.324 C 
ATOM     23  O   UNK A  0        2.384  -2.230  -1.924  0.00  0.00    -0.249 OA
BRANCH  22  24
ATOM     24  O   UNK A  0        2.604  -0.318  -3.176  0.00  0.00    -0.464 OA
BRANCH  24  25
ATOM     25  C   UNK A  0        3.122  -0.986  -4.318  0.00  0.00    +0.229 C 
ATOM     26  C   UNK A  0        3.440   0.042  -5.408  0.00  0.00    +0.048 C 
ENDBRANCH  24  25
ENDBRANCH  22  24
ENDBRANCH  21  22
BRANCH  21  27
ATOM     27  C   UNK A  0        1.821  -0.691   0.455  0.00  0.00    +0.035 C 
BRANCH  27  28
ATOM     28  C   UNK A  0        0.725  -1.724   0.808  0.00  0.00    +0.037 C 
BRANCH  28  29
ATOM     29  C   UNK A  0        0.755  -2.131   2.273  0.00  0.00    -0.047 A 
ATOM     30  C   UNK A  0        1.508  -3.238   2.676  0.00  0.00    +0.003 A 
ATOM     31  C   UNK A  0        1.536  -3.607   4.018  0.00  0.00    +0.000 A 
ATOM     32  C   UNK A  0        0.812  -2.868   4.952  0.00  0.00    +0.000 A 
ATOM     33  C   UNK A  0        0.060  -1.763   4.557  0.00  0.00    +0.000 A 
ATOM     34  C   UNK A  0        0.033  -1.393   3.215  0.00  0.00    +0.003 A 
ENDBRANCH  28  29
ENDBRANCH  27  28
ENDBRANCH  21  27
ENDBRANCH  19  21
ENDBRANCH   1  19
TORSDOF 11
