REMARK  Name = DB00401
REMARK                            x       y       z     vdW  Elec       q    Type
REMARK                         _______ _______ _______ _____ _____    ______ ____
ROOT
ATOM      1  C   LIG    1       -0.025   0.145   0.090  0.00  0.00    +0.065 C 
ATOM      2  C   LIG    1       -0.724   1.310  -0.045  0.00  0.00    +0.016 C 
ATOM      3  C   LIG    1       -0.178   2.725  -0.227  0.00  0.00    +0.061 C 
ATOM      4  N   LIG    1       -2.098   1.284  -0.129  0.00  0.00    -0.321 N 
ATOM      5  H   LIG    1       -2.575   2.174  -0.136  0.00  0.00    +0.152 HD
ATOM      6  C   LIG    1       -2.881   0.153  -0.095  0.00  0.00    +0.016 C 
ATOM      7  C   LIG    1       -4.356   0.483  -0.322  0.00  0.00    +0.061 C 
ATOM      8  C   LIG    1       -2.303  -1.075   0.039  0.00  0.00    +0.065 C 
ATOM      9  C   LIG    1       -0.763  -1.224   0.244  0.00  0.00    +0.098 C 
ENDROOT
BRANCH   9  10
ATOM     10  C   LIG    1       -0.337  -2.057   1.482  0.00  0.00    -0.005 A 
ATOM     11  C   LIG    1        0.230  -3.328   1.294  0.00  0.00    +0.007 A 
ATOM     12  C   LIG    1        0.676  -4.084   2.375  0.00  0.00    +0.000 A 
ATOM     13  C   LIG    1        0.567  -3.580   3.667  0.00  0.00    +0.002 A 
ATOM     14  C   LIG    1        0.007  -2.323   3.876  0.00  0.00    +0.033 A 
ATOM     15  C   LIG    1       -0.454  -1.558   2.799  0.00  0.00    +0.126 A 
BRANCH  15  16
ATOM     16  N   LIG    1       -1.035  -0.238   3.086  0.00  0.00    +0.006 N 
ATOM     17  O   LIG    1       -2.247  -0.106   2.963  0.00  0.00    -0.130 OA
BRANCH  16  18
ATOM     18  O   LIG    1       -0.275   0.643   3.472  0.00  0.00    -0.396 OA
ATOM     19  H   LIG    1       -0.608   1.498   3.665  0.00  0.00    +0.329 HD
ENDBRANCH  16  18
ENDBRANCH  15  16
ENDBRANCH   9  10
BRANCH   1  20
ATOM     20  C   LIG    1        1.462   0.131   0.199  0.00  0.00    +0.338 C 
ATOM     21  O   LIG    1        2.141   1.117   0.497  0.00  0.00    -0.245 OA
BRANCH  20  22
ATOM     22  O   LIG    1        2.004  -1.087  -0.042  0.00  0.00    -0.461 OA
BRANCH  22  23
ATOM     23  C   LIG    1        3.408  -1.307   0.028  0.00  0.00    +0.235 C 
BRANCH  23  24
ATOM     24  C   LIG    1        3.728  -2.805  -0.156  0.00  0.00    +0.020 C 
ATOM     25  C   LIG    1        3.211  -3.357  -1.499  0.00  0.00    +0.010 C 
ATOM     26  C   LIG    1        5.235  -3.065   0.008  0.00  0.00    +0.010 C 
ENDBRANCH  23  24
ENDBRANCH  22  23
ENDBRANCH  20  22
ENDBRANCH   1  20
BRANCH   8  27
ATOM     27  C   LIG    1       -3.120  -2.317   0.105  0.00  0.00    +0.337 C 
ATOM     28  O   LIG    1       -4.304  -2.341   0.452  0.00  0.00    -0.245 OA
BRANCH  27  29
ATOM     29  O   LIG    1       -2.430  -3.430  -0.243  0.00  0.00    -0.465 OA
ATOM     30  C   LIG    1       -3.043  -4.711  -0.223  0.00  0.00    +0.280 C 
ENDBRANCH  27  29
ENDBRANCH   8  27
TORSDOF 9
