REMARK  Name = DB00690
REMARK                            x       y       z     vdW  Elec       q    Type
REMARK                         _______ _______ _______ _____ _____    ______ ____
ROOT
ATOM      1 CL   LIG    1        8.117  -1.515   1.692  0.00  0.00    -0.084 Cl
ATOM      2  C   LIG    1        6.582  -1.515   0.902  0.00  0.00    +0.042 A 
ATOM      3  C   LIG    1        6.293  -0.559  -0.057  0.00  0.00    +0.022 A 
ATOM      4  C   LIG    1        5.056  -0.570  -0.690  0.00  0.00    +0.025 A 
ATOM      5  C   LIG    1        4.070  -1.538  -0.415  0.00  0.00    +0.046 A 
ATOM      6  C   LIG    1        4.365  -2.498   0.607  0.00  0.00    +0.023 A 
ATOM      7  C   LIG    1        3.412  -3.556   1.058  0.00  0.00    +0.078 C 
ATOM      8  N   LIG    1        2.620  -4.201   0.285  0.00  0.00    -0.273 NA
ATOM      9  C   LIG    1        2.641  -3.913  -1.140  0.00  0.00    +0.238 C 
ATOM     10  C   LIG    1        2.039  -2.533  -1.476  0.00  0.00    +0.241 C 
ATOM     11  O   LIG    1        0.970  -2.471  -2.090  0.00  0.00    -0.273 OA
ATOM     12  N   LIG    1        2.773  -1.462  -1.029  0.00  0.00    -0.268 N 
ATOM     13  C   LIG    1        5.628  -2.470   1.227  0.00  0.00    +0.032 A 
ENDROOT
BRANCH   7  14
ATOM     14  C   LIG    1        3.388  -3.877   2.499  0.00  0.00    +0.036 A 
ATOM     15  C   LIG    1        3.130  -2.861   3.432  0.00  0.00    +0.013 A 
ATOM     16  C   LIG    1        3.122  -3.139   4.799  0.00  0.00    +0.001 A 
ATOM     17  C   LIG    1        3.381  -4.432   5.250  0.00  0.00    +0.003 A 
ATOM     18  C   LIG    1        3.654  -5.447   4.334  0.00  0.00    +0.039 A 
ATOM     19  C   LIG    1        3.664  -5.176   2.964  0.00  0.00    +0.133 A 
ATOM     20  F   LIG    1        3.950  -6.183   2.104  0.00  0.00    -0.205 F 
ENDBRANCH   7  14
BRANCH  12  21
ATOM     21  C   LIG    1        2.201  -0.130  -1.372  0.00  0.00    +0.129 C 
BRANCH  21  22
ATOM     22  C   LIG    1        1.475   0.614  -0.225  0.00  0.00    +0.103 C 
BRANCH  22  23
ATOM     23  N   LIG    1        0.314  -0.129   0.294  0.00  0.00    -0.301 NA
BRANCH  23  24
ATOM     24  C   LIG    1        0.696  -0.921   1.470  0.00  0.00    +0.081 C 
ATOM     25  C   LIG    1       -0.266  -2.093   1.727  0.00  0.00    +0.020 C 
ENDBRANCH  23  24
BRANCH  23  26
ATOM     26  C   LIG    1       -0.814   0.760   0.608  0.00  0.00    +0.081 C 
ATOM     27  C   LIG    1       -1.508   1.288  -0.662  0.00  0.00    +0.020 C 
ENDBRANCH  23  26
ENDBRANCH  22  23
ENDBRANCH  21  22
ENDBRANCH  12  21
TORSDOF 6
