REMARK  Name = DB00307
REMARK                            x       y       z     vdW  Elec       q    Type
REMARK                         _______ _______ _______ _____ _____    ______ ____
ROOT
ATOM      1  C   LIG    1       -0.008   0.189  -0.170  0.00  0.00    -0.015 A 
ATOM      2  C   LIG    1       -0.783   1.350  -0.293  0.00  0.00    -0.042 A 
ATOM      3  C   LIG    1       -0.164   2.724  -0.532  0.00  0.00    +0.044 C 
ATOM      4  C   LIG    1       -2.172   1.251  -0.247  0.00  0.00    +0.008 A 
ATOM      5  C   LIG    1       -2.846   0.029  -0.085  0.00  0.00    -0.038 A 
ATOM      6  C   LIG    1       -2.067  -1.158  -0.004  0.00  0.00    -0.037 A 
ATOM      7  C   LIG    1       -2.695  -2.565   0.179  0.00  0.00    -0.010 C 
ATOM      8  C   LIG    1       -2.058  -3.584  -0.804  0.00  0.00    +0.016 C 
ATOM      9  C   LIG    1       -2.509  -2.989   1.657  0.00  0.00    +0.016 C 
ATOM     10  C   LIG    1       -4.210  -2.537  -0.157  0.00  0.00    +0.012 C 
ATOM     11  C   LIG    1       -4.932  -1.338   0.460  0.00  0.00    +0.012 C 
ATOM     12  C   LIG    1       -4.397   0.021  -0.064  0.00  0.00    -0.010 C 
ATOM     13  C   LIG    1       -4.938   1.099   0.912  0.00  0.00    +0.016 C 
ATOM     14  C   LIG    1       -4.900   0.241  -1.513  0.00  0.00    +0.016 C 
ATOM     15  C   LIG    1       -0.669  -1.035  -0.039  0.00  0.00    +0.013 A 
ENDROOT
BRANCH   1  16
ATOM     16  C   LIG    1        1.482   0.199  -0.184  0.00  0.00    -0.018 C 
ATOM     17  C   LIG    1        2.141  -0.575  -1.073  0.00  0.00    +0.018 C 
BRANCH  16  21
ATOM     18  C   LIG    1        3.564   2.664   2.685  0.00  0.00    +0.059 A 
ATOM     19  C   LIG    1        4.153   2.355   1.454  0.00  0.00    +0.015 A 
ATOM     20  C   LIG    1        3.483   1.562   0.527  0.00  0.00    +0.009 A 
ATOM     21  C   LIG    1        2.202   1.063   0.801  0.00  0.00    -0.018 A 
ATOM     22  C   LIG    1        1.623   1.363   2.041  0.00  0.00    +0.009 A 
ATOM     23  C   LIG    1        2.289   2.156   2.970  0.00  0.00    +0.015 A 
BRANCH  18  24
ATOM     24  C   LIG    1        4.304   3.529   3.680  0.00  0.00    +0.337 C 
ATOM     25  O   LIG    1        5.436   3.960   3.463  0.00  0.00    -0.245 OA
BRANCH  24  26
ATOM     26  O   LIG    1        3.624   3.797   4.835  0.00  0.00    -0.477 OA
ATOM     27  H   LIG    1        4.132   4.349   5.433  0.00  0.00    +0.295 HD
ENDBRANCH  24  26
ENDBRANCH  18  24
ENDBRANCH  16  21
ENDBRANCH   1  16
TORSDOF 4
