REMARK  Name = DB00966
REMARK                            x       y       z     vdW  Elec       q    Type
REMARK                         _______ _______ _______ _____ _____    ______ ____
ROOT
ATOM      1  N   LIG    1       -0.162  -0.044   0.009  0.00  0.00    -0.323 N 
ATOM      2  C   LIG    1       -0.984  -1.158   0.026  0.00  0.00    +0.111 A 
ATOM      3  N   LIG    1       -2.256  -0.863  -0.077  0.00  0.00    -0.232 NA
ATOM      4  C   LIG    1       -2.302   0.505  -0.131  0.00  0.00    +0.092 A 
ATOM      5  C   LIG    1       -3.421   1.349  -0.225  0.00  0.00    -0.022 A 
ATOM      6  C   LIG    1       -4.848   0.833  -0.294  0.00  0.00    +0.046 C 
ATOM      7  C   LIG    1       -3.184   2.728  -0.247  0.00  0.00    +0.017 A 
ATOM      8  C   LIG    1       -1.893   3.266  -0.187  0.00  0.00    +0.020 A 
ATOM      9  C   LIG    1       -0.770   2.434  -0.091  0.00  0.00    +0.039 A 
ATOM     10  C   LIG    1       -0.997   1.055  -0.070  0.00  0.00    +0.070 A 
ENDROOT
BRANCH   8  11
ATOM     11  C   LIG    1       -1.718   4.752  -0.195  0.00  0.00    +0.142 A 
ATOM     12  N   LIG    1       -2.437   5.542   0.570  0.00  0.00    -0.228 NA
ATOM     13  C   LIG    1       -1.962   6.801   0.333  0.00  0.00    +0.090 A 
ATOM     14  C   LIG    1       -2.359   8.017   0.906  0.00  0.00    +0.030 A 
ATOM     15  C   LIG    1       -1.702   9.180   0.503  0.00  0.00    +0.002 A 
ATOM     16  C   LIG    1       -0.678   9.142  -0.444  0.00  0.00    +0.002 A 
ATOM     17  C   LIG    1       -0.264   7.947  -1.037  0.00  0.00    +0.028 A 
ATOM     18  C   LIG    1       -0.926   6.780  -0.633  0.00  0.00    +0.069 A 
ATOM     19  N   LIG    1       -0.816   5.449  -0.988  0.00  0.00    -0.327 N 
ATOM     20  C   LIG    1        0.138   4.903  -1.946  0.00  0.00    +0.151 C 
ENDBRANCH   8  11
BRANCH   1  21
ATOM     21  C   LIG    1        1.297  -0.025   0.125  0.00  0.00    +0.158 C 
BRANCH  21  25
ATOM     22  C   LIG    1        2.953  -0.101   4.129  0.00  0.00    -0.017 A 
ATOM     23  C   LIG    1        1.645   0.351   3.927  0.00  0.00    +0.009 A 
ATOM     24  C   LIG    1        1.097   0.381   2.648  0.00  0.00    +0.006 A 
ATOM     25  C   LIG    1        1.854  -0.042   1.549  0.00  0.00    -0.028 A 
ATOM     26  C   LIG    1        3.166  -0.476   1.745  0.00  0.00    +0.006 A 
ATOM     27  C   LIG    1        3.712  -0.504   3.025  0.00  0.00    +0.009 A 
BRANCH  22  33
ATOM     28  C   LIG    1        4.023  -1.303   6.134  0.00  0.00    +0.067 A 
ATOM     29  C   LIG    1        4.590  -1.201   7.416  0.00  0.00    +0.015 A 
ATOM     30  C   LIG    1        4.675   0.024   8.071  0.00  0.00    +0.001 A 
ATOM     31  C   LIG    1        4.186   1.172   7.460  0.00  0.00    +0.001 A 
ATOM     32  C   LIG    1        3.622   1.092   6.190  0.00  0.00    +0.009 A 
ATOM     33  C   LIG    1        3.535  -0.128   5.503  0.00  0.00    -0.004 A 
BRANCH  28  34
ATOM     34  C   LIG    1        3.895  -2.677   5.512  0.00  0.00    +0.337 C 
ATOM     35  O   LIG    1        2.945  -3.000   4.801  0.00  0.00    -0.245 OA
BRANCH  34  36
ATOM     36  O   LIG    1        4.925  -3.526   5.802  0.00  0.00    -0.477 OA
ATOM     37  H   LIG    1        4.813  -4.385   5.390  0.00  0.00    +0.295 HD
ENDBRANCH  34  36
ENDBRANCH  28  34
ENDBRANCH  22  33
ENDBRANCH  21  25
ENDBRANCH   1  21
BRANCH   2  38
ATOM     38  C   LIG    1       -0.477  -2.585   0.141  0.00  0.00    +0.074 C 
BRANCH  38  39
ATOM     39  C   LIG    1       -0.134  -3.196  -1.230  0.00  0.00    +0.004 C 
ATOM     40  C   LIG    1        0.379  -4.639  -1.126  0.00  0.00    +0.004 C 
ENDBRANCH  38  39
ENDBRANCH   2  38
TORSDOF 8
