REMARK  Name = DB00479
REMARK                            x       y       z     vdW  Elec       q    Type
REMARK                         _______ _______ _______ _____ _____    ______ ____
ROOT
ATOM      1  C   LIG    1       -0.207  -0.844  -0.875  0.00  0.00    +0.106 C 
ATOM      2  C   LIG    1        0.168  -0.002   0.373  0.00  0.00    +0.173 C 
ATOM      3  C   LIG    1       -0.313  -0.682   1.684  0.00  0.00    +0.175 C 
ATOM      4  C   LIG    1       -1.833  -1.012   1.660  0.00  0.00    +0.169 C 
ATOM      5  C   LIG    1       -2.245  -1.774   0.373  0.00  0.00    +0.084 C 
ATOM      6  C   LIG    1       -1.730  -1.080  -0.907  0.00  0.00    +0.046 C 
ENDROOT
BRANCH   1   7
ATOM      7  N   LIG    1        0.277  -0.279  -2.141  0.00  0.00    -0.308 N 
ATOM      8  H   LIG    1       -0.263   0.485  -2.519  0.00  0.00    +0.149 HD
ATOM      9  C   LIG    1        1.428  -0.606  -2.761  0.00  0.00    +0.242 C 
ATOM     10  O   LIG    1        2.192  -1.480  -2.341  0.00  0.00    -0.273 OA
BRANCH   9  11
ATOM     11  C   LIG    1        1.749   0.185  -4.048  0.00  0.00    +0.201 C 
BRANCH  11  12
ATOM     12  O   LIG    1        3.150   0.180  -4.278  0.00  0.00    -0.383 OA
ATOM     13  H   LIG    1        3.393  -0.668  -4.657  0.00  0.00    +0.210 HD
ENDBRANCH  11  12
BRANCH  11  14
ATOM     14  C   LIG    1        1.016  -0.356  -5.301  0.00  0.00    +0.056 C 
BRANCH  14  15
ATOM     15  C   LIG    1        1.348  -1.814  -5.689  0.00  0.00    +0.080 C 
BRANCH  15  16
ATOM     16  N   LIG    1        0.652  -2.183  -6.908  0.00  0.00    -0.330 NA
ATOM     17  H   LIG    1        0.926  -1.567  -7.660  0.00  0.00    +0.118 HD
ATOM     18  H   LIG    1       -0.344  -2.065  -6.785  0.00  0.00    +0.118 HD
ENDBRANCH  15  16
ENDBRANCH  14  15
ENDBRANCH  11  14
ENDBRANCH   9  11
ENDBRANCH   1   7
BRANCH   5  19
ATOM     19  N   LIG    1       -3.670  -2.042   0.291  0.00  0.00    -0.325 NA
ATOM     20  H   LIG    1       -3.964  -2.549   1.114  0.00  0.00    +0.119 HD
ATOM     21  H   LIG    1       -3.862  -2.638  -0.501  0.00  0.00    +0.119 HD
ENDBRANCH   5  19
BRANCH   3  22
ATOM     22  O   LIG    1       -0.003   0.117   2.812  0.00  0.00    -0.387 OA
ATOM     23  H   LIG    1       -0.474   0.950   2.735  0.00  0.00    +0.210 HD
ENDBRANCH   3  22
BRANCH   4  24
ATOM     24  O   LIG    1       -2.163  -1.830   2.789  0.00  0.00    -0.341 OA
BRANCH  24  25
ATOM     25  C   LIG    1       -2.704  -1.183   3.911  0.00  0.00    +0.282 C 
ATOM     26  C   LIG    1       -2.490  -2.065   5.154  0.00  0.00    +0.201 C 
ATOM     27  C   LIG    1       -3.367  -3.336   5.096  0.00  0.00    +0.179 C 
ATOM     28  C   LIG    1       -4.840  -2.962   4.832  0.00  0.00    +0.176 C 
ATOM     29  C   LIG    1       -4.937  -2.015   3.610  0.00  0.00    +0.166 C 
ATOM     30  O   LIG    1       -4.067  -0.879   3.736  0.00  0.00    -0.342 OA
BRANCH  26  31
ATOM     31  O   LIG    1       -1.116  -2.353   5.348  0.00  0.00    -0.384 OA
ATOM     32  H   LIG    1       -0.648  -1.530   5.505  0.00  0.00    +0.210 HD
ENDBRANCH  26  31
BRANCH  27  33
ATOM     33  O   LIG    1       -3.236  -4.113   6.276  0.00  0.00    -0.386 OA
ATOM     34  H   LIG    1       -3.525  -3.585   7.024  0.00  0.00    +0.210 HD
ENDBRANCH  27  33
BRANCH  28  35
ATOM     35  O   LIG    1       -5.633  -4.123   4.644  0.00  0.00    -0.387 OA
ATOM     36  H   LIG    1       -5.610  -4.641   5.452  0.00  0.00    +0.210 HD
ENDBRANCH  28  35
BRANCH  29  37
ATOM     37  C   LIG    1       -6.364  -1.503   3.304  0.00  0.00    +0.112 C 
BRANCH  37  38
ATOM     38  N   LIG    1       -6.924  -0.736   4.403  0.00  0.00    -0.328 NA
ATOM     39  H   LIG    1       -7.843  -0.401   4.150  0.00  0.00    +0.118 HD
ATOM     40  H   LIG    1       -6.356   0.084   4.564  0.00  0.00    +0.118 HD
ENDBRANCH  37  38
ENDBRANCH  29  37
ENDBRANCH  24  25
ENDBRANCH   4  24
BRANCH   2  41
ATOM     41  O   LIG    1        1.588   0.172   0.364  0.00  0.00    -0.341 OA
BRANCH  41  42
ATOM     42  C   LIG    1        2.115   1.355   0.909  0.00  0.00    +0.281 C 
ATOM     43  O   LIG    1        3.089   1.073   1.877  0.00  0.00    -0.341 OA
ATOM     44  C   LIG    1        4.199   0.306   1.388  0.00  0.00    +0.177 C 
ATOM     45  C   LIG    1        4.927   1.064   0.245  0.00  0.00    +0.165 C 
ATOM     46  C   LIG    1        3.947   1.556  -0.850  0.00  0.00    +0.116 C 
ATOM     47  C   LIG    1        2.707   2.229  -0.210  0.00  0.00    +0.189 C 
BRANCH  46  48
ATOM     48  N   LIG    1        4.599   2.427  -1.819  0.00  0.00    -0.323 NA
ATOM     49  H   LIG    1        5.396   1.948  -2.215  0.00  0.00    +0.119 HD
ATOM     50  H   LIG    1        4.963   3.245  -1.351  0.00  0.00    +0.119 HD
ENDBRANCH  46  48
BRANCH  45  51
ATOM     51  O   LIG    1        5.986   0.312  -0.323  0.00  0.00    -0.388 OA
ATOM     52  H   LIG    1        5.611  -0.452  -0.767  0.00  0.00    +0.210 HD
ENDBRANCH  45  51
BRANCH  47  53
ATOM     53  O   LIG    1        1.709   2.565  -1.159  0.00  0.00    -0.385 OA
ATOM     54  H   LIG    1        1.083   3.163  -0.744  0.00  0.00    +0.210 HD
ENDBRANCH  47  53
BRANCH  44  55
ATOM     55  C   LIG    1        5.091  -0.011   2.609  0.00  0.00    +0.190 C 
BRANCH  55  56
ATOM     56  O   LIG    1        6.002  -1.059   2.345  0.00  0.00    -0.392 OA
ATOM     57  H   LIG    1        6.518  -1.223   3.137  0.00  0.00    +0.210 HD
ENDBRANCH  55  56
ENDBRANCH  44  55
ENDBRANCH  41  42
ENDBRANCH   2  41
TORSDOF 22
