REMARK  Name = DB00855
REMARK                            x       y       z     vdW  Elec       q    Type
REMARK                         _______ _______ _______ _____ _____    ______ ____
ROOT
ATOM      1  O   LIG    1        2.230   0.235  -1.103  0.00  0.00    -0.296 OA
ATOM      2  C   LIG    1        1.586   0.179  -0.054  0.00  0.00    +0.147 C 
ENDROOT
BRANCH   2   3
ATOM      3  C   LIG    1        2.245   0.208   1.334  0.00  0.00    +0.152 C 
BRANCH   3   4
ATOM      4  N   LIG    1        3.692   0.340   1.292  0.00  0.00    -0.324 NA
ATOM      5  H   LIG    1        4.096  -0.488   0.876  0.00  0.00    +0.119 HD
ATOM      6  H   LIG    1        4.057   0.392   2.232  0.00  0.00    +0.119 HD
ENDBRANCH   3   4
ENDBRANCH   2   3
BRANCH   2   7
ATOM      7  C   LIG    1        0.060   0.083  -0.086  0.00  0.00    +0.087 C 
BRANCH   7   8
ATOM      8  C   LIG    1       -0.621   1.463   0.016  0.00  0.00    +0.128 C 
BRANCH   8   9
ATOM      9  C   LIG    1       -2.146   1.355  -0.005  0.00  0.00    +0.305 C 
ATOM     10  O   LIG    1       -2.837   1.381   1.010  0.00  0.00    -0.251 OA
BRANCH   9  11
ATOM     11  O   LIG    1       -2.626   1.222  -1.275  0.00  0.00    -0.481 OA
ATOM     12  H   LIG    1       -3.583   1.153  -1.297  0.00  0.00    +0.295 HD
ENDBRANCH   9  11
ENDBRANCH   8   9
ENDBRANCH   7   8
ENDBRANCH   2   7
TORSDOF 6
