REMARK  Name = DB00547
REMARK                            x       y       z     vdW  Elec       q    Type
REMARK                         _______ _______ _______ _____ _____    ______ ____
ROOT
ATOM      1  F   LIG    1       -3.366  -0.430   3.128  0.00  0.00    -0.238 F 
ATOM      2  C   LIG    1       -2.621  -1.541   3.236  0.00  0.00    +0.153 C 
ATOM      3  C   LIG    1       -3.376  -2.451   4.294  0.00  0.00    +0.044 C 
ATOM      4  C   LIG    1       -3.570  -1.725   5.637  0.00  0.00    -0.009 C 
ATOM      5  C   LIG    1       -4.756  -1.450   6.215  0.00  0.00    +0.047 C 
ATOM      6  C   LIG    1       -6.047  -1.807   5.634  0.00  0.00    +0.179 C 
ATOM      7  C   LIG    1       -5.941  -2.485   4.342  0.00  0.00    +0.051 C 
ATOM      8  O   LIG    1       -7.121  -1.558   6.177  0.00  0.00    -0.288 OA
ATOM      9  C   LIG    1       -2.666  -3.795   4.621  0.00  0.00    +0.023 C 
ATOM     10  C   LIG    1       -4.780  -2.790   3.713  0.00  0.00    -0.053 C 
ATOM     11  C   LIG    1       -4.756  -3.474   2.346  0.00  0.00    +0.032 C 
ATOM     12  C   LIG    1       -4.032  -2.564   1.341  0.00  0.00    +0.011 C 
ATOM     13  C   LIG    1       -1.208  -0.986   3.670  0.00  0.00    +0.153 C 
ATOM     14  C   LIG    1       -0.517  -0.158   2.547  0.00  0.00    +0.042 C 
ATOM     15  C   LIG    1       -0.442  -0.904   1.183  0.00  0.00    -0.017 C 
ATOM     16  C   LIG    1        0.496  -2.156   1.248  0.00  0.00    +0.012 C 
ATOM     17  C   LIG    1       -0.104   0.005  -0.036  0.00  0.00    +0.067 C 
ATOM     18  C   LIG    1       -0.685  -0.745  -1.272  0.00  0.00    -0.003 C 
ATOM     19  C   LIG    1       -1.101   0.198  -2.416  0.00  0.00    +0.008 C 
ATOM     20  C   LIG    1       -1.849  -1.594  -0.707  0.00  0.00    +0.008 C 
ATOM     21  C   LIG    1       -1.899  -1.237   0.787  0.00  0.00    +0.002 C 
ATOM     22  C   LIG    1       -2.604  -2.185   1.799  0.00  0.00    +0.034 C 
ENDROOT
BRANCH  17  23
ATOM     23  C   LIG    1        1.388   0.391  -0.171  0.00  0.00    +0.162 C 
ATOM     24  O   LIG    1        2.176  -0.297  -0.825  0.00  0.00    -0.295 OA
BRANCH  23  25
ATOM     25  C   LIG    1        1.809   1.704   0.511  0.00  0.00    +0.230 C 
BRANCH  25  26
ATOM     26  O   LIG    1        3.189   1.954   0.314  0.00  0.00    -0.388 OA
ATOM     27  H   LIG    1        3.426   2.759   0.780  0.00  0.00    +0.210 HD
ENDBRANCH  25  26
ENDBRANCH  23  25
ENDBRANCH  17  23
BRANCH  13  28
ATOM     28  O   LIG    1       -0.322  -1.966   4.172  0.00  0.00    -0.389 OA
ATOM     29  H   LIG    1       -0.737  -2.398   4.923  0.00  0.00    +0.210 HD
ENDBRANCH  13  28
TORSDOF 4
