REMARK  Name = DB00821
REMARK                            x       y       z     vdW  Elec       q    Type
REMARK                         _______ _______ _______ _____ _____    ______ ____
ROOT
ATOM      1 CL   LIG    1       -8.018   0.933  -0.005  0.00  0.00    -0.084 Cl
ATOM      2  C   LIG    1       -6.595  -0.045  -0.001  0.00  0.00    +0.042 A 
ATOM      3  C   LIG    1       -6.715  -1.433   0.000  0.00  0.00    +0.022 A 
ATOM      4  C   LIG    1       -5.598  -2.270   0.004  0.00  0.00    +0.027 A 
ATOM      5  C   LIG    1       -4.340  -1.655   0.005  0.00  0.00    +0.048 A 
ATOM      6  C   LIG    1       -4.195  -0.243   0.003  0.00  0.00    +0.009 A 
ATOM      7  C   LIG    1       -2.817   0.044   0.003  0.00  0.00    +0.007 A 
ATOM      8  C   LIG    1       -2.089   1.242  -0.001  0.00  0.00    +0.011 A 
ATOM      9  C   LIG    1       -0.698   1.180  -0.001  0.00  0.00    +0.005 A 
ATOM     10  C   LIG    1       -0.016  -0.041   0.008  0.00  0.00    -0.032 A 
ATOM     11  C   LIG    1       -0.723  -1.254   0.009  0.00  0.00    +0.030 A 
ATOM     12  C   LIG    1       -2.120  -1.191   0.007  0.00  0.00    +0.048 A 
ATOM     13  N   LIG    1       -3.069  -2.196   0.008  0.00  0.00    -0.354 N 
ATOM     14  H   LIG    1       -2.862  -3.184   0.010  0.00  0.00    +0.166 HD
ATOM     15  C   LIG    1       -5.342   0.567   0.000  0.00  0.00    +0.030 A 
ENDROOT
BRANCH  10  16
ATOM     16  C   LIG    1        1.519  -0.039   0.004  0.00  0.00    +0.124 C 
ATOM     17  C   LIG    1        2.095  -0.676  -1.280  0.00  0.00    +0.024 C 
BRANCH  16  18
ATOM     18  C   LIG    1        2.077  -0.691   1.286  0.00  0.00    +0.312 C 
ATOM     19  O   LIG    1        2.343  -1.888   1.383  0.00  0.00    -0.250 OA
BRANCH  18  20
ATOM     20  O   LIG    1        2.203   0.215   2.300  0.00  0.00    -0.480 OA
ATOM     21  H   LIG    1        2.533  -0.187   3.106  0.00  0.00    +0.295 HD
ENDBRANCH  18  20
ENDBRANCH  16  18
ENDBRANCH  10  16
TORSDOF 3
