REMARK  Name = DB00880
REMARK                            x       y       z     vdW  Elec       q    Type
REMARK                         _______ _______ _______ _____ _____    ______ ____
ROOT
ATOM      1 CL   LIG    1        1.140   1.902   2.232  0.00  0.00    -0.081 Cl
ATOM      2  C   LIG    1        0.133   2.523   0.969  0.00  0.00    +0.069 A 
ATOM      3  C   LIG    1       -0.112   3.898   0.945  0.00  0.00    +0.047 A 
ATOM      4  C   LIG    1       -0.928   4.451  -0.040  0.00  0.00    +0.061 A 
ATOM      5  C   LIG    1       -1.486   3.626  -1.028  0.00  0.00    +0.135 A 
ATOM      6  C   LIG    1       -1.238   2.254  -1.012  0.00  0.00    +0.061 A 
ATOM      7  S   LIG    1       -2.334   4.366  -2.428  0.00  0.00    +0.102 S 
ATOM      8  N   LIG    1       -2.891   5.888  -1.723  0.00  0.00    -0.121 NA
ATOM      9  C   LIG    1       -2.232   6.417  -0.779  0.00  0.00    +0.209 C 
ATOM     10  O   LIG    1       -1.329   4.639  -3.462  0.00  0.00    -0.146 OA
ATOM     11  O   LIG    1       -3.475   3.518  -2.790  0.00  0.00    -0.146 OA
ATOM     12  N   LIG    1       -1.242   5.822  -0.013  0.00  0.00    -0.303 N 
ATOM     13  H   LIG    1       -0.792   6.388   0.692  0.00  0.00    +0.153 HD
ATOM     14  C   LIG    1       -0.437   1.691  -0.012  0.00  0.00    +0.125 A 
ENDROOT
BRANCH  14  15
ATOM     15  S   LIG    1       -0.150  -0.085  -0.028  0.00  0.00    +0.057 S 
ATOM     16  O   LIG    1       -0.529  -0.592   1.295  0.00  0.00    -0.153 OA
ATOM     17  O   LIG    1       -0.768  -0.630  -1.242  0.00  0.00    -0.153 OA
BRANCH  15  18
ATOM     18  N   LIG    1        1.586  -0.269  -0.201  0.00  0.00    -0.203 NA
ATOM     19  H   LIG    1        1.959   0.041  -1.102  0.00  0.00    +0.144 HD
ATOM     20  H   LIG    1        2.129   0.065   0.600  0.00  0.00    +0.144 HD
ENDBRANCH  15  18
ENDBRANCH  14  15
TORSDOF 2
