REMARK  Name = DB00502
REMARK                            x       y       z     vdW  Elec       q    Type
REMARK                         _______ _______ _______ _____ _____    ______ ____
ROOT
ATOM      1  C   LIG    1       -2.892   3.305  -0.425  0.00  0.00    +0.093 C 
ATOM      2  C   LIG    1       -1.495   3.076  -1.081  0.00  0.00    +0.055 C 
ATOM      3  C   LIG    1       -0.868   1.680  -0.892  0.00  0.00    +0.087 C 
ATOM      4  N   LIG    1       -0.859   1.271   0.516  0.00  0.00    -0.302 NA
ATOM      5  C   LIG    1       -2.229   1.210   1.029  0.00  0.00    +0.087 C 
ATOM      6  C   LIG    1       -2.934   2.580   0.956  0.00  0.00    +0.055 C 
ENDROOT
BRANCH   1  11
ATOM      7 CL   LIG    1       -3.837   9.259   0.291  0.00  0.00    -0.084 Cl
ATOM      8  C   LIG    1       -3.569   7.566   0.088  0.00  0.00    +0.041 A 
ATOM      9  C   LIG    1       -4.417   6.824  -0.730  0.00  0.00    +0.020 A 
ATOM     10  C   LIG    1       -4.202   5.458  -0.892  0.00  0.00    +0.008 A 
ATOM     11  C   LIG    1       -3.138   4.820  -0.237  0.00  0.00    -0.016 A 
ATOM     12  C   LIG    1       -2.291   5.584   0.579  0.00  0.00    +0.008 A 
ATOM     13  C   LIG    1       -2.505   6.950   0.743  0.00  0.00    +0.020 A 
ENDBRANCH   1  11
BRANCH   1  14
ATOM     14  O   LIG    1       -3.827   2.624  -1.252  0.00  0.00    -0.384 OA
ATOM     15  H   LIG    1       -3.545   2.712  -2.166  0.00  0.00    +0.211 HD
ENDBRANCH   1  14
BRANCH   4  16
ATOM     16  C   LIG    1       -0.179  -0.012   0.734  0.00  0.00    +0.085 C 
BRANCH  16  17
ATOM     17  C   LIG    1        1.336   0.018   0.433  0.00  0.00    +0.023 C 
BRANCH  17  18
ATOM     18  C   LIG    1        2.115   1.085   1.235  0.00  0.00    +0.081 C 
BRANCH  18  19
ATOM     19  C   LIG    1        3.637   1.111   0.995  0.00  0.00    +0.163 C 
ATOM     20  O   LIG    1        4.138   0.329   0.183  0.00  0.00    -0.292 OA
BRANCH  19  21
ATOM     21  C   LIG    1        4.449   2.092   1.788  0.00  0.00    +0.018 A 
ATOM     22  C   LIG    1        5.844   2.111   1.636  0.00  0.00    +0.014 A 
ATOM     23  C   LIG    1        6.622   3.010   2.361  0.00  0.00    +0.039 A 
ATOM     24  C   LIG    1        6.013   3.897   3.243  0.00  0.00    +0.123 A 
ATOM     25  C   LIG    1        4.630   3.894   3.403  0.00  0.00    +0.039 A 
ATOM     26  F   LIG    1        6.769   4.769   3.947  0.00  0.00    -0.205 F 
ATOM     27  C   LIG    1        3.850   2.996   2.679  0.00  0.00    +0.014 A 
ENDBRANCH  19  21
ENDBRANCH  18  19
ENDBRANCH  17  18
ENDBRANCH  16  17
ENDBRANCH   4  16
TORSDOF 7
