REMARK  Name = DB00237
REMARK                            x       y       z     vdW  Elec       q    Type
REMARK                         _______ _______ _______ _____ _____    ______ ____
ROOT
ATOM      1  O   LIG    1       -0.201  -0.124  -2.397  0.00  0.00    -0.274 OA
ATOM      2  C   LIG    1       -0.475  -0.614  -1.302  0.00  0.00    +0.236 C 
ATOM      3  C   LIG    1       -0.047   0.009   0.081  0.00  0.00    +0.126 C 
ATOM      4  C   LIG    1       -0.619  -0.726   1.351  0.00  0.00    +0.236 C 
ATOM      5  N   LIG    1       -1.287  -1.870   1.079  0.00  0.00    -0.239 N 
ATOM      6  H   LIG    1       -1.633  -2.361   1.890  0.00  0.00    +0.159 HD
ATOM      7  C   LIG    1       -1.598  -2.444  -0.108  0.00  0.00    +0.312 C 
ATOM      8  O   LIG    1       -2.227  -3.495  -0.186  0.00  0.00    -0.252 OA
ATOM      9  O   LIG    1       -0.486  -0.326   2.507  0.00  0.00    -0.274 OA
ATOM     10  N   LIG    1       -1.173  -1.768  -1.202  0.00  0.00    -0.239 N 
ATOM     11  H   LIG    1       -1.431  -2.185  -2.084  0.00  0.00    +0.159 HD
ENDROOT
BRANCH   3  12
ATOM     12  C   LIG    1       -0.651   1.463   0.101  0.00  0.00    +0.022 C 
ATOM     13  C   LIG    1       -2.184   1.618  -0.054  0.00  0.00    +0.005 C 
ENDBRANCH   3  12
BRANCH   3  14
ATOM     14  C   LIG    1        1.542  -0.058   0.129  0.00  0.00    +0.010 C 
ATOM     15  C   LIG    1        2.186   0.879   1.184  0.00  0.00    +0.009 C 
BRANCH  14  16
ATOM     16  C   LIG    1        2.142  -1.498   0.227  0.00  0.00    +0.001 C 
ATOM     17  C   LIG    1        3.638  -1.603  -0.115  0.00  0.00    +0.004 C 
ENDBRANCH  14  16
ENDBRANCH   3  14
TORSDOF 3
