REMARK  Name = DB00650
REMARK                            x       y       z     vdW  Elec       q    Type
REMARK                         _______ _______ _______ _____ _____    ______ ____
ROOT
ATOM      1  N   UNK A  0       -4.197   0.047   0.020  0.00  0.00    -0.342 N 
ATOM      2  H   UNK A  0       -4.647  -0.838  -0.167  0.00  0.00    +0.146 HD
ENDROOT
BRANCH   1   3
ATOM      3  C   UNK A  0       -2.795   0.110  -0.045  0.00  0.00    +0.027 A 
ATOM      4  C   UNK A  0       -2.085   1.315   0.006  0.00  0.00    +0.023 A 
ATOM      5  C   UNK A  0       -0.694   1.311  -0.051  0.00  0.00    +0.015 A 
ATOM      6  C   UNK A  0        0.015   0.104  -0.161  0.00  0.00    +0.037 A 
ATOM      7  C   UNK A  0       -0.706  -1.096  -0.212  0.00  0.00    +0.015 A 
ATOM      8  C   UNK A  0       -2.097  -1.092  -0.156  0.00  0.00    +0.023 A 
BRANCH   6   9
ATOM      9  C   UNK A  0        1.529   0.073  -0.211  0.00  0.00    +0.245 C 
ATOM     10  O   UNK A  0        2.142  -0.990  -0.095  0.00  0.00    -0.270 OA
ATOM     11  N   GLU A  1        2.147   1.255  -0.407  0.00  0.00    -0.298 N 
ATOM     12  H   GLU A  1        1.582   2.087  -0.492  0.00  0.00    +0.150 HD
BRANCH  11  13
ATOM     13  CA  GLU A  1        3.597   1.478  -0.475  0.00  0.00    +0.182 C 
BRANCH  13  14
ATOM     14  C   GLU A  1        4.004   2.661   0.428  0.00  0.00    +0.325 C 
ATOM     15  OXT GLU A  1        3.225   3.420   0.971  0.00  0.00    -0.249 OA
BRANCH  14  16
ATOM     16  O   GLU A  1        5.365   2.708   0.534  0.00  0.00    -0.479 OA
ATOM     17  H   GLU A  1        5.664   3.427   1.096  0.00  0.00    +0.295 HD
ENDBRANCH  14  16
ENDBRANCH  13  14
BRANCH  13  18
ATOM     18  CB  GLU A  1        4.037   1.702  -1.951  0.00  0.00    +0.045 C 
BRANCH  18  19
ATOM     19  CG  GLU A  1        3.764   0.532  -2.926  0.00  0.00    +0.123 C 
BRANCH  19  20
ATOM     20  CD  GLU A  1        4.565  -0.737  -2.619  0.00  0.00    +0.305 C 
ATOM     21  OE1 GLU A  1        5.568  -0.774  -1.910  0.00  0.00    -0.251 OA
BRANCH  20  22
ATOM     22  OE2 GLU A  1        4.044  -1.828  -3.251  0.00  0.00    -0.481 OA
ATOM     23  HE2 GLU A  1        4.540  -2.630  -3.069  0.00  0.00    +0.295 HD
ENDBRANCH  20  22
ENDBRANCH  19  20
ENDBRANCH  18  19
ENDBRANCH  13  18
ENDBRANCH  11  13
ENDBRANCH   6   9
ENDBRANCH   1   3
BRANCH   1  24
ATOM     24  C   UNK A  0       -5.029   1.246   0.035  0.00  0.00    +0.126 C 
BRANCH  24  30
ATOM     25  N   UNK A  0       -7.247   3.035   3.736  0.00  0.00    -0.199 NA
ATOM     26  C   UNK A  0       -7.190   2.258   2.613  0.00  0.00    +0.149 A 
ATOM     27  N   UNK A  0       -7.309   2.944   1.430  0.00  0.00    -0.326 N 
ATOM     28  H   UNK A  0       -7.562   3.920   1.420  0.00  0.00    +0.148 HD
ATOM     29  C   UNK A  0       -7.413   2.238   0.155  0.00  0.00    +0.127 C 
ATOM     30  C   UNK A  0       -6.535   0.943   0.180  0.00  0.00    +0.115 C 
ATOM     31  N   UNK A  0       -6.895   0.186   1.419  0.00  0.00    -0.261 N 
ATOM     32  C   UNK A  0       -7.398  -1.075   1.286  0.00  0.00    +0.333 C 
ATOM     33  O   UNK A  0       -7.413  -1.730   0.242  0.00  0.00    -0.279 OA
ATOM     34  C   UNK A  0       -6.992   0.905   2.613  0.00  0.00    +0.142 A 
ATOM     35  C   UNK A  0       -6.715   0.273   3.925  0.00  0.00    +0.276 A 
ATOM     36  O   UNK A  0       -6.401  -0.899   4.130  0.00  0.00    -0.266 OA
ATOM     37  N   UNK A  0       -6.799   1.140   4.971  0.00  0.00    -0.294 N 
ATOM     38  H   UNK A  0       -6.619   0.742   5.880  0.00  0.00    +0.172 HD
ATOM     39  C   UNK A  0       -7.059   2.482   4.883  0.00  0.00    +0.195 A 
BRANCH  39  40
ATOM     40  N   UNK A  0       -7.103   3.235   6.075  0.00  0.00    -0.329 N 
ATOM     41  H   UNK A  0       -7.216   2.775   6.966  0.00  0.00    +0.145 HD
ATOM     42  H   UNK A  0       -7.451   4.183   6.060  0.00  0.00    +0.145 HD
ENDBRANCH  39  40
ENDBRANCH  24  30
ENDBRANCH   1  24
TORSDOF 12
