REMARK  Name = DB00177
REMARK                            x       y       z     vdW  Elec       q    Type
REMARK                         _______ _______ _______ _____ _____    ______ ____
ROOT
ATOM      1  C   LIG    1        0.320   2.038   1.069  0.00  0.00    -0.030 A 
ATOM      2  C   LIG    1       -0.438   1.910   2.234  0.00  0.00    +0.006 A 
ATOM      3  C   LIG    1       -0.052   2.580   3.391  0.00  0.00    +0.009 A 
ATOM      4  C   LIG    1        1.084   3.396   3.391  0.00  0.00    -0.017 A 
ATOM      5  C   LIG    1        1.832   3.528   2.216  0.00  0.00    +0.009 A 
ATOM      6  C   LIG    1        1.447   2.861   1.057  0.00  0.00    +0.006 A 
ENDROOT
BRANCH   4   7
ATOM      7  C   LIG    1        1.508   4.090   4.638  0.00  0.00    -0.007 A 
ATOM      8  C   LIG    1        1.865   3.286   5.729  0.00  0.00    +0.009 A 
ATOM      9  C   LIG    1        2.337   3.842   6.914  0.00  0.00    +0.001 A 
ATOM     10  C   LIG    1        2.465   5.220   7.025  0.00  0.00    +0.001 A 
ATOM     11  C   LIG    1        2.104   6.037   5.957  0.00  0.00    +0.012 A 
ATOM     12  C   LIG    1        1.603   5.500   4.758  0.00  0.00    +0.030 A 
BRANCH  12  13
ATOM     13  C   LIG    1        1.192   6.487   3.687  0.00  0.00    +0.205 A 
ATOM     14  N   LIG    1        1.646   7.733   3.642  0.00  0.00    -0.108 NA
ATOM     15  N   LIG    1        1.043   8.325   2.553  0.00  0.00    -0.049 NA
ATOM     16  N   LIG    1        0.270   7.362   2.058  0.00  0.00    -0.176 N 
ATOM     17  H   LIG    1       -0.313   7.493   1.244  0.00  0.00    +0.214 HD
ATOM     18  N   LIG    1        0.326   6.211   2.731  0.00  0.00    -0.133 NA
ENDBRANCH  12  13
ENDBRANCH   4   7
BRANCH   1  19
ATOM     19  C   LIG    1       -0.101   1.308  -0.199  0.00  0.00    +0.143 C 
BRANCH  19  20
ATOM     20  N   LIG    1        0.189  -0.142  -0.193  0.00  0.00    -0.283 N 
ATOM     21  C   LIG    1       -0.802  -1.085  -0.218  0.00  0.00    +0.217 C 
ATOM     22  O   LIG    1       -0.556  -2.293  -0.262  0.00  0.00    -0.276 OA
BRANCH  20  23
ATOM     23  C   LIG    1        1.645  -0.457  -0.302  0.00  0.00    +0.187 C 
BRANCH  23  24
ATOM     24  C   LIG    1        2.218  -1.334   0.865  0.00  0.00    +0.014 C 
ATOM     25  C   LIG    1        3.733  -1.612   0.746  0.00  0.00    +0.009 C 
ATOM     26  C   LIG    1        1.930  -0.724   2.247  0.00  0.00    +0.009 C 
ENDBRANCH  23  24
BRANCH  23  27
ATOM     27  C   LIG    1        2.034  -1.069  -1.672  0.00  0.00    +0.326 C 
ATOM     28  O   LIG    1        1.925  -2.244  -1.958  0.00  0.00    -0.249 OA
BRANCH  27  29
ATOM     29  O   LIG    1        2.498  -0.083  -2.493  0.00  0.00    -0.479 OA
ATOM     30  H   LIG    1        2.748  -0.418  -3.357  0.00  0.00    +0.295 HD
ENDBRANCH  27  29
ENDBRANCH  23  27
ENDBRANCH  20  23
BRANCH  21  31
ATOM     31  C   LIG    1       -2.283  -0.642  -0.174  0.00  0.00    +0.096 C 
BRANCH  31  32
ATOM     32  C   LIG    1       -3.304  -1.795  -0.031  0.00  0.00    +0.009 C 
BRANCH  32  33
ATOM     33  C   LIG    1       -4.759  -1.297   0.015  0.00  0.00    -0.003 C 
ATOM     34  C   LIG    1       -5.775  -2.435   0.186  0.00  0.00    +0.004 C 
ENDBRANCH  32  33
ENDBRANCH  31  32
ENDBRANCH  21  31
ENDBRANCH  19  20
ENDBRANCH   1  19
TORSDOF 11
