REMARK  Name = DB00624
REMARK                            x       y       z     vdW  Elec       q    Type
REMARK                         _______ _______ _______ _____ _____    ______ ____
ROOT
ATOM      1  C   LIG    1        1.422   0.000   0.040  0.00  0.00    +0.121 C 
ATOM      2  C   LIG    1        2.063  -0.686   1.268  0.00  0.00    +0.032 C 
ATOM      3  C   LIG    1        3.214  -1.560   0.731  0.00  0.00    +0.007 C 
ATOM      4  C   LIG    1        3.316  -1.178  -0.751  0.00  0.00    +0.001 C 
ATOM      5  C   LIG    1        4.019  -2.128  -1.759  0.00  0.00    -0.003 C 
ATOM      6  C   LIG    1        5.448  -2.483  -1.311  0.00  0.00    +0.008 C 
ATOM      7  C   LIG    1        6.104  -3.462  -2.292  0.00  0.00    +0.032 C 
ATOM      8  C   LIG    1        6.159  -2.837  -3.689  0.00  0.00    -0.060 C 
ATOM      9  C   LIG    1        7.321  -2.783  -4.381  0.00  0.00    +0.046 C 
ATOM     10  C   LIG    1        7.462  -2.263  -5.733  0.00  0.00    +0.156 C 
ATOM     11  C   LIG    1        6.154  -2.006  -6.485  0.00  0.00    +0.080 C 
ATOM     12  C   LIG    1        5.067  -1.463  -5.536  0.00  0.00    +0.019 C 
ATOM     13  O   LIG    1        8.562  -2.143  -6.267  0.00  0.00    -0.293 OA
ATOM     14  C   LIG    1        4.799  -2.329  -4.259  0.00  0.00    -0.007 C 
ATOM     15  C   LIG    1        3.962  -3.575  -4.659  0.00  0.00    +0.016 C 
ATOM     16  C   LIG    1        4.081  -1.443  -3.167  0.00  0.00    +0.002 C 
ATOM     17  C   LIG    1        2.680  -0.901  -3.610  0.00  0.00    +0.005 C 
ATOM     18  C   LIG    1        1.983  -0.054  -2.516  0.00  0.00    +0.010 C 
ATOM     19  C   LIG    1        1.870  -0.838  -1.183  0.00  0.00    -0.003 C 
ATOM     20  C   LIG    1        0.930  -2.074  -1.339  0.00  0.00    +0.014 C 
ENDROOT
BRANCH   1  21
ATOM     21  O   LIG    1        0.048   0.308   0.172  0.00  0.00    -0.391 OA
ATOM     22  H   LIG    1       -0.186   0.956  -0.496  0.00  0.00    +0.210 HD
ENDBRANCH   1  21
TORSDOF 1
