REMARK  Name = DB00875
REMARK                            x       y       z     vdW  Elec       q    Type
REMARK                         _______ _______ _______ _____ _____    ______ ____
ROOT
ATOM      1  C   LIG    1        0.281   4.928  -4.803  0.00  0.00    +0.001 A 
ATOM      2  C   LIG    1       -0.181   4.154  -3.740  0.00  0.00    +0.009 A 
ATOM      3  C   LIG    1        0.518   4.105  -2.521  0.00  0.00    -0.004 A 
ATOM      4  C   LIG    1        1.699   4.862  -2.398  0.00  0.00    +0.020 A 
ATOM      5  S   LIG    1        2.671   4.776  -0.922  0.00  0.00    -0.088 S 
ATOM      6  C   LIG    1        1.404   4.527   0.283  0.00  0.00    +0.020 A 
ATOM      7  C   LIG    1        0.233   3.819  -0.045  0.00  0.00    -0.003 A 
ATOM      8  C   LIG    1       -0.763   3.700   0.936  0.00  0.00    +0.022 A 
ATOM      9  C   LIG    1       -0.582   4.194   2.232  0.00  0.00    +0.055 A 
ATOM     10  C   LIG    1        0.619   4.834   2.551  0.00  0.00    +0.013 A 
ATOM     11  C   LIG    1        1.603   5.000   1.581  0.00  0.00    +0.016 A 
ATOM     12  C   LIG    1        2.170   5.617  -3.475  0.00  0.00    +0.015 A 
ATOM     13  C   LIG    1        0.030   3.238  -1.408  0.00  0.00    -0.012 C 
ATOM     14  C   LIG    1       -0.530   2.029  -1.671  0.00  0.00    -0.017 C 
ATOM     15  C   LIG    1        1.459   5.657  -4.672  0.00  0.00    +0.001 A 
ENDROOT
BRANCH   9  16
ATOM     16  C   LIG    1       -1.687   4.015   3.271  0.00  0.00    +0.417 C 
ATOM     17  F   LIG    1       -1.289   4.345   4.501  0.00  0.00    -0.166 F 
ATOM     18  F   LIG    1       -2.089   2.743   3.295  0.00  0.00    -0.166 F 
ATOM     19  F   LIG    1       -2.727   4.783   2.945  0.00  0.00    -0.166 F 
ENDBRANCH   9  16
BRANCH  14  20
ATOM     20  C   LIG    1       -0.980   0.938  -0.704  0.00  0.00    +0.043 C 
BRANCH  20  21
ATOM     21  C   LIG    1       -0.183  -0.379  -0.843  0.00  0.00    +0.088 C 
BRANCH  21  22
ATOM     22  N   LIG    1        1.273  -0.198  -0.777  0.00  0.00    -0.300 NA
ATOM     23  C   LIG    1        1.957  -1.458  -1.090  0.00  0.00    +0.100 C 
ATOM     24  C   LIG    1        3.491  -1.248  -1.099  0.00  0.00    +0.100 C 
ATOM     25  N   LIG    1        3.951  -0.767   0.214  0.00  0.00    -0.298 NA
ATOM     26  C   LIG    1        3.257   0.489   0.528  0.00  0.00    +0.100 C 
ATOM     27  C   LIG    1        1.726   0.272   0.541  0.00  0.00    +0.100 C 
BRANCH  25  28
ATOM     28  C   LIG    1        5.402  -0.550   0.265  0.00  0.00    +0.112 C 
BRANCH  28  29
ATOM     29  C   LIG    1        6.253  -1.833   0.142  0.00  0.00    +0.171 C 
BRANCH  29  30
ATOM     30  O   LIG    1        6.039  -2.688   1.247  0.00  0.00    -0.394 OA
ATOM     31  H   LIG    1        5.125  -2.981   1.228  0.00  0.00    +0.209 HD
ENDBRANCH  29  30
ENDBRANCH  28  29
ENDBRANCH  25  28
ENDBRANCH  21  22
ENDBRANCH  20  21
ENDBRANCH  14  20
TORSDOF 7
