REMARK  Name = DB00677
REMARK                            x       y       z     vdW  Elec       q    Type
REMARK                         _______ _______ _______ _____ _____    ______ ____
ROOT
ATOM      1  P   LIG    1       -0.510  -0.402   0.583  0.00  0.00    +0.516 P 
ATOM      2  F   LIG    1       -1.479   0.838   0.288  0.00  0.00    -0.133 F 
ATOM      3  O   LIG    1       -1.055  -1.348   1.596  0.00  0.00    -0.223 OA
ENDROOT
BRANCH   1   4
ATOM      4  O   LIG    1       -0.257  -0.993  -0.916  0.00  0.00    -0.281 OA
BRANCH   4   5
ATOM      5  C   LIG    1       -1.300  -1.638  -1.628  0.00  0.00    +0.124 C 
ATOM      6  C   LIG    1       -1.444  -0.944  -2.990  0.00  0.00    +0.038 C 
ATOM      7  C   LIG    1       -0.944  -3.126  -1.758  0.00  0.00    +0.038 C 
ENDBRANCH   4   5
ENDBRANCH   1   4
BRANCH   1   8
ATOM      8  O   LIG    1        0.885   0.352   0.958  0.00  0.00    -0.281 OA
BRANCH   8   9
ATOM      9  C   LIG    1        2.057  -0.398   1.239  0.00  0.00    +0.124 C 
ATOM     10  C   LIG    1        3.090  -0.102   0.142  0.00  0.00    +0.038 C 
ATOM     11  C   LIG    1        2.550  -0.004   2.638  0.00  0.00    +0.038 C 
ENDBRANCH   8   9
ENDBRANCH   1   8
TORSDOF 4
