REMARK  Name = DB00573
REMARK                            x       y       z     vdW  Elec       q    Type
REMARK                         _______ _______ _______ _____ _____    ______ ____
ROOT
ATOM      1  C   LIG    1        3.588   0.752   0.861  0.00  0.00    +0.129 A 
ATOM      2  C   LIG    1        4.202   0.164  -0.252  0.00  0.00    +0.046 A 
ATOM      3  C   LIG    1        3.431  -0.479  -1.219  0.00  0.00    +0.004 A 
ATOM      4  C   LIG    1        2.045  -0.545  -1.077  0.00  0.00    +0.004 A 
ATOM      5  C   LIG    1        1.416   0.032   0.033  0.00  0.00    -0.030 A 
ATOM      6  C   LIG    1        2.202   0.670   1.004  0.00  0.00    +0.050 A 
ENDROOT
BRANCH   5   7
ATOM      7  C   LIG    1       -0.107  -0.061   0.182  0.00  0.00    +0.124 C 
ATOM      8  C   LIG    1       -0.770   1.318   0.399  0.00  0.00    +0.024 C 
BRANCH   7   9
ATOM      9  C   LIG    1       -0.477  -1.067   1.289  0.00  0.00    +0.312 C 
ATOM     10  O   LIG    1       -0.555  -0.771   2.480  0.00  0.00    -0.250 OA
BRANCH   9  11
ATOM     11  O   LIG    1       -0.672  -2.323   0.789  0.00  0.00    -0.480 OA
ATOM     12  H   LIG    1       -0.888  -2.958   1.476  0.00  0.00    +0.295 HD
ENDBRANCH   9  11
ENDBRANCH   7   9
ENDBRANCH   5   7
BRANCH   1  13
ATOM     13  O   LIG    1        4.320   1.379   1.845  0.00  0.00    -0.456 OA
BRANCH  13  14
ATOM     14  C   LIG    1        5.239   2.362   1.536  0.00  0.00    +0.128 A 
ATOM     15  C   LIG    1        5.092   3.221   0.436  0.00  0.00    +0.046 A 
ATOM     16  C   LIG    1        6.040   4.210   0.191  0.00  0.00    +0.004 A 
ATOM     17  C   LIG    1        7.129   4.350   1.048  0.00  0.00    +0.000 A 
ATOM     18  C   LIG    1        7.276   3.511   2.151  0.00  0.00    +0.004 A 
ATOM     19  C   LIG    1        6.327   2.521   2.395  0.00  0.00    +0.046 A 
ENDBRANCH  13  14
ENDBRANCH   1  13
TORSDOF 5
