REMARK  Name = DB00149
REMARK                            x       y       z     vdW  Elec       q    Type
REMARK                         _______ _______ _______ _____ _____    ______ ____
ROOT
ATOM      1  CA  LEU A  1        1.510   0.018   0.202  0.00  0.00    +0.036 C 
ENDROOT
BRANCH   1   2
ATOM      2  N   LEU A  1        1.933  -1.417   0.056  0.00  0.00    +0.387 N 
ATOM      3  H1  LEU A  1        1.705  -1.916   0.903  0.00  0.00    -0.089 HD
ATOM      4  H2  LEU A  1        1.440  -1.824  -0.726  0.00  0.00    -0.089 HD
ATOM      5  H3  LEU A  1        2.928  -1.448  -0.115  0.00  0.00    -0.089 HD
ENDBRANCH   1   2
BRANCH   1   6
ATOM      6  C   LEU A  1        2.384   0.651   1.357  0.00  0.00    +0.290 C 
ATOM      7  OXT LEU A  1        1.835   1.559   2.021  0.00  0.00    -0.253 OA
BRANCH   6   8
ATOM      8  O   LEU A  1        3.576   0.265   1.428  0.00  0.00    -0.482 OA
ATOM      9  H   LEU A  1        4.167   0.439   0.722  0.00  0.00    +0.295 HD
ENDBRANCH   6   8
ENDBRANCH   1   6
BRANCH   1  10
ATOM     10  CB  LEU A  1       -0.034   0.135   0.404  0.00  0.00    -0.002 C 
BRANCH  10  11
ATOM     11  CG  LEU A  1       -0.665   1.476  -0.046  0.00  0.00    -0.018 C 
ATOM     12  CD2 LEU A  1       -2.148   1.559   0.379  0.00  0.00    +0.007 C 
ATOM     13  CD1 LEU A  1       -0.472   1.738  -1.556  0.00  0.00    +0.007 C 
ENDBRANCH  10  11
ENDBRANCH   1  10
TORSDOF 5
