REMARK  Name = DB00425
REMARK                            x       y       z     vdW  Elec       q    Type
REMARK                         _______ _______ _______ _____ _____    ______ ____
ROOT
ATOM      1  C   LIG    1        0.018  -0.074  -0.001  0.00  0.00    +0.060 A 
ATOM      2  C   LIG    1       -0.916  -1.126  -0.037  0.00  0.00    +0.093 A 
ATOM      3  N   LIG    1       -2.162  -0.687  -0.068  0.00  0.00    -0.228 NA
ATOM      4  C   LIG    1       -2.075   0.663  -0.022  0.00  0.00    +0.138 A 
ATOM      5  C   LIG    1       -3.089   1.639  -0.017  0.00  0.00    +0.047 A 
ATOM      6  C   LIG    1       -2.732   2.988   0.031  0.00  0.00    +0.008 A 
ATOM      7  C   LIG    1       -1.393   3.380   0.074  0.00  0.00    -0.034 A 
ATOM      8  C   LIG    1       -1.018   4.849   0.127  0.00  0.00    +0.045 C 
ATOM      9  C   LIG    1       -0.392   2.410   0.070  0.00  0.00    +0.096 A 
ATOM     10  N   LIG    1       -0.736   1.080   0.023  0.00  0.00    -0.302 N 
ENDROOT
BRANCH   2  11
ATOM     11  C   LIG    1       -0.642  -2.599  -0.050  0.00  0.00    +0.002 A 
ATOM     12  C   LIG    1        0.437  -3.125   0.670  0.00  0.00    +0.010 A 
ATOM     13  C   LIG    1        0.696  -4.493   0.655  0.00  0.00    +0.004 A 
ATOM     14  C   LIG    1       -0.126  -5.349  -0.079  0.00  0.00    -0.050 A 
ATOM     15  C   LIG    1        0.151  -6.841  -0.106  0.00  0.00    +0.044 C 
ATOM     16  C   LIG    1       -1.210  -4.836  -0.792  0.00  0.00    +0.004 A 
ATOM     17  C   LIG    1       -1.468  -3.468  -0.775  0.00  0.00    +0.010 A 
ENDBRANCH   2  11
BRANCH   1  18
ATOM     18  C   LIG    1        1.546  -0.046   0.005  0.00  0.00    +0.151 C 
BRANCH  18  20
ATOM     19  O   LIG    1        1.460   0.447   2.353  0.00  0.00    -0.275 OA
ATOM     20  C   LIG    1        2.191   0.250   1.379  0.00  0.00    +0.221 C 
ATOM     21  N   LIG    1        3.546   0.281   1.478  0.00  0.00    -0.307 N 
ATOM     22  C   LIG    1        4.471   0.049   0.366  0.00  0.00    +0.131 C 
ATOM     23  C   LIG    1        4.230   0.547   2.746  0.00  0.00    +0.131 C 
ENDBRANCH  18  20
ENDBRANCH   1  18
TORSDOF 3
