REMARK  Name = DB00417
REMARK                            x       y       z     vdW  Elec       q    Type
REMARK                         _______ _______ _______ _____ _____    ______ ____
ROOT
ATOM      1  S   LIG    1        1.396  -1.566   2.523  0.00  0.00    -0.127 S 
ATOM      2  C   LIG    1        2.775  -2.750   2.573  0.00  0.00    +0.042 C 
ATOM      3  C   LIG    1        2.405  -4.043   3.329  0.00  0.00    +0.025 C 
ATOM      4  C   LIG    1        3.899  -2.041   3.383  0.00  0.00    +0.025 C 
ATOM      5  CA  LIG    1        3.142  -2.969   1.061  0.00  0.00    +0.201 C 
ATOM      6  N   LIG    1        2.843  -1.700   0.382  0.00  0.00    -0.271 N 
ATOM      7  C   LIG    1        1.997  -1.589  -0.728  0.00  0.00    +0.240 C 
ATOM      8  CA  LIG    1        1.380  -0.292  -0.161  0.00  0.00    +0.190 C 
ATOM      9  O   LIG    1        1.785  -2.309  -1.703  0.00  0.00    -0.273 OA
ATOM     10  C   LIG    1        2.134  -0.642   1.148  0.00  0.00    +0.165 C 
ENDROOT
BRANCH   8  11
ATOM     11  N   LIG    1       -0.084  -0.272  -0.154  0.00  0.00    -0.299 N 
ATOM     12  H   LIG    1       -0.544  -0.862  -0.832  0.00  0.00    +0.150 HD
ATOM     13  C   LIG    1       -0.841   0.575   0.569  0.00  0.00    +0.251 C 
ATOM     14  O   LIG    1       -0.360   1.422   1.324  0.00  0.00    -0.272 OA
BRANCH  13  15
ATOM     15  C   LIG    1       -2.369   0.485   0.435  0.00  0.00    +0.324 C 
BRANCH  15  16
ATOM     16  O   LIG    1       -2.734  -0.588  -0.438  0.00  0.00    -0.483 OA
BRANCH  16  17
ATOM     17  C   LIG    1       -4.068  -0.809  -0.719  0.00  0.00    +0.121 A 
ATOM     18  C   LIG    1       -5.124  -0.040  -0.201  0.00  0.00    +0.045 A 
ATOM     19  C   LIG    1       -6.441  -0.337  -0.543  0.00  0.00    +0.004 A 
ATOM     20  C   LIG    1       -6.709  -1.401  -1.400  0.00  0.00    +0.000 A 
ATOM     21  C   LIG    1       -5.671  -2.171  -1.918  0.00  0.00    +0.004 A 
ATOM     22  C   LIG    1       -4.355  -1.873  -1.576  0.00  0.00    +0.045 A 
ENDBRANCH  16  17
ENDBRANCH  15  16
ENDBRANCH  13  15
ENDBRANCH   8  11
BRANCH   5  23
ATOM     23  C   LIG    1        4.577  -3.481   0.809  0.00  0.00    +0.327 C 
ATOM     24  OXT LIG    1        5.464  -2.814   0.317  0.00  0.00    -0.249 OA
BRANCH  23  25
ATOM     25  O   LIG    1        4.687  -4.789   1.182  0.00  0.00    -0.479 OA
ATOM     26  H   LIG    1        5.565  -5.141   1.021  0.00  0.00    +0.295 HD
ENDBRANCH  23  25
ENDBRANCH   5  23
TORSDOF 6
