REMARK  Name = DB00633
REMARK                            x       y       z     vdW  Elec       q    Type
REMARK                         _______ _______ _______ _____ _____    ______ ____
ROOT
ATOM      1  C   LIG    1        1.482  -0.038   0.118  0.00  0.00    +0.066 C 
ATOM      2  C   LIG    1        2.045  -0.573  -1.215  0.00  0.00    +0.019 C 
ENDROOT
BRANCH   1   3
ATOM      3  C   LIG    1       -0.060   0.020   0.089  0.00  0.00    -0.036 A 
ATOM      4  C   LIG    1       -0.780  -1.182   0.149  0.00  0.00    +0.004 A 
ATOM      5  C   LIG    1       -2.169  -1.190   0.127  0.00  0.00    +0.001 A 
ATOM      6  C   LIG    1       -2.866   0.008   0.040  0.00  0.00    +0.003 A 
ATOM      7  C   LIG    1       -2.183   1.224  -0.039  0.00  0.00    -0.047 A 
ATOM      8  C   LIG    1       -3.011   2.501  -0.132  0.00  0.00    +0.044 C 
ATOM      9  C   LIG    1       -0.771   1.240  -0.025  0.00  0.00    -0.044 A 
ATOM     10  C   LIG    1       -0.015   2.566  -0.145  0.00  0.00    +0.044 C 
ENDBRANCH   1   3
BRANCH   1  12
ATOM     11  N   LIG    1        2.020  -2.112   1.416  0.00  0.00    -0.240 NA
ATOM     12  C   LIG    1        2.052  -0.784   1.325  0.00  0.00    +0.066 A 
ATOM     13  C   LIG    1        2.676  -0.243   2.447  0.00  0.00    +0.107 A 
ATOM     14  N   LIG    1        3.014  -1.304   3.237  0.00  0.00    -0.351 N 
ATOM     15  H   LIG    1        3.480  -1.277   4.133  0.00  0.00    +0.166 HD
ATOM     16  C   LIG    1        2.590  -2.411   2.559  0.00  0.00    +0.196 A 
ENDBRANCH   1  12
TORSDOF 2
