REMARK  Name = DB00972
REMARK                            x       y       z     vdW  Elec       q    Type
REMARK                         _______ _______ _______ _____ _____    ______ ____
ROOT
ATOM      1  C   LIG    1       -1.781   1.429  -0.052  0.00  0.00    +0.074 A 
ATOM      2  C   LIG    1       -2.726   0.304   0.016  0.00  0.00    +0.011 A 
ATOM      3  C   LIG    1       -4.117   0.460   0.095  0.00  0.00    +0.010 A 
ATOM      4  C   LIG    1       -4.948  -0.658   0.156  0.00  0.00    +0.001 A 
ATOM      5  C   LIG    1       -4.400  -1.939   0.153  0.00  0.00    +0.001 A 
ATOM      6  C   LIG    1       -3.017  -2.108   0.102  0.00  0.00    +0.014 A 
ATOM      7  C   LIG    1       -2.172  -0.992   0.049  0.00  0.00    +0.050 A 
ATOM      8  C   LIG    1       -0.663  -1.212   0.034  0.00  0.00    +0.275 A 
ATOM      9  N   LIG    1        0.042  -0.018   0.035  0.00  0.00    -0.226 N 
ATOM     10  O   LIG    1       -0.142  -2.331   0.011  0.00  0.00    -0.266 OA
ATOM     11  N   LIG    1       -0.514   1.263   0.006  0.00  0.00    -0.172 NA
ENDROOT
BRANCH   9  12
ATOM     12  C   LIG    1        1.531  -0.067  -0.001  0.00  0.00    +0.112 C 
ATOM     13  C   LIG    1        2.047   0.367  -1.398  0.00  0.00    +0.042 C 
ATOM     14  C   LIG    1        3.534   0.127  -1.722  0.00  0.00    +0.086 C 
ATOM     15  N   LIG    1        4.535   0.648  -0.790  0.00  0.00    -0.305 NA
ATOM     16  C   LIG    1        5.840   0.849  -1.412  0.00  0.00    +0.104 C 
ATOM     17  C   LIG    1        4.584  -0.053   0.492  0.00  0.00    +0.084 C 
ATOM     18  C   LIG    1        3.589   0.411   1.573  0.00  0.00    +0.017 C 
ATOM     19  C   LIG    1        2.154   0.774   1.145  0.00  0.00    +0.028 C 
ENDBRANCH   9  12
BRANCH   1  20
ATOM     20  C   LIG    1       -2.264   2.865  -0.281  0.00  0.00    +0.093 C 
BRANCH  20  25
ATOM     21 CL   LIG    1       -4.048   3.972  -5.942  0.00  0.00    -0.084 Cl
ATOM     22  C   LIG    1       -3.538   3.657  -4.323  0.00  0.00    +0.041 A 
ATOM     23  C   LIG    1       -2.196   3.389  -4.061  0.00  0.00    +0.020 A 
ATOM     24  C   LIG    1       -1.785   3.134  -2.756  0.00  0.00    +0.005 A 
ATOM     25  C   LIG    1       -2.719   3.138  -1.713  0.00  0.00    -0.041 A 
ATOM     26  C   LIG    1       -4.061   3.419  -1.982  0.00  0.00    +0.005 A 
ATOM     27  C   LIG    1       -4.472   3.675  -3.288  0.00  0.00    +0.020 A 
ENDBRANCH  20  25
ENDBRANCH   1  20
TORSDOF 3
