REMARK  Name = DB00665
REMARK                            x       y       z     vdW  Elec       q    Type
REMARK                         _______ _______ _______ _____ _____    ______ ____
ROOT
ATOM      1  C   LIG    1        3.559  -0.699  -0.992  0.00  0.00    +0.087 A 
ATOM      2  C   LIG    1        4.265   0.060  -0.032  0.00  0.00    +0.133 A 
ATOM      3  C   LIG    1        3.554   0.799   0.919  0.00  0.00    +0.035 A 
ATOM      4  C   LIG    1        2.163   0.789   0.941  0.00  0.00    +0.026 A 
ATOM      5  C   LIG    1        1.444   0.038   0.002  0.00  0.00    +0.046 A 
ATOM      6  C   LIG    1        2.156  -0.695  -0.960  0.00  0.00    +0.038 A 
ENDROOT
BRANCH   5   7
ATOM      7  N   LIG    1        0.022   0.027   0.021  0.00  0.00    -0.192 N 
ATOM      8  C   LIG    1       -0.742   1.155   0.125  0.00  0.00    +0.314 C 
ATOM      9  N   LIG    1       -2.016   0.749   0.111  0.00  0.00    -0.285 N 
ATOM     10  H   LIG    1       -2.770   1.310   0.481  0.00  0.00    +0.151 HD
ATOM     11  C   LIG    1       -2.182  -0.664  -0.023  0.00  0.00    +0.107 C 
ATOM     12  C   LIG    1       -2.894  -1.066  -1.336  0.00  0.00    +0.041 C 
ATOM     13  C   LIG    1       -2.842  -1.307   1.220  0.00  0.00    +0.041 C 
ATOM     14  O   LIG    1       -0.366   2.327   0.101  0.00  0.00    -0.252 OA
ATOM     15  C   LIG    1       -0.729  -1.102  -0.082  0.00  0.00    +0.250 C 
ATOM     16  O   LIG    1       -0.342  -2.269  -0.188  0.00  0.00    -0.272 OA
ENDBRANCH   5   7
BRANCH   1  18
ATOM     17  F   LIG    1        5.229  -0.732  -2.664  0.00  0.00    -0.166 F 
ATOM     18  C   LIG    1        4.277  -1.480  -2.104  0.00  0.00    +0.420 C 
ATOM     19  F   LIG    1        4.838  -2.575  -1.592  0.00  0.00    -0.166 F 
ATOM     20  F   LIG    1        3.450  -1.856  -3.081  0.00  0.00    -0.166 F 
ENDBRANCH   1  18
BRANCH   2  21
ATOM     21  N   LIG    1        5.739   0.107   0.009  0.00  0.00    +0.007 N 
ATOM     22  O   LIG    1        6.273   1.211  -0.016  0.00  0.00    -0.130 OA
BRANCH  21  23
ATOM     23  O   LIG    1        6.353  -0.951   0.098  0.00  0.00    -0.396 OA
ATOM     24  H   LIG    1        7.289  -0.948   0.126  0.00  0.00    +0.329 HD
ENDBRANCH  21  23
ENDBRANCH   2  21
TORSDOF 4
