REMARK  Name = DB00758
REMARK                            x       y       z     vdW  Elec       q    Type
REMARK                         _______ _______ _______ _____ _____    ______ ____
ROOT
ATOM      1  C   LIG    1        0.026   0.114  -0.059  0.00  0.00    +0.198 C 
ENDROOT
BRANCH   1   2
ATOM      2  N   LIG    1       -0.502   1.497   0.050  0.00  0.00    -0.282 NA
ATOM      3  C   LIG    1       -0.055   2.180   1.286  0.00  0.00    +0.121 C 
ATOM      4  C   LIG    1       -0.619   3.594   1.361  0.00  0.00    -0.023 A 
ATOM      5  C   LIG    1       -0.111   4.667   2.105  0.00  0.00    +0.013 A 
ATOM      6  C   LIG    1       -0.869   5.822   1.973  0.00  0.00    +0.046 A 
ATOM      7  S   LIG    1       -2.233   5.593   0.928  0.00  0.00    -0.101 S 
ATOM      8  C   LIG    1       -1.785   3.934   0.679  0.00  0.00    -0.005 A 
ATOM      9  C   LIG    1       -2.516   2.962  -0.229  0.00  0.00    +0.058 C 
ATOM     10  C   LIG    1       -1.979   1.526   0.018  0.00  0.00    +0.091 C 
ENDBRANCH   1   2
BRANCH   1  17
ATOM     11 CL   LIG    1        0.233   1.434  -2.985  0.00  0.00    -0.083 Cl
ATOM     12  C   LIG    1       -0.402  -0.136  -2.624  0.00  0.00    +0.046 A 
ATOM     13  C   LIG    1       -0.863  -0.904  -3.696  0.00  0.00    +0.020 A 
ATOM     14  C   LIG    1       -1.374  -2.183  -3.484  0.00  0.00    +0.001 A 
ATOM     15  C   LIG    1       -1.426  -2.703  -2.194  0.00  0.00    +0.000 A 
ATOM     16  C   LIG    1       -0.970  -1.944  -1.118  0.00  0.00    +0.007 A 
ATOM     17  C   LIG    1       -0.456  -0.654  -1.310  0.00  0.00    -0.001 A 
ENDBRANCH   1  17
BRANCH   1  18
ATOM     18  C   LIG    1        1.571  -0.009  -0.045  0.00  0.00    +0.329 C 
ATOM     19  O   LIG    1        2.310   0.873  -0.492  0.00  0.00    -0.249 OA
BRANCH  18  20
ATOM     20  O   LIG    1        1.982  -1.164   0.522  0.00  0.00    -0.467 OA
ATOM     21  C   LIG    1        3.366  -1.463   0.630  0.00  0.00    +0.280 C 
ENDBRANCH  18  20
ENDBRANCH   1  18
TORSDOF 4
