REMARK  Name = DB00493
REMARK                            x       y       z     vdW  Elec       q    Type
REMARK                         _______ _______ _______ _____ _____    ______ ____
ROOT
ATOM      1  C   LIG    1       -0.317  -0.057   1.878  0.00  0.00    +0.169 C 
ATOM      2  CA  LIG    1        0.075  -0.290   0.390  0.00  0.00    +0.191 C 
ATOM      3  C   LIG    1       -0.708   1.021   0.102  0.00  0.00    +0.244 C 
ATOM      4  O   LIG    1       -0.831   1.767  -0.869  0.00  0.00    -0.273 OA
ATOM      5  S   LIG    1        0.871   0.555   3.118  0.00  0.00    -0.131 S 
ATOM      6  C   LIG    1       -0.406   1.190   4.257  0.00  0.00    +0.107 C 
ATOM      7  C   LIG    1       -1.416   2.132   3.577  0.00  0.00    +0.006 C 
ATOM      8  CA  LIG    1       -1.708   2.034   2.244  0.00  0.00    +0.125 C 
ATOM      9  N   LIG    1       -1.155   1.077   1.428  0.00  0.00    -0.249 N 
ENDROOT
BRANCH   2  10
ATOM     10  N   LIG    1        1.490  -0.182   0.032  0.00  0.00    -0.296 N 
ATOM     11  H   LIG    1        1.756   0.628  -0.508  0.00  0.00    +0.150 HD
ATOM     12  C   LIG    1        2.432  -1.091   0.342  0.00  0.00    +0.268 C 
ATOM     13  O   LIG    1        2.203  -2.133   0.961  0.00  0.00    -0.268 OA
BRANCH  12  14
ATOM     14  C   LIG    1        3.780  -0.737  -0.142  0.00  0.00    +0.190 C 
ATOM     15  N   LIG    1        4.398  -1.483  -0.992  0.00  0.00    -0.078 NA
BRANCH  14  16
ATOM     16  C   LIG    1        4.443   0.495   0.360  0.00  0.00    +0.107 A 
ATOM     17  N   LIG    1        3.928   1.202   1.360  0.00  0.00    -0.223 NA
ATOM     18  C   LIG    1        4.656   2.244   1.665  0.00  0.00    +0.156 A 
ATOM     19  S   LIG    1        6.094   2.441   0.722  0.00  0.00    -0.060 S 
ATOM     20  C   LIG    1        5.653   0.996  -0.140  0.00  0.00    +0.078 A 
BRANCH  18  21
ATOM     21  N   LIG    1        4.348   3.141   2.645  0.00  0.00    -0.338 N 
ATOM     22  H   LIG    1        4.939   3.936   2.843  0.00  0.00    +0.144 HD
ATOM     23  H   LIG    1        3.513   3.044   3.205  0.00  0.00    +0.144 HD
ENDBRANCH  18  21
ENDBRANCH  14  16
BRANCH  15  24
ATOM     24  O   LIG    1        3.685  -2.617  -1.450  0.00  0.00    -0.396 OA
ATOM     25  C   LIG    1        4.506  -3.341  -2.351  0.00  0.00    +0.313 C 
ENDBRANCH  15  24
ENDBRANCH  12  14
ENDBRANCH   2  10
BRANCH   8  26
ATOM     26  C   LIG    1       -2.636   2.959   1.610  0.00  0.00    +0.351 C 
ATOM     27  OXT LIG    1       -2.520   4.184   1.636  0.00  0.00    -0.244 OA
BRANCH  26  28
ATOM     28  O   LIG    1       -3.663   2.316   0.980  0.00  0.00    -0.476 OA
ATOM     29  H   LIG    1       -4.272   2.927   0.561  0.00  0.00    +0.295 HD
ENDBRANCH  26  28
ENDBRANCH   8  26
BRANCH   7  30
ATOM     30  C   LIG    1       -2.038   3.147   4.541  0.00  0.00    +0.266 C 
BRANCH  30  31
ATOM     31  O   LIG    1       -2.673   2.480   5.626  0.00  0.00    -0.460 OA
BRANCH  31  32
ATOM     32  C   LIG    1       -3.052   3.160   6.725  0.00  0.00    +0.304 C 
ATOM     33  O   LIG    1       -2.916   4.368   6.921  0.00  0.00    -0.251 OA
ATOM     34  C   LIG    1       -3.702   2.257   7.766  0.00  0.00    +0.136 C 
ENDBRANCH  31  32
ENDBRANCH  30  31
ENDBRANCH   7  30
TORSDOF 10
