REMARK  Name = DB00314
REMARK                            x       y       z     vdW  Elec       q    Type
REMARK                         _______ _______ _______ _____ _____    ______ ____
ROOT
ATOM      1  O   LIG    1        4.678  -4.718   0.723  0.00  0.00    -0.274 OA
ATOM      2  C   LIG    1        5.017  -4.928  -0.443  0.00  0.00    +0.237 C 
ATOM      3  C   LIG    1        6.067  -3.989  -1.097  0.00  0.00    +0.194 C 
ATOM      4  N   LIG    1        5.711  -2.604  -0.744  0.00  0.00    -0.296 N 
ATOM      5  H   LIG    1        4.817  -2.531  -0.280  0.00  0.00    +0.150 HD
ATOM      6  C   LIG    1        6.375  -1.452  -0.974  0.00  0.00    +0.260 C 
ATOM      7  C   LIG    1        5.658  -0.241  -0.544  0.00  0.00    +0.110 C 
ATOM      8  C   LIG    1        6.317   0.831  -0.036  0.00  0.00    +0.104 C 
ATOM      9  N   LIG    1        4.282  -0.193  -0.590  0.00  0.00    -0.279 N 
ATOM     10  H   LIG    1        3.828   0.294   0.169  0.00  0.00    +0.155 HD
ATOM     11  C   LIG    1        3.511  -0.461  -1.672  0.00  0.00    +0.239 C 
ATOM     12  C   LIG    1        1.968  -0.373  -1.512  0.00  0.00    +0.176 C 
ATOM     13  N   LIG    1        1.322  -1.496  -2.213  0.00  0.00    -0.301 N 
ATOM     14  H   LIG    1        0.824  -1.248  -3.056  0.00  0.00    +0.150 HD
ATOM     15  C   LIG    1        1.452  -2.796  -1.893  0.00  0.00    +0.236 C 
ATOM     16  CA  LIG    1        0.847  -3.795  -2.898  0.00  0.00    +0.184 C 
ATOM     17  N   LIG    1        1.645  -5.020  -3.001  0.00  0.00    -0.301 N 
ATOM     18  H   LIG    1        1.232  -5.845  -2.592  0.00  0.00    +0.150 HD
ATOM     19  C   LIG    1        2.886  -5.093  -3.518  0.00  0.00    +0.232 C 
ATOM     20  CA  LIG    1        3.590  -6.465  -3.412  0.00  0.00    +0.155 C 
ATOM     21  C   LIG    1        4.822  -6.457  -2.470  0.00  0.00    +0.132 C 
ATOM     22  O   LIG    1        3.476  -4.140  -4.032  0.00  0.00    -0.274 OA
ATOM     23  O   LIG    1        2.028  -3.212  -0.886  0.00  0.00    -0.274 OA
ATOM     24  O   LIG    1        3.964  -0.758  -2.782  0.00  0.00    -0.273 OA
ATOM     25  O   LIG    1        7.493  -1.410  -1.487  0.00  0.00    -0.269 OA
ATOM     26  N   LIG    1        4.523  -5.987  -1.113  0.00  0.00    -0.312 N 
ATOM     27  H   LIG    1        3.845  -6.549  -0.618  0.00  0.00    +0.149 HD
ENDROOT
BRANCH   3  28
ATOM     28  C   LIG    1        7.512  -4.464  -0.707  0.00  0.00    +0.168 C 
ATOM     29  C   LIG    1        8.502  -4.467  -1.898  0.00  0.00    +0.081 C 
ATOM     30  C   LIG    1        9.941  -4.873  -1.472  0.00  0.00    +0.246 C 
ATOM     31  N   LIG    1       10.373  -4.414  -0.150  0.00  0.00    -0.117 NA
ATOM     32  C   LIG    1        9.540  -3.889   0.663  0.00  0.00    +0.362 C 
ATOM     33  N   LIG    1        8.137  -3.803   0.440  0.00  0.00    -0.234 N 
ATOM     34  H   LIG    1        7.550  -3.634   1.243  0.00  0.00    +0.245 HD
BRANCH  32  35
ATOM     35  N   LIG    1       10.049  -3.351   1.864  0.00  0.00    -0.252 N 
ATOM     36  H   LIG    1        9.529  -2.635   2.348  0.00  0.00    +0.241 HD
ATOM     37  H   LIG    1       11.048  -3.262   1.979  0.00  0.00    +0.241 HD
ENDBRANCH  32  35
ENDBRANCH   3  28
BRANCH   8  38
ATOM     38  N   LIG    1        7.664   0.982   0.137  0.00  0.00    -0.274 N 
ATOM     39  H   LIG    1        8.243   0.217  -0.176  0.00  0.00    +0.156 HD
ATOM     40  C   LIG    1        8.264   2.055   0.681  0.00  0.00    +0.301 C 
ATOM     41  N   LIG    1        9.591   1.923   0.714  0.00  0.00    -0.313 N 
ATOM     42  H   LIG    1       10.162   2.659   1.101  0.00  0.00    +0.146 HD
ATOM     43  H   LIG    1       10.033   1.096   0.340  0.00  0.00    +0.146 HD
ATOM     44  O   LIG    1        7.693   3.058   1.111  0.00  0.00    -0.253 OA
ENDBRANCH   8  38
BRANCH  20  45
ATOM     45  N   LIG    1        3.927  -6.893  -4.781  0.00  0.00    -0.319 NA
ATOM     46  H1  LIG    1        4.049  -7.895  -4.817  0.00  0.00    +0.119 HD
ATOM     47  H2  LIG    1        4.816  -6.503  -5.061  0.00  0.00    +0.119 HD
ENDBRANCH  20  45
BRANCH  12  48
ATOM     48  C   LIG    1        1.471  -0.202  -0.041  0.00  0.00    +0.136 C 
BRANCH  48  49
ATOM     49  N   LIG    1        0.016  -0.126   0.115  0.00  0.00    -0.313 N 
ATOM     50  H   LIG    1       -0.406  -0.849   0.679  0.00  0.00    +0.149 HD
ATOM     51  C   LIG    1       -0.776   0.847  -0.367  0.00  0.00    +0.215 C 
ATOM     52  O   LIG    1       -0.358   1.820  -0.995  0.00  0.00    -0.276 OA
BRANCH  51  53
ATOM     53  C   LIG    1       -2.282   0.697  -0.104  0.00  0.00    +0.114 C 
BRANCH  53  54
ATOM     54  C   LIG    1       -3.107   0.407  -1.384  0.00  0.00    +0.059 C 
BRANCH  54  55
ATOM     55  N   LIG    1       -2.821  -0.934  -1.874  0.00  0.00    -0.327 NA
ATOM     56  H   LIG    1       -3.095  -1.613  -1.178  0.00  0.00    +0.118 HD
ATOM     57  H   LIG    1       -1.824  -1.040  -1.996  0.00  0.00    +0.118 HD
ENDBRANCH  54  55
BRANCH  54  58
ATOM     58  C   LIG    1       -4.627   0.566  -1.143  0.00  0.00    +0.020 C 
BRANCH  58  59
ATOM     59  C   LIG    1       -5.489   0.458  -2.417  0.00  0.00    +0.016 C 
BRANCH  59  60
ATOM     60  C   LIG    1       -6.981   0.706  -2.140  0.00  0.00    +0.078 C 
BRANCH  60  61
ATOM     61  N   LIG    1       -7.747   0.606  -3.368  0.00  0.00    -0.330 NA
ATOM     62  H   LIG    1       -8.726   0.760  -3.173  0.00  0.00    +0.118 HD
ATOM     63  H   LIG    1       -7.673  -0.331  -3.739  0.00  0.00    +0.118 HD
ENDBRANCH  60  61
ENDBRANCH  59  60
ENDBRANCH  58  59
ENDBRANCH  54  58
ENDBRANCH  53  54
ENDBRANCH  51  53
ENDBRANCH  48  49
ENDBRANCH  12  48
BRANCH  16  64
ATOM     64  C   LIG    1       -0.614  -4.171  -2.569  0.00  0.00    +0.187 C 
BRANCH  64  65
ATOM     65  O   LIG    1       -0.781  -4.630  -1.241  0.00  0.00    -0.393 OA
ATOM     66  H   LIG    1       -1.706  -4.855  -1.109  0.00  0.00    +0.209 HD
ENDBRANCH  64  65
ENDBRANCH  16  64
TORSDOF 15
