REMARK  Name = DB00392
REMARK                            x       y       z     vdW  Elec       q    Type
REMARK                         _______ _______ _______ _____ _____    ______ ____
ROOT
ATOM      1  S   LIG    1        6.215   1.244  -2.436  0.00  0.00    -0.086 S 
ATOM      2  C   LIG    1        5.643   1.985  -0.950  0.00  0.00    +0.034 A 
ATOM      3  C   LIG    1        6.556   2.741  -0.210  0.00  0.00    +0.017 A 
ATOM      4  C   LIG    1        6.162   3.377   0.962  0.00  0.00    +0.001 A 
ATOM      5  C   LIG    1        4.848   3.262   1.395  0.00  0.00    +0.002 A 
ATOM      6  C   LIG    1        3.931   2.527   0.647  0.00  0.00    +0.024 A 
ATOM      7  C   LIG    1        4.285   1.904  -0.567  0.00  0.00    +0.048 A 
ATOM      8  N   LIG    1        3.385   1.081  -1.284  0.00  0.00    -0.297 N 
ATOM      9  C   LIG    1        3.817  -0.061  -1.998  0.00  0.00    +0.048 A 
ATOM     10  C   LIG    1        3.029  -1.227  -2.098  0.00  0.00    +0.024 A 
ATOM     11  C   LIG    1        3.495  -2.382  -2.721  0.00  0.00    +0.002 A 
ATOM     12  C   LIG    1        4.780  -2.415  -3.247  0.00  0.00    +0.001 A 
ATOM     13  C   LIG    1        5.596  -1.295  -3.136  0.00  0.00    +0.017 A 
ATOM     14  C   LIG    1        5.139  -0.142  -2.492  0.00  0.00    +0.034 A 
ENDROOT
BRANCH   8  15
ATOM     15  C   LIG    1        1.931   1.221  -1.033  0.00  0.00    +0.129 C 
BRANCH  15  16
ATOM     16  C   LIG    1        1.296   0.593   0.270  0.00  0.00    +0.071 C 
ATOM     17  C   LIG    1        2.182  -0.469   0.986  0.00  0.00    +0.026 C 
BRANCH  16  18
ATOM     18  N   LIG    1       -0.078   0.114  -0.033  0.00  0.00    -0.299 NA
BRANCH  18  19
ATOM     19  C   LIG    1       -0.706  -0.683   1.040  0.00  0.00    +0.081 C 
ATOM     20  C   LIG    1       -2.056  -1.319   0.659  0.00  0.00    +0.020 C 
ENDBRANCH  18  19
BRANCH  18  21
ATOM     21  C   LIG    1       -0.962   1.212  -0.474  0.00  0.00    +0.081 C 
ATOM     22  C   LIG    1       -1.614   0.883  -1.827  0.00  0.00    +0.020 C 
ENDBRANCH  18  21
ENDBRANCH  16  18
ENDBRANCH  15  16
ENDBRANCH   8  15
TORSDOF 5
