REMARK  Name = DB00144
REMARK                            x       y       z     vdW  Elec       q    Type
REMARK                         _______ _______ _______ _____ _____    ______ ____
ROOT
ATOM      1  C   UNK    1       -0.565   0.381   0.217  0.00  0.00    +0.240 C 
ENDROOT
BRANCH   1   2
ATOM      2  C   UNK    1       -0.922   1.761   0.816  0.00  0.00    +0.220 C 
BRANCH   2   3
ATOM      3  O   UNK    1       -0.489   2.850   0.013  0.00  0.00    -0.283 OA
BRANCH   3   4
ATOM      4  P   UNK    1       -1.389   3.241  -1.413  0.00  0.00    +0.475 P 
ATOM      5  O   UNK    1       -2.410   2.159  -1.689  0.00  0.00    -0.227 OA
BRANCH   4   6
ATOM      6  O   UNK    1       -1.748   4.710  -1.344  0.00  0.00    -0.302 OA
ATOM      7  H   UNK    1       -2.254   4.957  -2.133  0.00  0.00    +0.222 HD
ENDBRANCH   4   6
BRANCH   4   8
ATOM      8  O   UNK    1       -0.083   3.042  -2.525  0.00  0.00    -0.288 OA
BRANCH   8   9
ATOM      9  C   UNK    1        0.877   4.086  -2.589  0.00  0.00    +0.167 C 
BRANCH   9  10
ATOM     10  C   UNK    1        2.061   3.688  -3.496  0.00  0.00    +0.062 C 
BRANCH  10  11
ATOM     11  N   UNK    1        1.533   3.475  -4.925  0.00  0.00    +0.388 N 
ATOM     12  H   UNK    1        0.850   2.730  -4.932  0.00  0.00    -0.089 HD
ATOM     13  H   UNK    1        1.093   4.320  -5.258  0.00  0.00    -0.089 HD
ATOM     14  H   UNK    1        2.294   3.240  -5.545  0.00  0.00    -0.089 HD
ENDBRANCH  10  11
BRANCH  10  15
ATOM     15  C   UNK    1        2.782   2.404  -3.015  0.00  0.00    +0.292 C 
ATOM     16  O   UNK    1        3.576   2.557  -2.062  0.00  0.00    -0.253 OA
BRANCH  15  17
ATOM     17  O   UNK    1        2.551   1.300  -3.563  0.00  0.00    -0.482 OA
ATOM     18  H   UNK    1        1.943   1.249  -4.275  0.00  0.00    +0.295 HD
ENDBRANCH  15  17
ENDBRANCH  10  15
ENDBRANCH   9  10
ENDBRANCH   8   9
ENDBRANCH   4   8
ENDBRANCH   3   4
ENDBRANCH   2   3
ENDBRANCH   1   2
BRANCH   1  19
ATOM     19  O   UNK    1       -0.925  -0.607   1.185  0.00  0.00    -0.456 OA
BRANCH  19  20
ATOM     20  C   UNK    1       -1.090  -1.911   0.861  0.00  0.00    +0.308 C 
ATOM     21  O   UNK    1       -0.962  -2.402  -0.263  0.00  0.00    -0.251 OA
BRANCH  20  22
ATOM     22  C   UNK    1       -1.437  -2.770   2.080  0.00  0.00    +0.120 C 
BRANCH  22  23
ATOM     23  C   UNK    1       -0.590  -4.053   2.186  0.00  0.00    +0.011 C 
BRANCH  23  24
ATOM     24  C   UNK    1       -0.950  -4.897   3.421  0.00  0.00    +0.001 C 
BRANCH  24  25
ATOM     25  C   UNK    1       -0.055  -6.139   3.575  0.00  0.00    +0.000 C 
BRANCH  25  26
ATOM     26  C   UNK    1       -0.418  -6.996   4.804  0.00  0.00    +0.000 C 
BRANCH  26  27
ATOM     27  C   UNK    1        0.548  -8.168   5.066  0.00  0.00    +0.000 C 
BRANCH  27  28
ATOM     28  C   UNK    1        0.547  -9.252   3.972  0.00  0.00    -0.000 C 
BRANCH  28  29
ATOM     29  C   UNK    1        1.498 -10.421   4.287  0.00  0.00    -0.000 C 
BRANCH  29  30
ATOM     30  C   UNK    1        1.514 -11.493   3.183  0.00  0.00    -0.000 C 
BRANCH  30  31
ATOM     31  C   UNK    1        2.509 -12.632   3.467  0.00  0.00    -0.000 C 
BRANCH  31  32
ATOM     32  C   UNK    1        2.523 -13.704   2.363  0.00  0.00    -0.000 C 
BRANCH  32  33
ATOM     33  C   UNK    1        3.556 -14.815   2.620  0.00  0.00    -0.000 C 
BRANCH  33  34
ATOM     34  C   UNK    1        3.570 -15.887   1.515  0.00  0.00    -0.000 C 
BRANCH  34  35
ATOM     35  C   UNK    1        4.631 -16.979   1.754  0.00  0.00    -0.000 C 
BRANCH  35  36
ATOM     36  C   UNK    1        4.614 -18.119   0.717  0.00  0.00    -0.000 C 
BRANCH  36  37
ATOM     37  C   UNK    1        5.004 -17.688  -0.710  0.00  0.00    -0.003 C 
ATOM     38  C   UNK    1        5.063 -18.865  -1.692  0.00  0.00    +0.004 C 
ENDBRANCH  36  37
ENDBRANCH  35  36
ENDBRANCH  34  35
ENDBRANCH  33  34
ENDBRANCH  32  33
ENDBRANCH  31  32
ENDBRANCH  30  31
ENDBRANCH  29  30
ENDBRANCH  28  29
ENDBRANCH  27  28
ENDBRANCH  26  27
ENDBRANCH  25  26
ENDBRANCH  24  25
ENDBRANCH  23  24
ENDBRANCH  22  23
ENDBRANCH  20  22
ENDBRANCH  19  20
ENDBRANCH   1  19
BRANCH   1  39
ATOM     39  C   UNK    1        0.919   0.243  -0.202  0.00  0.00    +0.279 C 
BRANCH  39  40
ATOM     40  O   UNK    1        1.781   0.708   0.828  0.00  0.00    -0.461 OA
BRANCH  40  41
ATOM     41  C   UNK    1        3.115   0.562   0.735  0.00  0.00    +0.307 C 
ATOM     42  O   UNK    1        3.724  -0.075  -0.126  0.00  0.00    -0.251 OA
BRANCH  41  43
ATOM     43  C   UNK    1        3.853   1.311   1.847  0.00  0.00    +0.120 C 
BRANCH  43  44
ATOM     44  C   UNK    1        4.086   2.807   1.536  0.00  0.00    +0.011 C 
BRANCH  44  45
ATOM     45  C   UNK    1        2.799   3.643   1.347  0.00  0.00    +0.001 C 
BRANCH  45  46
ATOM     46  C   UNK    1        3.032   5.162   1.265  0.00  0.00    +0.000 C 
BRANCH  46  47
ATOM     47  C   UNK    1        3.854   5.617   0.041  0.00  0.00    +0.000 C 
BRANCH  47  48
ATOM     48  C   UNK    1        3.940   7.148  -0.126  0.00  0.00    +0.000 C 
BRANCH  48  49
ATOM     49  C   UNK    1        4.695   7.866   1.009  0.00  0.00    -0.000 C 
BRANCH  49  50
ATOM     50  C   UNK    1        4.781   9.390   0.810  0.00  0.00    -0.000 C 
BRANCH  50  51
ATOM     51  C   UNK    1        5.500  10.100   1.971  0.00  0.00    -0.000 C 
BRANCH  51  52
ATOM     52  C   UNK    1        5.545  11.630   1.810  0.00  0.00    -0.000 C 
BRANCH  52  53
ATOM     53  C   UNK    1        6.232  12.334   2.994  0.00  0.00    -0.000 C 
BRANCH  53  54
ATOM     54  C   UNK    1        6.250  13.867   2.857  0.00  0.00    -0.000 C 
BRANCH  54  55
ATOM     55  C   UNK    1        6.915  14.568   4.056  0.00  0.00    -0.000 C 
BRANCH  55  56
ATOM     56  C   UNK    1        6.928  16.103   3.923  0.00  0.00    -0.000 C 
BRANCH  56  57
ATOM     57  C   UNK    1        7.636  16.836   5.080  0.00  0.00    -0.000 C 
BRANCH  57  58
ATOM     58  C   UNK    1        6.911  16.733   6.436  0.00  0.00    -0.003 C 
ATOM     59  C   UNK    1        7.600  17.540   7.544  0.00  0.00    +0.004 C 
ENDBRANCH  57  58
ENDBRANCH  56  57
ENDBRANCH  55  56
ENDBRANCH  54  55
ENDBRANCH  53  54
ENDBRANCH  52  53
ENDBRANCH  51  52
ENDBRANCH  50  51
ENDBRANCH  49  50
ENDBRANCH  48  49
ENDBRANCH  47  48
ENDBRANCH  46  47
ENDBRANCH  45  46
ENDBRANCH  44  45
ENDBRANCH  43  44
ENDBRANCH  41  43
ENDBRANCH  40  41
ENDBRANCH  39  40
ENDBRANCH   1  39
TORSDOF 47
