REMARK  Name = DB00413
REMARK                            x       y       z     vdW  Elec       q    Type
REMARK                         _______ _______ _______ _____ _____    ______ ____
ROOT
ATOM      1  C   LIG    1       -0.922   1.802   1.019  0.00  0.00    +0.063 C 
ATOM      2  C   LIG    1       -1.802   3.043   1.011  0.00  0.00    +0.016 A 
ATOM      3  S   LIG    1       -2.297   3.937   2.419  0.00  0.00    -0.057 S 
ATOM      4  C   LIG    1       -3.236   4.952   1.375  0.00  0.00    +0.156 A 
ATOM      5  N   LIG    1       -3.188   4.644   0.105  0.00  0.00    -0.230 NA
ATOM      6  C   LIG    1       -2.409   3.601  -0.120  0.00  0.00    +0.054 A 
ATOM      7  C   LIG    1       -2.186   3.059  -1.524  0.00  0.00    +0.058 C 
ATOM      8  C   LIG    1       -1.667   1.606  -1.420  0.00  0.00    +0.025 C 
ATOM      9  C   LIG    1       -0.480   1.459  -0.435  0.00  0.00    +0.059 C 
ENDROOT
BRANCH   4  10
ATOM     10  N   LIG    1       -3.958   5.985   1.897  0.00  0.00    -0.338 N 
ATOM     11  H   LIG    1       -3.961   6.185   2.887  0.00  0.00    +0.144 HD
ATOM     12  H   LIG    1       -4.514   6.588   1.308  0.00  0.00    +0.144 HD
ENDBRANCH   4  10
BRANCH   9  13
ATOM     13  N   LIG    1        0.134   0.138  -0.552  0.00  0.00    -0.313 NA
ATOM     14  H   LIG    1        0.242  -0.110  -1.525  0.00  0.00    +0.122 HD
BRANCH  13  15
ATOM     15  C   LIG    1        1.409   0.020   0.145  0.00  0.00    +0.081 C 
BRANCH  15  16
ATOM     16  C   LIG    1        2.021  -1.364  -0.123  0.00  0.00    +0.012 C 
ATOM     17  C   LIG    1        3.372  -1.557   0.579  0.00  0.00    +0.005 C 
ENDBRANCH  15  16
ENDBRANCH  13  15
ENDBRANCH   9  13
TORSDOF 4
