REMARK  Name = DB00275
REMARK                            x       y       z     vdW  Elec       q    Type
REMARK                         _______ _______ _______ _____ _____    ______ ____
ROOT
ATOM      1  C   LIG    1       -1.902   3.228  -0.974  0.00  0.00    +0.009 A 
ATOM      2  C   LIG    1       -1.512   4.074   0.069  0.00  0.00    -0.017 A 
ATOM      3  C   LIG    1       -0.692   3.574   1.085  0.00  0.00    +0.009 A 
ATOM      4  C   LIG    1       -0.238   2.259   1.040  0.00  0.00    +0.006 A 
ATOM      5  C   LIG    1       -0.605   1.429  -0.022  0.00  0.00    -0.028 A 
ATOM      6  C   LIG    1       -1.453   1.912  -1.021  0.00  0.00    +0.006 A 
ENDROOT
BRANCH   2   7
ATOM      7  C   LIG    1       -1.958   5.494   0.093  0.00  0.00    -0.007 A 
ATOM      8  C   LIG    1       -1.659   6.402  -0.948  0.00  0.00    +0.028 A 
ATOM      9  C   LIG    1       -2.153   7.712  -0.880  0.00  0.00    +0.012 A 
ATOM     10  C   LIG    1       -2.918   8.132   0.205  0.00  0.00    +0.001 A 
ATOM     11  C   LIG    1       -3.198   7.245   1.240  0.00  0.00    +0.001 A 
ATOM     12  C   LIG    1       -2.719   5.938   1.183  0.00  0.00    +0.009 A 
BRANCH   8  13
ATOM     13  C   LIG    1       -0.806   6.056  -2.130  0.00  0.00    +0.180 A 
ATOM     14  N   LIG    1       -1.052   6.455  -3.422  0.00  0.00    -0.239 N 
ATOM     15  H   LIG    1       -1.829   7.021  -3.732  0.00  0.00    +0.192 HD
ATOM     16  N   LIG    1       -0.118   5.984  -4.250  0.00  0.00    -0.046 NA
ATOM     17  N   LIG    1        0.735   5.273  -3.428  0.00  0.00    -0.023 NA
ATOM     18  N   LIG    1        0.293   5.335  -2.109  0.00  0.00    -0.108 NA
ENDBRANCH   8  13
ENDBRANCH   2   7
BRANCH   5  19
ATOM     19  C   LIG    1       -0.065   0.006  -0.108  0.00  0.00    +0.159 C 
BRANCH  19  20
ATOM     20  N   LIG    1        1.405  -0.056  -0.139  0.00  0.00    -0.318 N 
ATOM     21  C   LIG    1        2.267   0.384  -1.137  0.00  0.00    +0.153 A 
ATOM     22  C   LIG    1        3.564   0.165  -0.632  0.00  0.00    +0.105 A 
ATOM     23  N   LIG    1        3.492  -0.349   0.587  0.00  0.00    -0.233 NA
ATOM     24  C   LIG    1        2.224  -0.491   0.881  0.00  0.00    +0.111 A 
BRANCH  22  25
ATOM     25  C   LIG    1        4.950   0.471  -1.234  0.00  0.00    +0.104 C 
ATOM     26  C   LIG    1        6.054  -0.494  -0.737  0.00  0.00    +0.048 C 
ATOM     27  C   LIG    1        5.350   1.934  -0.960  0.00  0.00    +0.048 C 
BRANCH  25  28
ATOM     28  O   LIG    1        4.917   0.288  -2.637  0.00  0.00    -0.383 OA
ATOM     29  H   LIG    1        4.233   0.859  -2.998  0.00  0.00    +0.211 HD
ENDBRANCH  25  28
ENDBRANCH  22  25
BRANCH  21  30
ATOM     30  C   LIG    1        1.875   0.999  -2.386  0.00  0.00    +0.355 C 
ATOM     31  O   LIG    1        2.484   1.939  -2.892  0.00  0.00    -0.243 OA
BRANCH  30  32
ATOM     32  O   LIG    1        0.789   0.403  -2.957  0.00  0.00    -0.476 OA
ATOM     33  H   LIG    1        0.555   0.808  -3.795  0.00  0.00    +0.295 HD
ENDBRANCH  30  32
ENDBRANCH  21  30
BRANCH  24  34
ATOM     34  C   LIG    1        1.704  -1.052   2.202  0.00  0.00    +0.074 C 
BRANCH  34  35
ATOM     35  C   LIG    1        2.803  -1.467   3.205  0.00  0.00    +0.004 C 
ATOM     36  C   LIG    1        2.236  -2.028   4.516  0.00  0.00    +0.004 C 
ENDBRANCH  34  35
ENDBRANCH  24  34
ENDBRANCH  19  20
ENDBRANCH   5  19
TORSDOF 10
