REMARK  Name = DB00161
REMARK                            x       y       z     vdW  Elec       q    Type
REMARK                         _______ _______ _______ _____ _____    ______ ____
ROOT
ATOM      1  CA  VAL A  1       -0.061   0.041  -0.008  0.00  0.00    +0.163 C 
ENDROOT
BRANCH   1   2
ATOM      2  CB  VAL A  1        1.500  -0.029  -0.039  0.00  0.00    +0.010 C 
ATOM      3  CG2 VAL A  1        2.076  -1.463  -0.005  0.00  0.00    +0.009 C 
ATOM      4  CG1 VAL A  1        2.075   0.719  -1.257  0.00  0.00    +0.009 C 
ENDBRANCH   1   2
BRANCH   1   5
ATOM      5  N   VAL A  1       -0.600   1.411   0.051  0.00  0.00    -0.318 NA
ATOM      6  H1  VAL A  1       -0.266   1.902   0.869  0.00  0.00    +0.119 HD
ATOM      7  H2  VAL A  1       -1.610   1.410   0.087  0.00  0.00    +0.119 HD
ENDBRANCH   1   5
BRANCH   1   9
ATOM      8  O   VAL A  1       -0.391  -0.305   2.391  0.00  0.00    -0.249 OA
ATOM      9  C   VAL A  1       -0.595  -0.696   1.241  0.00  0.00    +0.322 C 
BRANCH   9  10
ATOM     10  OXT VAL A  1       -1.299  -1.814   0.899  0.00  0.00    -0.480 OA
ATOM     11  HXT VAL A  1       -1.638  -2.280   1.666  0.00  0.00    +0.295 HD
ENDBRANCH   9  10
ENDBRANCH   1   9
TORSDOF 4
