REMARK  Name = DB00281
REMARK                            x       y       z     vdW  Elec       q    Type
REMARK                         _______ _______ _______ _____ _____    ______ ____
ROOT
ATOM      1  N   LIG    1        0.281   2.404  -0.558  0.00  0.00    -0.284 N 
ATOM      2  H   LIG    1        1.278   2.243  -0.523  0.00  0.00    +0.155 HD
ATOM      3  C   LIG    1       -0.521   1.500   0.048  0.00  0.00    +0.231 C 
ATOM      4  O   LIG    1       -1.734   1.662   0.190  0.00  0.00    -0.274 OA
ENDROOT
BRANCH   1   8
ATOM      5  C   LIG    1       -1.410   4.852  -2.813  0.00  0.00    +0.005 A 
ATOM      6  C   LIG    1       -1.044   3.625  -2.251  0.00  0.00    -0.029 A 
ATOM      7  C   LIG    1       -1.602   2.357  -2.889  0.00  0.00    +0.045 C 
ATOM      8  C   LIG    1       -0.133   3.603  -1.168  0.00  0.00    +0.039 A 
ATOM      9  C   LIG    1        0.425   4.810  -0.701  0.00  0.00    -0.029 A 
ATOM     10  C   LIG    1        1.432   4.837   0.444  0.00  0.00    +0.045 C 
ATOM     11  C   LIG    1        0.041   6.021  -1.284  0.00  0.00    +0.005 A 
ATOM     12  C   LIG    1       -0.877   6.043  -2.329  0.00  0.00    +0.001 A 
ENDBRANCH   1   8
BRANCH   3  13
ATOM     13  C   LIG    1        0.137   0.267   0.711  0.00  0.00    +0.180 C 
BRANCH  13  14
ATOM     14  N   LIG    1        1.428  -0.096   0.108  0.00  0.00    -0.295 NA
BRANCH  14  15
ATOM     15  C   LIG    1        2.241  -0.932   1.005  0.00  0.00    +0.081 C 
ATOM     16  C   LIG    1        2.822  -0.144   2.195  0.00  0.00    +0.020 C 
ENDBRANCH  14  15
BRANCH  14  17
ATOM     17  C   LIG    1        1.240  -0.772  -1.187  0.00  0.00    +0.081 C 
ATOM     18  C   LIG    1        2.502  -0.738  -2.069  0.00  0.00    +0.020 C 
ENDBRANCH  14  17
ENDBRANCH  13  14
ENDBRANCH   3  13
TORSDOF 5
