REMARK  Name = DB00911
REMARK                            x       y       z     vdW  Elec       q    Type
REMARK                         _______ _______ _______ _____ _____    ______ ____
ROOT
ATOM      1  N   LIG    1        2.037  -1.398  -0.012  0.00  0.00    -0.308 N 
ATOM      2  C   LIG    1        2.268  -2.228  -1.101  0.00  0.00    +0.211 A 
ATOM      3  C   LIG    1        2.725  -3.418  -0.548  0.00  0.00    +0.164 A 
ATOM      4  N   LIG    1        2.768  -3.378   0.768  0.00  0.00    -0.239 NA
ATOM      5  C   LIG    1        2.351  -2.176   1.088  0.00  0.00    +0.108 A 
ATOM      6  C   LIG    1        2.231  -1.701   2.523  0.00  0.00    +0.086 C 
ENDROOT
BRANCH   2   7
ATOM      7  N   LIG    1        2.059  -1.875  -2.478  0.00  0.00    +0.025 N 
ATOM      8  O   LIG    1        1.548  -0.799  -2.765  0.00  0.00    -0.128 OA
BRANCH   7   9
ATOM      9  O   LIG    1        2.405  -2.706  -3.311  0.00  0.00    -0.395 OA
ATOM     10  H   LIG    1        2.292  -2.529  -4.224  0.00  0.00    +0.329 HD
ENDBRANCH   7   9
ENDBRANCH   2   7
BRANCH   1  11
ATOM     11  C   LIG    1        1.539  -0.021   0.024  0.00  0.00    +0.147 C 
BRANCH  11  12
ATOM     12  C   LIG    1        0.001  -0.001  -0.038  0.00  0.00    +0.187 C 
BRANCH  12  13
ATOM     13  S   LIG    1       -0.612   1.783   0.027  0.00  0.00    -0.030 S 
ATOM     14  O   LIG    1       -0.157   2.465  -1.190  0.00  0.00    -0.174 OA
ATOM     15  O   LIG    1       -0.265   2.333   1.342  0.00  0.00    -0.174 OA
BRANCH  13  16
ATOM     16  C   LIG    1       -2.492   1.613  -0.062  0.00  0.00    +0.162 C 
ATOM     17  C   LIG    1       -3.152   2.996  -0.018  0.00  0.00    +0.028 C 
ENDBRANCH  13  16
ENDBRANCH  12  13
ENDBRANCH  11  12
ENDBRANCH   1  11
TORSDOF 6
