REMARK  Name = DB00584
REMARK                            x       y       z     vdW  Elec       q    Type
REMARK                         _______ _______ _______ _____ _____    ______ ____
ROOT
ATOM      1  N   ALA A  1        0.038   0.083  -0.743  0.00  0.00    -0.294 NA
ATOM      2  H   ALA A  1       -0.115   0.088  -1.742  0.00  0.00    +0.123 HD
ENDROOT
BRANCH   1   3
ATOM      3  CA  ALA A  1       -0.341   1.421  -0.240  0.00  0.00    +0.138 C 
ATOM      4  CB  ALA A  1       -0.078   2.537  -1.275  0.00  0.00    +0.034 C 
BRANCH   3  10
ATOM      5  N   ALA A  1       -2.235   1.269   1.392  0.00  0.00    -0.287 N 
ATOM      6  CD  ALA A  1       -1.341   1.090   2.537  0.00  0.00    +0.109 C 
ATOM      7  CG  ALA A  1       -2.227   0.518   3.633  0.00  0.00    +0.021 C 
ATOM      8  CB  ALA A  1       -3.563   1.182   3.362  0.00  0.00    +0.035 C 
ATOM      9  CA  ALA A  1       -3.651   1.285   1.827  0.00  0.00    +0.184 C 
ATOM     10  C   ALA A  1       -1.855   1.327   0.089  0.00  0.00    +0.233 C 
ATOM     11  O   ALA A  1       -2.661   1.298  -0.846  0.00  0.00    -0.274 OA
BRANCH   9  12
ATOM     12  C   ALA A  1       -4.453   2.533   1.398  0.00  0.00    +0.325 C 
ATOM     13  O   ALA A  1       -3.956   3.599   1.093  0.00  0.00    -0.249 OA
BRANCH  12  14
ATOM     14  OXT ALA A  1       -5.787   2.257   1.470  0.00  0.00    -0.479 OA
ATOM     15  HXT ALA A  1       -6.329   3.010   1.223  0.00  0.00    +0.295 HD
ENDBRANCH  12  14
ENDBRANCH   9  12
ENDBRANCH   3  10
ENDBRANCH   1   3
BRANCH   1  16
ATOM     16  C   UNK A  0        1.475  -0.235  -0.555  0.00  0.00    +0.164 C 
BRANCH  16  17
ATOM     17  C   UNK A  0        1.966  -1.147  -1.677  0.00  0.00    +0.324 C 
ATOM     18  O   UNK A  0        1.251  -1.565  -2.594  0.00  0.00    -0.249 OA
BRANCH  17  19
ATOM     19  O   UNK A  0        3.291  -1.402  -1.562  0.00  0.00    -0.464 OA
BRANCH  19  20
ATOM     20  C   UNK A  0        3.961  -2.228  -2.505  0.00  0.00    +0.229 C 
ATOM     21  C   UNK A  0        5.415  -2.422  -2.065  0.00  0.00    +0.048 C 
ENDBRANCH  19  20
ENDBRANCH  17  19
ENDBRANCH  16  17
BRANCH  16  22
ATOM     22  C   UNK A  0        1.805  -0.801   0.855  0.00  0.00    +0.035 C 
BRANCH  22  23
ATOM     23  C   UNK A  0        1.019  -2.067   1.264  0.00  0.00    +0.037 C 
BRANCH  23  24
ATOM     24  C   UNK A  0        1.434  -2.602   2.626  0.00  0.00    -0.047 A 
ATOM     25  C   UNK A  0        0.759  -2.189   3.778  0.00  0.00    +0.003 A 
ATOM     26  C   UNK A  0        1.143  -2.678   5.023  0.00  0.00    +0.000 A 
ATOM     27  C   UNK A  0        2.201  -3.580   5.113  0.00  0.00    +0.000 A 
ATOM     28  C   UNK A  0        2.879  -3.997   3.969  0.00  0.00    +0.000 A 
ATOM     29  C   UNK A  0        2.496  -3.506   2.723  0.00  0.00    +0.003 A 
ENDBRANCH  23  24
ENDBRANCH  22  23
ENDBRANCH  16  22
ENDBRANCH   1  16
TORSDOF 11
