REMARK  Name = DB00199
REMARK                            x       y       z     vdW  Elec       q    Type
REMARK                         _______ _______ _______ _____ _____    ______ ____
ROOT
ATOM      1  C   LIG    1        1.378  -0.109   0.120  0.00  0.00    +0.158 C 
ATOM      2  C   LIG    1        1.870  -0.718   1.510  0.00  0.00    +0.090 C 
ATOM      3  C   LIG    1        3.394  -0.461   1.671  0.00  0.00    +0.044 C 
ATOM      4  C   LIG    1        1.148  -0.234   2.828  0.00  0.00    +0.048 C 
ATOM      5  C   LIG    1       -0.205  -0.809   3.413  0.00  0.00    +0.055 C 
ATOM      6  C   LIG    1       -1.379   0.187   3.412  0.00  0.00    +0.015 C 
ATOM      7  C   LIG    1       -0.596  -2.287   3.140  0.00  0.00    +0.142 C 
ATOM      8  C   LIG    1       -1.846  -2.656   2.289  0.00  0.00    +0.084 C 
ATOM      9  C   LIG    1       -2.645  -3.789   2.982  0.00  0.00    +0.018 C 
ATOM     10  C   LIG    1       -1.496  -2.952   0.785  0.00  0.00    +0.159 C 
ATOM     11  C   LIG    1       -2.682  -3.176  -0.235  0.00  0.00    +0.126 C 
ATOM     12  C   LIG    1       -3.842  -2.170  -0.025  0.00  0.00    +0.048 C 
ATOM     13  C   LIG    1       -2.182  -3.177  -1.731  0.00  0.00    +0.210 C 
ATOM     14  O   LIG    1       -1.536  -1.923  -2.013  0.00  0.00    -0.458 OA
ATOM     15  C   LIG    1       -0.494  -1.805  -2.882  0.00  0.00    +0.313 C 
ATOM     16  C   LIG    1        0.049  -0.364  -2.981  0.00  0.00    +0.124 C 
ATOM     17  C   LIG    1       -0.299   0.226  -4.364  0.00  0.00    +0.022 C 
ATOM     18  C   LIG    1        1.550  -0.195  -2.579  0.00  0.00    +0.140 C 
ATOM     19  O   LIG    1        0.011  -2.722  -3.532  0.00  0.00    -0.250 OA
ATOM     20  O   LIG    1        0.095  -3.181   3.632  0.00  0.00    -0.297 OA
ATOM     21  C   LIG    1        2.004  -0.767  -1.193  0.00  0.00    +0.047 C 
ATOM     22  C   LIG    1        2.136  -2.313  -1.250  0.00  0.00    +0.013 C 
ENDROOT
BRANCH  13  23
ATOM     23  C   LIG    1       -3.309  -3.451  -2.777  0.00  0.00    +0.044 C 
ATOM     24  C   LIG    1       -2.835  -3.818  -4.192  0.00  0.00    +0.007 C 
ENDBRANCH  13  23
BRANCH  11  25
ATOM     25  O   LIG    1       -3.253  -4.453   0.022  0.00  0.00    -0.383 OA
ATOM     26  H   LIG    1       -3.969  -4.597  -0.601  0.00  0.00    +0.210 HD
ENDBRANCH  11  25
BRANCH  10  27
ATOM     27  O   LIG    1       -0.557  -4.016   0.678  0.00  0.00    -0.388 OA
ATOM     28  H   LIG    1        0.205  -3.801   1.223  0.00  0.00    +0.210 HD
ENDBRANCH  10  27
BRANCH   2  29
ATOM     29  O   LIG    1        1.806  -2.125   1.522  0.00  0.00    -0.386 OA
ATOM     30  H   LIG    1        2.129  -2.438   2.370  0.00  0.00    +0.210 HD
ENDBRANCH   2  29
BRANCH   1  31
ATOM     31  O   LIG    1       -0.058   0.063   0.050  0.00  0.00    -0.342 OA
BRANCH  31  32
ATOM     32  C   LIG    1       -0.553   1.393   0.010  0.00  0.00    +0.281 C 
ATOM     33  C   LIG    1       -2.103   1.360  -0.150  0.00  0.00    +0.187 C 
ATOM     34  C   LIG    1       -2.789   2.727   0.164  0.00  0.00    +0.092 C 
ATOM     35  C   LIG    1       -2.144   3.465   1.358  0.00  0.00    +0.053 C 
ATOM     36  C   LIG    1       -0.615   3.404   1.293  0.00  0.00    +0.120 C 
ATOM     37  C   LIG    1        0.044   4.038   2.527  0.00  0.00    +0.038 C 
ATOM     38  O   LIG    1       -0.208   2.044   1.201  0.00  0.00    -0.346 OA
BRANCH  34  39
ATOM     39  N   LIG    1       -4.264   2.683   0.171  0.00  0.00    -0.303 NA
ATOM     40  C   LIG    1       -4.876   4.006   0.070  0.00  0.00    +0.105 C 
ATOM     41  C   LIG    1       -4.841   1.946   1.295  0.00  0.00    +0.105 C 
ENDBRANCH  34  39
BRANCH  33  42
ATOM     42  O   LIG    1       -2.497   0.960  -1.447  0.00  0.00    -0.385 OA
ATOM     43  H   LIG    1       -2.519   1.736  -2.012  0.00  0.00    +0.210 HD
ENDBRANCH  33  42
ENDBRANCH  31  32
ENDBRANCH   1  31
BRANCH  18  44
ATOM     44  O   LIG    1        1.923   1.190  -2.586  0.00  0.00    -0.347 OA
BRANCH  44  45
ATOM     45  C   LIG    1        2.677   1.631  -3.684  0.00  0.00    +0.254 C 
ATOM     46  C   LIG    1        2.835   3.159  -3.606  0.00  0.00    +0.098 C 
ATOM     47  C   LIG    1        3.880   3.616  -2.555  0.00  0.00    +0.099 C 
ATOM     48  C   LIG    1        4.106   5.149  -2.646  0.00  0.00    +0.044 C 
ATOM     49  C   LIG    1        5.192   2.840  -2.827  0.00  0.00    +0.175 C 
ATOM     50  C   LIG    1        4.911   1.319  -2.813  0.00  0.00    +0.149 C 
ATOM     51  C   LIG    1        6.154   0.462  -3.112  0.00  0.00    +0.041 C 
ATOM     52  O   LIG    1        3.923   0.978  -3.792  0.00  0.00    -0.346 OA
BRANCH  49  53
ATOM     53  O   LIG    1        6.235   3.203  -1.935  0.00  0.00    -0.386 OA
ATOM     54  H   LIG    1        7.060   2.840  -2.266  0.00  0.00    +0.210 HD
ENDBRANCH  49  53
BRANCH  47  55
ATOM     55  O   LIG    1        3.477   3.280  -1.216  0.00  0.00    -0.374 OA
ATOM     56  C   LIG    1        2.333   3.908  -0.651  0.00  0.00    +0.194 C 
ENDBRANCH  47  55
ENDBRANCH  44  45
ENDBRANCH  18  44
TORSDOF 12
