REMARK  Name = DB00894
REMARK                            x       y       z     vdW  Elec       q    Type
REMARK                         _______ _______ _______ _____ _____    ______ ____
ROOT
ATOM      1  O   LIG    1       -0.452   1.369  -0.005  0.00  0.00    -0.458 OA
ATOM      2  C   LIG    1       -0.615   2.113  -1.154  0.00  0.00    +0.308 C 
ATOM      3  C   LIG    1       -0.754   1.356  -2.492  0.00  0.00    +0.121 C 
ATOM      4  C   LIG    1       -0.064  -0.017  -2.521  0.00  0.00    +0.019 C 
ATOM      5  C   LIG    1       -0.387  -0.796  -1.232  0.00  0.00    +0.037 C 
ATOM      6  C   LIG    1        0.080  -2.288  -1.167  0.00  0.00    +0.000 C 
ATOM      7  C   LIG    1       -0.440  -3.122  -2.363  0.00  0.00    +0.008 C 
ATOM      8  C   LIG    1        0.009  -4.590  -2.296  0.00  0.00    +0.032 C 
ATOM      9  C   LIG    1       -0.488  -5.194  -0.986  0.00  0.00    -0.056 C 
ATOM     10  C   LIG    1       -1.324  -6.260  -0.964  0.00  0.00    +0.051 C 
ATOM     11  C   LIG    1       -1.882  -6.869   0.243  0.00  0.00    +0.179 C 
ATOM     12  C   LIG    1       -1.486  -6.192   1.473  0.00  0.00    +0.047 C 
ATOM     13  C   LIG    1       -0.657  -5.130   1.513  0.00  0.00    -0.012 C 
ATOM     14  O   LIG    1       -2.621  -7.852   0.222  0.00  0.00    -0.288 OA
ATOM     15  C   LIG    1        0.007  -4.464   0.295  0.00  0.00    +0.011 C 
ATOM     16  C   LIG    1        1.536  -4.685   0.445  0.00  0.00    +0.020 C 
ATOM     17  C   LIG    1       -0.394  -2.945   0.174  0.00  0.00    +0.006 C 
ATOM     18  C   LIG    1        0.076  -2.090   1.387  0.00  0.00    +0.009 C 
ATOM     19  C   LIG    1       -0.380  -0.621   1.286  0.00  0.00    +0.048 C 
ATOM     20  O   LIG    1       -0.627   3.333  -1.013  0.00  0.00    -0.251 OA
ATOM     21  C   LIG    1        0.122   0.046  -0.020  0.00  0.00    +0.114 C 
ATOM     22  C   LIG    1        1.668   0.225   0.024  0.00  0.00    +0.056 C 
ENDROOT
TORSDOF 0
