REMARK  Name = DB00715
REMARK                            x       y       z     vdW  Elec       q    Type
REMARK                         _______ _______ _______ _____ _____    ______ ____
ROOT
ATOM      1  C   LIG    1        3.476  -1.578  -0.100  0.00  0.00    +0.028 C 
ATOM      2  C   LIG    1        3.847  -3.074   0.044  0.00  0.00    +0.023 C 
ATOM      3  C   LIG    1        3.216  -3.725   1.295  0.00  0.00    +0.081 C 
ATOM      4  N   LIG    1        1.773  -3.500   1.359  0.00  0.00    -0.316 NA
ATOM      5  H   LIG    1        1.404  -3.931   2.195  0.00  0.00    +0.122 HD
ATOM      6  C   LIG    1        1.466  -2.071   1.370  0.00  0.00    +0.088 C 
ATOM      7  C   LIG    1        1.946  -1.367   0.076  0.00  0.00    +0.048 C 
ENDROOT
BRANCH   1  12
ATOM      8  F   LIG    1        5.554   0.744  -4.840  0.00  0.00    -0.205 F 
ATOM      9  C   LIG    1        5.062   0.187  -3.710  0.00  0.00    +0.123 A 
ATOM     10  C   LIG    1        5.492   0.650  -2.468  0.00  0.00    +0.038 A 
ATOM     11  C   LIG    1        4.984   0.079  -1.304  0.00  0.00    +0.007 A 
ATOM     12  C   LIG    1        4.046  -0.957  -1.381  0.00  0.00    -0.044 A 
ATOM     13  C   LIG    1        3.622  -1.416  -2.633  0.00  0.00    +0.007 A 
ATOM     14  C   LIG    1        4.130  -0.844  -3.797  0.00  0.00    +0.038 A 
ENDBRANCH   1  12
BRANCH   7  15
ATOM     15  C   LIG    1        1.496   0.110   0.012  0.00  0.00    +0.234 C 
BRANCH  15  16
ATOM     16  O   LIG    1        0.073   0.183   0.061  0.00  0.00    -0.492 OA
BRANCH  16  17
ATOM     17  C   LIG    1       -0.542   1.420   0.025  0.00  0.00    +0.124 A 
ATOM     18  C   LIG    1       -1.948   1.422   0.096  0.00  0.00    +0.049 A 
ATOM     19  C   LIG    1       -2.680   2.617   0.067  0.00  0.00    +0.053 A 
ATOM     20  C   LIG    1       -1.965   3.805  -0.028  0.00  0.00    +0.166 A 
ATOM     21  C   LIG    1       -0.602   3.820  -0.099  0.00  0.00    +0.170 A 
ATOM     22  O   LIG    1       -0.172   5.103  -0.220  0.00  0.00    -0.452 OA
ATOM     23  C   LIG    1       -1.304   5.903  -0.003  0.00  0.00    +0.466 C 
ATOM     24  O   LIG    1       -2.435   5.078  -0.099  0.00  0.00    -0.453 OA
ATOM     25  C   LIG    1        0.147   2.648  -0.081  0.00  0.00    +0.095 A 
ENDBRANCH  16  17
ENDBRANCH  15  16
ENDBRANCH   7  15
TORSDOF 4
