REMARK  Name = DB00207
REMARK                            x       y       z     vdW  Elec       q    Type
REMARK                         _______ _______ _______ _____ _____    ______ ____
ROOT
ATOM      1  N   LIG    1        2.047  -4.644  -1.510  0.00  0.00    -0.300 NA
ATOM      2  C   LIG    1        2.974  -4.838  -2.634  0.00  0.00    +0.105 C 
ATOM      3  C   LIG    1        1.395  -5.928  -1.138  0.00  0.00    +0.085 C 
ATOM      4  C   LIG    1       -0.004  -5.811  -0.481  0.00  0.00    +0.027 C 
ATOM      5  C   LIG    1        2.325  -6.883  -0.301  0.00  0.00    +0.166 C 
ATOM      6  C   LIG    1        3.123  -6.355   0.964  0.00  0.00    +0.127 C 
ATOM      7  C   LIG    1        4.271  -5.374   0.624  0.00  0.00    +0.048 C 
ATOM      8  C   LIG    1        2.189  -5.859   2.151  0.00  0.00    +0.210 C 
ATOM      9  O   LIG    1        1.707  -4.494   2.073  0.00  0.00    -0.458 OA
ATOM     10  C   LIG    1        2.390  -3.399   2.531  0.00  0.00    +0.313 C 
ATOM     11  O   LIG    1        3.571  -3.397   2.878  0.00  0.00    -0.250 OA
ATOM     12  C   LIG    1        1.560  -2.095   2.657  0.00  0.00    +0.124 C 
ATOM     13  C   LIG    1        1.478  -1.677   4.148  0.00  0.00    +0.022 C 
ATOM     14  C   LIG    1        0.172  -2.063   1.934  0.00  0.00    +0.140 C 
ATOM     15  C   LIG    1       -0.322  -0.590   1.652  0.00  0.00    +0.047 C 
ATOM     16  C   LIG    1       -1.831  -0.326   1.847  0.00  0.00    +0.013 C 
ATOM     17  C   LIG    1        0.191   0.059   0.319  0.00  0.00    +0.158 C 
ATOM     18  C   LIG    1       -0.276  -0.524  -1.083  0.00  0.00    +0.090 C 
ATOM     19  C   LIG    1       -1.249   0.467  -1.773  0.00  0.00    +0.044 C 
ATOM     20  C   LIG    1        0.857  -0.895  -2.113  0.00  0.00    +0.041 C 
ATOM     21  C   LIG    1        1.829  -2.116  -1.954  0.00  0.00    +0.003 C 
ATOM     22  C   LIG    1        2.998  -1.860  -0.981  0.00  0.00    +0.009 C 
ATOM     23  C   LIG    1        1.146  -3.506  -1.768  0.00  0.00    +0.087 C 
ENDROOT
BRANCH   5  24
ATOM     24  O   LIG    1        3.170  -7.583  -1.211  0.00  0.00    -0.387 OA
ATOM     25  H   LIG    1        2.624  -7.958  -1.906  0.00  0.00    +0.210 HD
ENDBRANCH   5  24
BRANCH   6  26
ATOM     26  O   LIG    1        3.829  -7.500   1.434  0.00  0.00    -0.383 OA
ATOM     27  H   LIG    1        4.391  -7.816   0.723  0.00  0.00    +0.210 HD
ENDBRANCH   6  26
BRANCH   8  28
ATOM     28  C   LIG    1        2.641  -6.242   3.604  0.00  0.00    +0.044 C 
ATOM     29  C   LIG    1        1.626  -5.911   4.710  0.00  0.00    +0.007 C 
ENDBRANCH   8  28
BRANCH  18  30
ATOM     30  O   LIG    1       -1.084  -1.672  -0.913  0.00  0.00    -0.386 OA
ATOM     31  H   LIG    1       -0.556  -2.352  -0.488  0.00  0.00    +0.210 HD
ENDBRANCH  18  30
BRANCH  14  32
ATOM     32  O   LIG    1       -0.731  -2.846   2.737  0.00  0.00    -0.347 OA
BRANCH  32  33
ATOM     33  C   LIG    1       -1.715  -3.615   2.090  0.00  0.00    +0.254 C 
ATOM     34  O   LIG    1       -2.988  -3.025   2.181  0.00  0.00    -0.346 OA
ATOM     35  C   LIG    1       -3.543  -2.949   3.501  0.00  0.00    +0.149 C 
ATOM     36  C   LIG    1       -4.867  -2.173   3.389  0.00  0.00    +0.041 C 
ATOM     37  C   LIG    1       -3.707  -4.372   4.076  0.00  0.00    +0.175 C 
ATOM     38  C   LIG    1       -2.327  -5.087   4.122  0.00  0.00    +0.099 C 
ATOM     39  C   LIG    1       -2.452  -6.564   4.577  0.00  0.00    +0.044 C 
ATOM     40  C   LIG    1       -1.735  -5.036   2.693  0.00  0.00    +0.098 C 
BRANCH  37  41
ATOM     41  O   LIG    1       -4.435  -4.416   5.293  0.00  0.00    -0.386 OA
ATOM     42  H   LIG    1       -4.681  -5.327   5.468  0.00  0.00    +0.210 HD
ENDBRANCH  37  41
BRANCH  38  43
ATOM     43  O   LIG    1       -1.328  -4.463   4.946  0.00  0.00    -0.374 OA
ATOM     44  C   LIG    1       -1.609  -4.167   6.310  0.00  0.00    +0.194 C 
ENDBRANCH  38  43
ENDBRANCH  32  33
ENDBRANCH  14  32
BRANCH  17  45
ATOM     45  O   LIG    1        1.610   0.204   0.420  0.00  0.00    -0.342 OA
BRANCH  45  46
ATOM     46  C   LIG    1        2.102   1.508   0.562  0.00  0.00    +0.281 C 
ATOM     47  O   LIG    1        1.956   2.188  -0.654  0.00  0.00    -0.346 OA
ATOM     48  C   LIG    1        2.316   3.566  -0.577  0.00  0.00    +0.120 C 
ATOM     49  C   LIG    1        1.963   4.255  -1.902  0.00  0.00    +0.038 C 
ATOM     50  C   LIG    1        3.807   3.720  -0.212  0.00  0.00    +0.053 C 
ATOM     51  C   LIG    1        4.219   2.847   1.004  0.00  0.00    +0.092 C 
ATOM     52  C   LIG    1        3.596   1.422   0.920  0.00  0.00    +0.187 C 
BRANCH  51  53
ATOM     53  N   LIG    1        5.650   2.880   1.358  0.00  0.00    -0.303 NA
ATOM     54  C   LIG    1        6.538   2.337   0.331  0.00  0.00    +0.105 C 
ATOM     55  C   LIG    1        6.106   4.206   1.768  0.00  0.00    +0.105 C 
ENDBRANCH  51  53
BRANCH  52  56
ATOM     56  O   LIG    1        3.761   0.725   2.143  0.00  0.00    -0.385 OA
ATOM     57  H   LIG    1        3.722   1.358   2.863  0.00  0.00    +0.210 HD
ENDBRANCH  52  56
ENDBRANCH  45  46
ENDBRANCH  17  45
TORSDOF 12
