REMARK  Name = DB00528
REMARK                            x       y       z     vdW  Elec       q    Type
REMARK                         _______ _______ _______ _____ _____    ______ ____
ROOT
ATOM      1  C   LIG    1       -0.582   1.695  -0.301  0.00  0.00    +0.338 C 
ATOM      2  O   LIG    1       -0.080   2.772  -0.628  0.00  0.00    -0.245 OA
ENDROOT
BRANCH   1  11
ATOM      3  C   LIG    1       -2.541  -0.006  -0.011  0.00  0.00    +0.096 C 
ATOM      4  C   LIG    1       -4.086  -0.114  -0.205  0.00  0.00    +0.065 C 
ATOM      5  C   LIG    1       -4.875   0.999  -0.236  0.00  0.00    +0.016 C 
ATOM      6  C   LIG    1       -6.392   1.081  -0.407  0.00  0.00    +0.061 C 
ATOM      7  N   LIG    1       -4.300   2.248  -0.218  0.00  0.00    -0.321 N 
ATOM      8  H   LIG    1       -4.921   3.043  -0.162  0.00  0.00    +0.152 HD
ATOM      9  C   LIG    1       -2.947   2.504  -0.230  0.00  0.00    +0.016 C 
ATOM     10  C   LIG    1       -2.659   4.004  -0.268  0.00  0.00    +0.061 C 
ATOM     11  C   LIG    1       -2.056   1.472  -0.172  0.00  0.00    +0.065 C 
BRANCH   3  14
ATOM     12  C   LIG    1       -1.928  -0.573   3.734  0.00  0.00    +0.003 A 
ATOM     13  C   LIG    1       -2.368  -0.018   2.535  0.00  0.00    +0.005 A 
ATOM     14  C   LIG    1       -2.080  -0.643   1.317  0.00  0.00    -0.033 A 
ATOM     15  C   LIG    1       -1.347  -1.837   1.325  0.00  0.00    +0.037 A 
ATOM     16  C   LIG    1       -0.884  -2.403   2.522  0.00  0.00    +0.122 A 
ATOM     17  C   LIG    1       -1.189  -1.755   3.728  0.00  0.00    +0.032 A 
BRANCH  16  18
ATOM     18  N   LIG    1       -0.078  -3.648   2.509  0.00  0.00    +0.006 N 
ATOM     19  O   LIG    1        0.320  -4.102   3.578  0.00  0.00    -0.130 OA
BRANCH  18  20
ATOM     20  O   LIG    1        0.170  -4.177   1.429  0.00  0.00    -0.396 OA
ATOM     21  H   LIG    1       -0.154  -3.797   0.636  0.00  0.00    +0.329 HD
ENDBRANCH  18  20
ENDBRANCH  16  18
ENDBRANCH   3  14
BRANCH   4  22
ATOM     22  C   LIG    1       -4.664  -1.488  -0.216  0.00  0.00    +0.337 C 
ATOM     23  O   LIG    1       -5.836  -1.743   0.073  0.00  0.00    -0.245 OA
BRANCH  22  24
ATOM     24  O   LIG    1       -3.766  -2.446  -0.557  0.00  0.00    -0.465 OA
ATOM     25  C   LIG    1       -4.132  -3.818  -0.594  0.00  0.00    +0.280 C 
ENDBRANCH  22  24
ENDBRANCH   4  22
ENDBRANCH   1  11
BRANCH   1  26
ATOM     26  O   LIG    1        0.166   0.573  -0.059  0.00  0.00    -0.454 OA
BRANCH  26  27
ATOM     27  C   LIG    1        1.603   0.463  -0.105  0.00  0.00    +0.121 C 
ATOM     28  C   LIG    1        2.281   1.476   0.857  0.00  0.00    +0.057 C 
ATOM     29  C   LIG    1        2.098   0.671  -1.559  0.00  0.00    +0.057 C 
BRANCH  27  30
ATOM     30  C   LIG    1        1.833  -0.988   0.422  0.00  0.00    +0.131 C 
BRANCH  30  31
ATOM     31  N   LIG    1        3.238  -1.428   0.441  0.00  0.00    -0.302 NA
ATOM     32  C   LIG    1        3.498  -2.238   1.632  0.00  0.00    +0.105 C 
BRANCH  31  33
ATOM     33  C   LIG    1        3.578  -2.181  -0.774  0.00  0.00    +0.085 C 
BRANCH  33  34
ATOM     34  C   LIG    1        5.102  -2.359  -0.963  0.00  0.00    +0.028 C 
BRANCH  34  35
ATOM     35  C   LIG    1        5.510  -2.769  -2.404  0.00  0.00    +0.050 C 
BRANCH  35  36
ATOM     36  C   LIG    1        5.135  -1.725  -3.462  0.00  0.00    -0.040 A 
ATOM     37  C   LIG    1        5.466  -0.376  -3.285  0.00  0.00    +0.004 A 
ATOM     38  C   LIG    1        5.095   0.567  -4.240  0.00  0.00    +0.000 A 
ATOM     39  C   LIG    1        4.393   0.162  -5.373  0.00  0.00    +0.000 A 
ATOM     40  C   LIG    1        4.060  -1.177  -5.560  0.00  0.00    +0.000 A 
ATOM     41  C   LIG    1        4.431  -2.120  -4.605  0.00  0.00    +0.004 A 
ENDBRANCH  35  36
BRANCH  35  42
ATOM     42  C   LIG    1        6.977  -3.197  -2.521  0.00  0.00    -0.040 A 
ATOM     43  C   LIG    1        7.299  -4.376  -3.203  0.00  0.00    +0.004 A 
ATOM     44  C   LIG    1        8.627  -4.783  -3.312  0.00  0.00    +0.000 A 
ATOM     45  C   LIG    1        9.634  -4.010  -2.740  0.00  0.00    +0.000 A 
ATOM     46  C   LIG    1        9.326  -2.834  -2.060  0.00  0.00    +0.000 A 
ATOM     47  C   LIG    1        7.999  -2.428  -1.950  0.00  0.00    +0.004 A 
ENDBRANCH  35  42
ENDBRANCH  34  35
ENDBRANCH  33  34
ENDBRANCH  31  33
ENDBRANCH  30  31
ENDBRANCH  27  30
ENDBRANCH  26  27
ENDBRANCH   1  26
TORSDOF 15
