REMARK  Name = DB00214
REMARK                            x       y       z     vdW  Elec       q    Type
REMARK                         _______ _______ _______ _____ _____    ______ ____
ROOT
ATOM      1  C   LIG    1       -0.520   1.686   0.035  0.00  0.00    +0.148 A 
ATOM      2  C   LIG    1       -1.385   2.162   1.027  0.00  0.00    +0.141 A 
ATOM      3  N   LIG    1       -1.571   3.481   1.281  0.00  0.00    -0.261 NA
ATOM      4  C   LIG    1       -0.880   4.371   0.528  0.00  0.00    +0.112 A 
ATOM      5  C   LIG    1        0.003   3.987  -0.481  0.00  0.00    +0.045 A 
ATOM      6  C   LIG    1        0.198   2.622  -0.735  0.00  0.00    +0.061 A 
ENDROOT
BRANCH   1   7
ATOM      7  S   LIG    1       -0.325  -0.093  -0.181  0.00  0.00    +0.079 S 
ATOM      8  O   LIG    1       -0.932  -0.750   0.982  0.00  0.00    -0.150 OA
ATOM      9  O   LIG    1       -0.782  -0.406  -1.539  0.00  0.00    -0.150 OA
BRANCH   7  10
ATOM     10  N   LIG    1        1.412  -0.395  -0.125  0.00  0.00    -0.169 N 
ATOM     11  H   LIG    1        1.823  -0.593  -1.041  0.00  0.00    +0.178 HD
ATOM     12  C   LIG    1        2.265   0.090   0.887  0.00  0.00    +0.319 C 
ATOM     13  N   LIG    1        3.524   0.272   0.456  0.00  0.00    -0.296 N 
ATOM     14  H   LIG    1        3.742   0.034  -0.500  0.00  0.00    +0.151 HD
ATOM     15  O   LIG    1        1.864   0.380   2.015  0.00  0.00    -0.251 OA
BRANCH  13  16
ATOM     16  C   LIG    1        4.615   0.862   1.234  0.00  0.00    +0.068 C 
ATOM     17  C   LIG    1        5.142  -0.086   2.329  0.00  0.00    +0.027 C 
ATOM     18  C   LIG    1        5.743   1.340   0.305  0.00  0.00    +0.027 C 
ENDBRANCH  13  16
ENDBRANCH   7  10
ENDBRANCH   1   7
BRANCH   6  19
ATOM     19  N   LIG    1        1.055   2.187  -1.760  0.00  0.00    -0.313 N 
ATOM     20  H   LIG    1        0.753   1.335  -2.210  0.00  0.00    +0.152 HD
BRANCH  19  21
ATOM     21  C   LIG    1        2.248   2.717  -2.278  0.00  0.00    +0.032 A 
ATOM     22  C   LIG    1        2.752   2.161  -3.457  0.00  0.00    +0.023 A 
ATOM     23  C   LIG    1        3.948   2.625  -4.004  0.00  0.00    +0.002 A 
ATOM     24  C   LIG    1        4.658   3.642  -3.369  0.00  0.00    +0.003 A 
ATOM     25  C   LIG    1        4.177   4.194  -2.179  0.00  0.00    -0.049 A 
ATOM     26  C   LIG    1        4.955   5.284  -1.465  0.00  0.00    +0.044 C 
ATOM     27  C   LIG    1        2.976   3.729  -1.636  0.00  0.00    +0.026 A 
ENDBRANCH  19  21
ENDBRANCH   6  19
TORSDOF 5
