REMARK  Name = DB00784
REMARK                            x       y       z     vdW  Elec       q    Type
REMARK                         _______ _______ _______ _____ _____    ______ ____
ROOT
ATOM      1  C   LIG    1       -1.909   1.377   0.712  0.00  0.00    +0.080 A 
ATOM      2  C   LIG    1       -2.726   2.518   0.831  0.00  0.00    +0.017 A 
ATOM      3  C   LIG    1       -2.304   3.767   0.389  0.00  0.00    +0.001 A 
ATOM      4  C   LIG    1       -1.053   3.908  -0.196  0.00  0.00    +0.002 A 
ATOM      5  C   LIG    1       -0.223   2.801  -0.326  0.00  0.00    +0.024 A 
ATOM      6  C   LIG    1       -0.616   1.535   0.137  0.00  0.00    +0.045 A 
ENDROOT
BRANCH   1   7
ATOM      7  C   LIG    1       -2.443   0.036   1.207  0.00  0.00    +0.339 C 
ATOM      8  O   LIG    1       -1.809  -1.015   1.139  0.00  0.00    -0.245 OA
BRANCH   7   9
ATOM      9  O   LIG    1       -3.701   0.077   1.740  0.00  0.00    -0.477 OA
ATOM     10  H   LIG    1       -3.995  -0.787   2.037  0.00  0.00    +0.295 HD
ENDBRANCH   7   9
ENDBRANCH   1   7
BRANCH   6  11
ATOM     11  N   LIG    1        0.256   0.439  -0.035  0.00  0.00    -0.314 N 
ATOM     12  H   LIG    1       -0.220  -0.452  -0.018  0.00  0.00    +0.152 HD
BRANCH  11  13
ATOM     13  C   LIG    1        1.651   0.320  -0.192  0.00  0.00    +0.035 A 
ATOM     14  C   LIG    1        2.515   1.327   0.260  0.00  0.00    +0.023 A 
ATOM     15  C   LIG    1        3.893   1.193   0.133  0.00  0.00    +0.002 A 
ATOM     16  C   LIG    1        4.429   0.042  -0.434  0.00  0.00    +0.004 A 
ATOM     17  C   LIG    1        3.594  -0.989  -0.873  0.00  0.00    -0.046 A 
ATOM     18  C   LIG    1        4.241  -2.239  -1.457  0.00  0.00    +0.044 C 
ATOM     19  C   LIG    1        2.194  -0.858  -0.750  0.00  0.00    -0.026 A 
ATOM     20  C   LIG    1        1.264  -1.976  -1.235  0.00  0.00    +0.046 C 
ENDBRANCH  11  13
ENDBRANCH   6  11
TORSDOF 4
