REMARK  Name = DB00749
REMARK                            x       y       z     vdW  Elec       q    Type
REMARK                         _______ _______ _______ _____ _____    ______ ____
ROOT
ATOM      1  O   LIG    1       -0.558   1.047  -0.197  0.00  0.00    -0.366 OA
ATOM      2  C   LIG    1       -1.927   1.240   0.188  0.00  0.00    +0.166 C 
ATOM      3  C   LIG    1       -2.140   0.990   1.698  0.00  0.00    +0.065 C 
ATOM      4  C   LIG    1       -1.553  -0.369   2.024  0.00  0.00    -0.014 A 
ATOM      5  C   LIG    1       -1.824  -1.306   3.077  0.00  0.00    +0.004 A 
ATOM      6  C   LIG    1       -2.715  -1.326   4.160  0.00  0.00    +0.010 A 
ATOM      7  C   LIG    1       -2.714  -2.426   5.013  0.00  0.00    +0.001 A 
ATOM      8  C   LIG    1       -1.849  -3.497   4.805  0.00  0.00    +0.005 A 
ATOM      9  C   LIG    1       -0.941  -3.536   3.740  0.00  0.00    -0.024 A 
ATOM     10  C   LIG    1       -0.947  -2.419   2.890  0.00  0.00    +0.050 A 
ATOM     11  N   LIG    1       -0.188  -2.133   1.774  0.00  0.00    -0.355 N 
ATOM     12  H   LIG    1        0.535  -2.705   1.361  0.00  0.00    +0.166 HD
ATOM     13  C   LIG    1       -0.543  -0.912   1.256  0.00  0.00    +0.053 A 
ATOM     14  C   LIG    1        0.074  -0.234   0.025  0.00  0.00    +0.119 C 
ENDROOT
BRANCH   9  15
ATOM     15  C   LIG    1       -0.025  -4.743   3.597  0.00  0.00    +0.034 C 
ATOM     16  C   LIG    1        1.403  -4.459   4.082  0.00  0.00    +0.009 C 
ENDBRANCH   9  15
BRANCH  14  17
ATOM     17  C   LIG    1        1.557   0.124   0.321  0.00  0.00    +0.038 C 
ATOM     18  C   LIG    1        1.796   1.044   1.535  0.00  0.00    +0.007 C 
ENDBRANCH  14  17
BRANCH  14  19
ATOM     19  C   LIG    1       -0.053  -1.113  -1.258  0.00  0.00    +0.161 C 
BRANCH  19  20
ATOM     20  C   LIG    1       -1.466  -1.533  -1.686  0.00  0.00    +0.308 C 
ATOM     21  O   LIG    1       -2.103  -0.953  -2.563  0.00  0.00    -0.251 OA
BRANCH  20  22
ATOM     22  O   LIG    1       -1.910  -2.621  -0.993  0.00  0.00    -0.481 OA
ATOM     23  H   LIG    1       -2.792  -2.888  -1.258  0.00  0.00    +0.295 HD
ENDBRANCH  20  22
ENDBRANCH  19  20
ENDBRANCH  14  19
TORSDOF 5
