REMARK  Name = DB00283
REMARK                            x       y       z     vdW  Elec       q    Type
REMARK                         _______ _______ _______ _____ _____    ______ ____
ROOT
ATOM      1  C   LIG    1       -0.507   1.439   0.024  0.00  0.00    +0.116 C 
ATOM      2  C   LIG    1       -2.011   1.064  -0.014  0.00  0.00    +0.052 C 
ENDROOT
BRANCH   1   7
ATOM      3 CL   LIG    1        1.026   4.632   4.973  0.00  0.00    -0.084 Cl
ATOM      4  C   LIG    1        0.585   3.729   3.570  0.00  0.00    +0.041 A 
ATOM      5  C   LIG    1       -0.492   2.849   3.624  0.00  0.00    +0.020 A 
ATOM      6  C   LIG    1       -0.847   2.118   2.493  0.00  0.00    +0.008 A 
ATOM      7  C   LIG    1       -0.134   2.262   1.292  0.00  0.00    -0.012 A 
ATOM      8  C   LIG    1        0.956   3.148   1.264  0.00  0.00    +0.008 A 
ATOM      9  C   LIG    1        1.311   3.880   2.393  0.00  0.00    +0.020 A 
ENDBRANCH   1   7
BRANCH   1  10
ATOM     10  C   LIG    1       -0.209   2.133  -1.331  0.00  0.00    -0.012 A 
ATOM     11  C   LIG    1       -0.539   3.484  -1.510  0.00  0.00    +0.007 A 
ATOM     12  C   LIG    1       -0.291   4.120  -2.723  0.00  0.00    +0.000 A 
ATOM     13  C   LIG    1        0.277   3.405  -3.773  0.00  0.00    +0.000 A 
ATOM     14  C   LIG    1        0.590   2.057  -3.622  0.00  0.00    +0.000 A 
ATOM     15  C   LIG    1        0.343   1.423  -2.408  0.00  0.00    +0.007 A 
ENDBRANCH   1  10
BRANCH   1  16
ATOM     16  O   LIG    1        0.125   0.147   0.096  0.00  0.00    -0.364 OA
BRANCH  16  17
ATOM     17  C   LIG    1        1.537   0.076   0.301  0.00  0.00    +0.163 C 
BRANCH  17  18
ATOM     18  C   LIG    1        1.996  -1.367   0.038  0.00  0.00    +0.047 C 
BRANCH  18  19
ATOM     19  C   LIG    1        3.524  -1.567   0.159  0.00  0.00    +0.059 C 
ATOM     20  C   LIG    1        4.093  -1.220   1.547  0.00  0.00    +0.020 C 
ATOM     21  C   LIG    1        5.321  -2.121   1.695  0.00  0.00    +0.017 C 
ATOM     22  C   LIG    1        5.388  -2.882   0.372  0.00  0.00    +0.084 C 
ATOM     23  N   LIG    1        4.019  -2.912  -0.124  0.00  0.00    -0.302 NA
ATOM     24  C   LIG    1        3.958  -3.282  -1.534  0.00  0.00    +0.105 C 
ENDBRANCH  18  19
ENDBRANCH  17  18
ENDBRANCH  16  17
ENDBRANCH   1  16
TORSDOF 6
