REMARK  Name = DB00687
REMARK                            x       y       z     vdW  Elec       q    Type
REMARK                         _______ _______ _______ _____ _____    ______ ____
ROOT
ATOM      1  C   LIG    1       -4.888  -0.828   5.800  0.00  0.00    +0.080 C 
ATOM      2  C   LIG    1       -3.703  -1.806   5.683  0.00  0.00    +0.022 C 
ATOM      3  C   LIG    1       -3.486  -2.471   4.276  0.00  0.00    +0.026 C 
ATOM      4  C   LIG    1       -2.792  -3.843   4.542  0.00  0.00    +0.019 C 
ATOM      5  C   LIG    1       -2.689  -1.545   3.255  0.00  0.00    +0.149 C 
ATOM      6  F   LIG    1       -3.419  -0.427   3.129  0.00  0.00    -0.238 F 
ATOM      7  C   LIG    1       -1.287  -1.004   3.737  0.00  0.00    +0.153 C 
ATOM      8  C   LIG    1       -0.555  -0.165   2.647  0.00  0.00    +0.044 C 
ATOM      9  C   LIG    1       -0.436  -0.881   1.266  0.00  0.00    +0.009 C 
ATOM     10  C   LIG    1        0.480  -2.152   1.373  0.00  0.00    +0.015 C 
ATOM     11  C   LIG    1       -0.019   0.031   0.046  0.00  0.00    +0.131 C 
ATOM     12  C   LIG    1       -0.586  -0.749  -1.183  0.00  0.00    +0.043 C 
ATOM     13  C   LIG    1       -1.783  -1.575  -0.663  0.00  0.00    +0.008 C 
ATOM     14  C   LIG    1       -1.884  -1.220   0.828  0.00  0.00    +0.004 C 
ATOM     15  C   LIG    1       -2.620  -2.176   1.810  0.00  0.00    +0.034 C 
ATOM     16  C   LIG    1       -4.022  -2.584   1.292  0.00  0.00    +0.011 C 
ATOM     17  C   LIG    1       -4.795  -3.478   2.278  0.00  0.00    +0.032 C 
ATOM     18  C   LIG    1       -4.870  -2.752   3.620  0.00  0.00    -0.057 C 
ATOM     19  C   LIG    1       -6.047  -2.303   4.114  0.00  0.00    +0.046 C 
ATOM     20  C   LIG    1       -6.181  -1.481   5.306  0.00  0.00    +0.156 C 
ATOM     21  O   LIG    1       -7.277  -1.230   5.801  0.00  0.00    -0.293 OA
ENDROOT
BRANCH   7  22
ATOM     22  O   LIG    1       -0.429  -1.993   4.269  0.00  0.00    -0.389 OA
ATOM     23  H   LIG    1       -0.873  -2.418   5.007  0.00  0.00    +0.210 HD
ENDBRANCH   7  22
BRANCH  11  24
ATOM     24  C   LIG    1        1.524   0.265  -0.044  0.00  0.00    +0.190 C 
ATOM     25  O   LIG    1        2.240  -0.484  -0.716  0.00  0.00    -0.292 OA
BRANCH  24  26
ATOM     26  C   LIG    1        2.130   1.458   0.731  0.00  0.00    +0.233 C 
BRANCH  26  27
ATOM     27  O   LIG    1        3.540   1.485   0.597  0.00  0.00    -0.387 OA
ATOM     28  H   LIG    1        3.877   2.253   1.064  0.00  0.00    +0.210 HD
ENDBRANCH  26  27
ENDBRANCH  24  26
ENDBRANCH  11  24
BRANCH  11  29
ATOM     29  O   LIG    1       -0.604   1.330   0.086  0.00  0.00    -0.380 OA
ATOM     30  H   LIG    1       -1.559   1.232   0.075  0.00  0.00    +0.211 HD
ENDBRANCH  11  29
TORSDOF 5
