REMARK  Name = DB00998
REMARK                            x       y       z     vdW  Elec       q    Type
REMARK                         _______ _______ _______ _____ _____    ______ ____
ROOT
ATOM      1  C   LIG    1        5.455  -1.759   4.216  0.00  0.00    +0.037 A 
ATOM      2  C   LIG    1        6.672  -1.993   3.561  0.00  0.00    +0.015 A 
ATOM      3  C   LIG    1        6.819  -1.877   2.179  0.00  0.00    +0.027 A 
ATOM      4  C   LIG    1        5.688  -1.504   1.450  0.00  0.00    +0.047 A 
ATOM      5  C   LIG    1        4.431  -1.248   2.072  0.00  0.00    +0.004 A 
ATOM      6  C   LIG    1        3.504  -0.893   1.033  0.00  0.00    -0.018 A 
ATOM      7  C   LIG    1        4.216  -0.922  -0.157  0.00  0.00    +0.020 A 
ATOM      8  C   LIG    1        3.642  -0.684  -1.541  0.00  0.00    +0.055 C 
ATOM      9  C   LIG    1        2.102  -0.769  -1.447  0.00  0.00    +0.025 C 
ATOM     10  C   LIG    1        1.521   0.031  -0.254  0.00  0.00    +0.058 C 
ATOM     11  C   LIG    1        2.019  -0.554   1.103  0.00  0.00    +0.056 C 
ATOM     12  N   LIG    1        5.506  -1.314   0.097  0.00  0.00    -0.358 N 
ATOM     13  H   LIG    1        6.191  -1.425  -0.637  0.00  0.00    +0.166 HD
ATOM     14  C   LIG    1        4.329  -1.383   3.465  0.00  0.00    +0.023 A 
ENDROOT
BRANCH   1  16
ATOM     15  O   LIG    1        6.392  -1.884   6.421  0.00  0.00    -0.270 OA
ATOM     16  C   LIG    1        5.380  -1.907   5.721  0.00  0.00    +0.242 C 
ATOM     17  N   LIG    1        4.169  -2.092   6.259  0.00  0.00    -0.325 N 
ATOM     18  H   LIG    1        4.071  -2.205   7.257  0.00  0.00    +0.145 HD
ATOM     19  H   LIG    1        3.349  -2.126   5.671  0.00  0.00    +0.145 HD
ENDBRANCH   1  16
BRANCH  10  20
ATOM     20  N   LIG    1        0.065   0.118  -0.342  0.00  0.00    -0.316 NA
ATOM     21  H   LIG    1       -0.220   0.326  -1.288  0.00  0.00    +0.122 HD
ATOM     22  C   LIG    1       -0.520   1.069   0.592  0.00  0.00    +0.101 C 
ENDBRANCH  10  20
TORSDOF 2
