REMARK  Name = DB00979
REMARK                            x       y       z     vdW  Elec       q    Type
REMARK                         _______ _______ _______ _____ _____    ______ ____
ROOT
ATOM      1  C   LIG    1       -1.712   1.202  -0.102  0.00  0.00    +0.159 C 
ENDROOT
BRANCH   1   2
ATOM      2  C   LIG    1       -1.942   2.020   1.182  0.00  0.00    -0.031 A 
ATOM      3  C   LIG    1       -1.531   3.357   1.298  0.00  0.00    +0.004 A 
ATOM      4  C   LIG    1       -1.783   4.071   2.466  0.00  0.00    +0.000 A 
ATOM      5  C   LIG    1       -2.453   3.454   3.520  0.00  0.00    +0.000 A 
ATOM      6  C   LIG    1       -2.875   2.132   3.414  0.00  0.00    +0.000 A 
ATOM      7  C   LIG    1       -2.623   1.418   2.246  0.00  0.00    +0.004 A 
ENDBRANCH   1   2
BRANCH   1   8
ATOM      8  C   LIG    1       -2.712   1.541  -1.260  0.00  0.00    +0.083 C 
ATOM      9  C   LIG    1       -2.555   0.644  -2.506  0.00  0.00    +0.036 C 
ATOM     10  C   LIG    1       -3.880   0.725  -3.277  0.00  0.00    +0.003 C 
ATOM     11  C   LIG    1       -4.941   1.142  -2.248  0.00  0.00    +0.003 C 
ATOM     12  C   LIG    1       -4.196   1.300  -0.914  0.00  0.00    +0.036 C 
BRANCH   8  13
ATOM     13  O   LIG    1       -2.543   2.897  -1.657  0.00  0.00    -0.387 OA
ATOM     14  H   LIG    1       -2.852   3.462  -0.946  0.00  0.00    +0.210 HD
ENDBRANCH   8  13
ENDBRANCH   1   8
BRANCH   1  15
ATOM     15  C   LIG    1       -0.214   1.223  -0.497  0.00  0.00    +0.317 C 
ATOM     16  O   LIG    1        0.299   2.177  -1.087  0.00  0.00    -0.250 OA
BRANCH  15  17
ATOM     17  O   LIG    1        0.418   0.081  -0.153  0.00  0.00    -0.463 OA
BRANCH  17  18
ATOM     18  C   LIG    1        1.803  -0.096  -0.428  0.00  0.00    +0.247 C 
BRANCH  18  19
ATOM     19  C   LIG    1        2.258  -1.512  -0.021  0.00  0.00    +0.125 C 
BRANCH  19  20
ATOM     20  N   LIG    1        2.060  -1.812   1.402  0.00  0.00    -0.305 NA
ATOM     21  C   LIG    1        2.359  -3.217   1.658  0.00  0.00    +0.104 C 
ATOM     22  C   LIG    1        2.889  -0.976   2.268  0.00  0.00    +0.104 C 
ENDBRANCH  19  20
ENDBRANCH  18  19
ENDBRANCH  17  18
ENDBRANCH  15  17
ENDBRANCH   1  15
TORSDOF 8
