REMARK  Name = DB00681
REMARK                            x       y       z     vdW  Elec       q    Type
REMARK                         _______ _______ _______ _____ _____    ______ ____
ROOT
ATOM      1  C   LIG    1        0.309   2.704   1.176  0.00  0.00    +0.141 C 
ATOM      2  C   LIG    1       -0.534   2.077   0.034  0.00  0.00    +0.068 C 
ATOM      3  C   LIG    1       -0.272   0.581  -0.256  0.00  0.00    +0.147 C 
ATOM      4  C   LIG    1       -0.821  -0.329   0.834  0.00  0.00    +0.004 C 
ATOM      5  C   LIG    1       -2.026  -0.922   0.815  0.00  0.00    -0.002 C 
ATOM      6  C   LIG    1       -2.508  -1.730   1.916  0.00  0.00    -0.000 C 
ATOM      7  C   LIG    1       -3.748  -2.245   1.975  0.00  0.00    -0.000 C 
ATOM      8  C   LIG    1       -4.232  -2.966   3.136  0.00  0.00    -0.000 C 
ATOM      9  C   LIG    1       -5.488  -3.438   3.255  0.00  0.00    -0.000 C 
ATOM     10  C   LIG    1       -5.998  -4.089   4.450  0.00  0.00    +0.000 C 
ATOM     11  C   LIG    1       -5.269  -4.887   5.257  0.00  0.00    +0.000 C 
ATOM     12  C   LIG    1       -5.710  -5.398   6.544  0.00  0.00    -0.000 C 
ATOM     13  C   LIG    1       -6.518  -4.728   7.387  0.00  0.00    -0.000 C 
ATOM     14  C   LIG    1       -6.860  -5.208   8.711  0.00  0.00    -0.000 C 
ATOM     15  C   LIG    1       -7.638  -4.509   9.558  0.00  0.00    -0.000 C 
ATOM     16  C   LIG    1       -7.924  -4.895  10.928  0.00  0.00    -0.004 C 
ATOM     17  C   LIG    1       -8.024  -6.162  11.375  0.00  0.00    -0.021 C 
ATOM     18  C   LIG    1       -8.214  -6.557  12.836  0.00  0.00    +0.038 C 
ATOM     19  C   LIG    1       -6.938  -6.268  13.706  0.00  0.00    +0.127 C 
ATOM     20  C   LIG    1       -5.735  -7.268  13.544  0.00  0.00    +0.055 C 
ATOM     21  C   LIG    1       -5.408  -7.628  12.077  0.00  0.00    +0.014 C 
ATOM     22  C   LIG    1       -4.421  -6.839  14.283  0.00  0.00    +0.179 C 
ATOM     23  C   LIG    1       -4.461  -6.958  15.818  0.00  0.00    +0.052 C 
ATOM     24  O   LIG    1       -3.999  -5.509  13.965  0.00  0.00    -0.461 OA
ATOM     25  C   LIG    1       -3.134  -5.246  12.955  0.00  0.00    +0.310 C 
ATOM     26  O   LIG    1       -2.604  -6.080  12.220  0.00  0.00    -0.251 OA
ATOM     27  C   LIG    1       -2.828  -3.749  12.799  0.00  0.00    +0.152 C 
ATOM     28  C   LIG    1       -3.986  -2.867  12.261  0.00  0.00    +0.128 C 
ATOM     29  C   LIG    1       -4.624  -3.302  10.915  0.00  0.00    +0.063 C 
ATOM     30  C   LIG    1       -3.743  -3.236   9.643  0.00  0.00    +0.117 C 
ATOM     31  C   LIG    1       -3.150  -1.837   9.341  0.00  0.00    +0.034 C 
ATOM     32  C   LIG    1       -2.894  -1.495   7.848  0.00  0.00    +0.036 C 
ATOM     33  C   LIG    1       -1.875  -2.386   7.087  0.00  0.00    +0.143 C 
ATOM     34  C   LIG    1       -1.364  -1.787   5.738  0.00  0.00    +0.145 C 
ATOM     35  C   LIG    1       -0.519  -0.488   5.884  0.00  0.00    +0.065 C 
ATOM     36  C   LIG    1        0.037   0.112   4.563  0.00  0.00    +0.122 C 
ATOM     37  C   LIG    1        0.484   1.593   4.722  0.00  0.00    +0.096 C 
ATOM     38  C   LIG    1        0.998   2.295   3.440  0.00  0.00    +0.172 C 
ATOM     39  C   LIG    1        1.144   3.835   3.645  0.00  0.00    +0.097 C 
ATOM     40  C   LIG    1        0.064   4.636   2.882  0.00  0.00    +0.136 C 
ATOM     41  C   LIG    1       -9.524  -5.940  13.387  0.00  0.00    +0.014 C 
ATOM     42  O   LIG    1        0.076   2.005   2.408  0.00  0.00    -0.344 OA
ATOM     43  C   LIG    1       -0.018   4.217   1.385  0.00  0.00    +0.155 C 
ENDROOT
BRANCH  19  44
ATOM     44  O   LIG    1       -7.304  -6.269  15.076  0.00  0.00    -0.391 OA
ATOM     45  H   LIG    1       -7.635  -7.141  15.302  0.00  0.00    +0.210 HD
ENDBRANCH  19  44
BRANCH  28  46
ATOM     46  O   LIG    1       -5.015  -2.785  13.230  0.00  0.00    -0.391 OA
ATOM     47  H   LIG    1       -4.629  -2.506  14.063  0.00  0.00    +0.210 HD
ENDBRANCH  28  46
BRANCH  30  48
ATOM     48  O   LIG    1       -2.709  -4.199   9.711  0.00  0.00    -0.392 OA
ATOM     49  H   LIG    1       -3.103  -5.059   9.875  0.00  0.00    +0.210 HD
ENDBRANCH  30  48
BRANCH  33  50
ATOM     50  O   LIG    1       -2.510  -3.627   6.820  0.00  0.00    -0.389 OA
ATOM     51  H   LIG    1       -1.899  -4.182   6.330  0.00  0.00    +0.210 HD
ENDBRANCH  33  50
BRANCH  34  52
ATOM     52  O   LIG    1       -0.592  -2.769   5.062  0.00  0.00    -0.389 OA
ATOM     53  H   LIG    1        0.209  -2.930   5.567  0.00  0.00    +0.210 HD
ENDBRANCH  34  52
BRANCH  36  54
ATOM     54  O   LIG    1        1.120  -0.678   4.103  0.00  0.00    -0.392 OA
ATOM     55  H   LIG    1        1.821  -0.645   4.758  0.00  0.00    +0.210 HD
ENDBRANCH  36  54
BRANCH  40  56
ATOM     56  O   LIG    1       -1.195   4.469   3.507  0.00  0.00    -0.391 OA
ATOM     57  H   LIG    1       -1.061   4.439   4.456  0.00  0.00    +0.210 HD
ENDBRANCH  40  56
BRANCH  38  58
ATOM     58  O   LIG    1        2.250   1.791   3.163  0.00  0.00    -0.364 OA
ATOM     59  H   LIG    1        2.161   0.842   3.045  0.00  0.00    +0.213 HD
ENDBRANCH  38  58
BRANCH  43  60
ATOM     60  C   LIG    1        0.963   5.069   0.542  0.00  0.00    +0.313 C 
ATOM     61  O   LIG    1        2.130   5.284   0.864  0.00  0.00    -0.251 OA
BRANCH  60  62
ATOM     62  O   LIG    1        0.383   5.535  -0.603  0.00  0.00    -0.480 OA
ATOM     63  H   LIG    1        0.991   6.058  -1.130  0.00  0.00    +0.295 HD
ENDBRANCH  60  62
ENDBRANCH  43  60
BRANCH   3  64
ATOM     64  O   LIG    1        1.135   0.419  -0.461  0.00  0.00    -0.341 OA
BRANCH  64  65
ATOM     65  C   LIG    1        1.607  -0.847  -0.824  0.00  0.00    +0.281 C 
ATOM     66  O   LIG    1        1.659  -1.703   0.291  0.00  0.00    -0.343 OA
ATOM     67  C   LIG    1        2.031  -3.045  -0.038  0.00  0.00    +0.148 C 
ATOM     68  C   LIG    1        3.462  -3.071  -0.639  0.00  0.00    +0.162 C 
ATOM     69  C   LIG    1        3.578  -2.052  -1.800  0.00  0.00    +0.116 C 
ATOM     70  C   LIG    1        1.897  -3.883   1.244  0.00  0.00    +0.041 C 
ATOM     71  C   LIG    1        3.034  -0.668  -1.368  0.00  0.00    +0.189 C 
BRANCH  69  72
ATOM     72  N   LIG    1        4.882  -1.996  -2.444  0.00  0.00    -0.323 NA
ATOM     73  H   LIG    1        5.149  -2.927  -2.730  0.00  0.00    +0.119 HD
ATOM     74  H   LIG    1        5.577  -1.698  -1.775  0.00  0.00    +0.119 HD
ENDBRANCH  69  72
BRANCH  68  75
ATOM     75  O   LIG    1        3.824  -4.377  -1.059  0.00  0.00    -0.388 OA
ATOM     76  H   LIG    1        3.939  -4.926  -0.280  0.00  0.00    +0.210 HD
ENDBRANCH  68  75
BRANCH  71  77
ATOM     77  O   LIG    1        3.880  -0.025  -0.425  0.00  0.00    -0.385 OA
ATOM     78  H   LIG    1        4.787  -0.105  -0.729  0.00  0.00    +0.210 HD
ENDBRANCH  71  77
ENDBRANCH  64  65
ENDBRANCH   3  64
TORSDOF 15
