REMARK  Name = DB00440
REMARK                            x       y       z     vdW  Elec       q    Type
REMARK                         _______ _______ _______ _____ _____    ______ ____
ROOT
ATOM      1  C   LIG    1       -0.038   0.100   0.177  0.00  0.00    +0.075 C 
ENDROOT
BRANCH   1   6
ATOM      2  C   LIG    1        3.521  -0.598  -1.054  0.00  0.00    +0.165 A 
ATOM      3  C   LIG    1        4.274  -0.064   0.002  0.00  0.00    +0.204 A 
ATOM      4  C   LIG    1        3.649   0.512   1.117  0.00  0.00    +0.165 A 
ATOM      5  C   LIG    1        2.246   0.560   1.158  0.00  0.00    +0.053 A 
ATOM      6  C   LIG    1        1.483   0.049   0.108  0.00  0.00    -0.036 A 
ATOM      7  C   LIG    1        2.121  -0.533  -0.988  0.00  0.00    +0.053 A 
BRANCH   2   8
ATOM      8  O   LIG    1        4.220  -1.159  -2.107  0.00  0.00    -0.491 OA
ATOM      9  C   LIG    1        3.505  -1.697  -3.214  0.00  0.00    +0.277 C 
ENDBRANCH   2   8
BRANCH   4  10
ATOM     10  O   LIG    1        4.467   1.006   2.117  0.00  0.00    -0.491 OA
ATOM     11  C   LIG    1        3.881   1.625   3.257  0.00  0.00    +0.277 C 
ENDBRANCH   4  10
BRANCH   3  12
ATOM     12  O   LIG    1        5.646  -0.131  -0.044  0.00  0.00    -0.488 OA
ATOM     13  C   LIG    1        6.258   0.989  -0.671  0.00  0.00    +0.277 C 
ENDBRANCH   3  12
ENDBRANCH   1   6
BRANCH   1  14
ATOM     14  C   LIG    1       -0.608   1.508   0.019  0.00  0.00    +0.015 A 
ATOM     15  C   LIG    1       -1.074   2.211   1.137  0.00  0.00    +0.121 A 
ATOM     16  N   LIG    1       -1.610   3.456   1.052  0.00  0.00    -0.223 NA
ATOM     17  C   LIG    1       -1.682   3.995  -0.190  0.00  0.00    +0.214 A 
ATOM     18  N   LIG    1       -1.270   3.399  -1.337  0.00  0.00    -0.200 NA
ATOM     19  C   LIG    1       -0.737   2.154  -1.224  0.00  0.00    +0.125 A 
BRANCH  17  20
ATOM     20  N   LIG    1       -2.227   5.271  -0.298  0.00  0.00    -0.327 N 
ATOM     21  H   LIG    1       -2.294   5.705  -1.207  0.00  0.00    +0.145 HD
ATOM     22  H   LIG    1       -2.548   5.742   0.535  0.00  0.00    +0.145 HD
ENDBRANCH  17  20
BRANCH  19  23
ATOM     23  N   LIG    1       -0.320   1.553  -2.411  0.00  0.00    -0.343 N 
ATOM     24  H   LIG    1       -0.425   2.055  -3.280  0.00  0.00    +0.144 HD
ATOM     25  H   LIG    1        0.101   0.636  -2.383  0.00  0.00    +0.144 HD
ENDBRANCH  19  23
ENDBRANCH   1  14
TORSDOF 7
