REMARK  Name = DB00774
REMARK                            x       y       z     vdW  Elec       q    Type
REMARK                         _______ _______ _______ _____ _____    ______ ____
ROOT
ATOM      1  S   LIG    1        4.715  -0.996   2.613  0.00  0.00    +0.062 S 
ATOM      2  C   LIG    1        3.869  -0.389   1.166  0.00  0.00    +0.128 A 
ATOM      3  C   LIG    1        2.482  -0.495   1.092  0.00  0.00    +0.059 A 
ATOM      4  C   LIG    1        1.774   0.001  -0.010  0.00  0.00    +0.119 A 
ATOM      5  C   LIG    1        2.482   0.623  -1.068  0.00  0.00    +0.083 A 
ATOM      6  C   LIG    1        3.881   0.707  -0.980  0.00  0.00    +0.039 A 
ATOM      7  C   LIG    1        4.581   0.224   0.125  0.00  0.00    +0.055 A 
ATOM      8  N   LIG    1        5.993   0.233   0.073  0.00  0.00    -0.328 N 
ATOM      9  H   LIG    1        6.488   0.706  -0.669  0.00  0.00    +0.147 HD
ATOM     10  C   LIG    1        6.798  -0.698   0.874  0.00  0.00    +0.209 C 
ATOM     11  N   LIG    1        6.078  -1.645   1.740  0.00  0.00    -0.173 NA
ATOM     12  H   LIG    1        6.317  -2.640   1.769  0.00  0.00    +0.150 HD
ATOM     13  O   LIG    1        5.153   0.155   3.411  0.00  0.00    -0.153 OA
ATOM     14  O   LIG    1        3.950  -2.074   3.249  0.00  0.00    -0.153 OA
ENDROOT
BRANCH   5  15
ATOM     15  C   LIG    1        1.802   1.218  -2.313  0.00  0.00    +0.419 C 
ATOM     16  F   LIG    1        1.426   0.234  -3.129  0.00  0.00    -0.166 F 
ATOM     17  F   LIG    1        0.740   1.954  -1.993  0.00  0.00    -0.166 F 
ATOM     18  F   LIG    1        2.620   2.016  -3.003  0.00  0.00    -0.166 F 
ENDBRANCH   5  15
BRANCH   4  19
ATOM     19  S   LIG    1       -0.024  -0.202   0.026  0.00  0.00    +0.057 S 
ATOM     20  O   LIG    1       -0.479  -0.523  -1.331  0.00  0.00    -0.153 OA
ATOM     21  O   LIG    1       -0.355  -1.098   1.140  0.00  0.00    -0.153 OA
BRANCH  19  22
ATOM     22  N   LIG    1       -0.648   1.383   0.444  0.00  0.00    -0.203 NA
ATOM     23  H   LIG    1       -0.402   1.703   1.384  0.00  0.00    +0.144 HD
ATOM     24  H   LIG    1       -0.507   2.097  -0.276  0.00  0.00    +0.144 HD
ENDBRANCH  19  22
ENDBRANCH   4  19
TORSDOF 3
