REMARK  Name = DB00705
REMARK                            x       y       z     vdW  Elec       q    Type
REMARK                         _______ _______ _______ _____ _____    ______ ____
ROOT
ATOM      1  C   LIG    1       -3.047   1.057   2.329  0.00  0.00    +0.263 C 
ATOM      2  N   LIG    1       -2.276   0.628   1.287  0.00  0.00    -0.293 N 
ATOM      3  C   LIG    1       -1.904   1.561   0.214  0.00  0.00    +0.127 C 
ATOM      4  C   LIG    1       -0.364   1.662   0.141  0.00  0.00    +0.125 C 
ATOM      5  N   LIG    1        0.355   0.376   0.085  0.00  0.00    -0.311 N 
ATOM      6  C   LIG    1       -0.144  -0.569   1.099  0.00  0.00    +0.125 C 
ATOM      7  C   LIG    1       -1.679  -0.713   1.177  0.00  0.00    +0.127 C 
ATOM      8  O   LIG    1       -3.446   2.216   2.455  0.00  0.00    -0.268 OA
ENDROOT
BRANCH   1  15
ATOM      9  C   LIG    1       -4.095  -2.892   6.799  0.00  0.00    +0.048 A 
ATOM     10  C   LIG    1       -4.853  -3.501   5.799  0.00  0.00    +0.026 A 
ATOM     11  C   LIG    1       -4.964  -2.964   4.517  0.00  0.00    +0.028 A 
ATOM     12  C   LIG    1       -4.275  -1.774   4.266  0.00  0.00    +0.047 A 
ATOM     13  C   LIG    1       -3.489  -1.127   5.262  0.00  0.00    +0.002 A 
ATOM     14  C   LIG    1       -2.930   0.044   4.653  0.00  0.00    +0.041 A 
ATOM     15  C   LIG    1       -3.394   0.105   3.350  0.00  0.00    +0.103 A 
ATOM     16  N   LIG    1       -4.176  -1.006   3.125  0.00  0.00    -0.351 N 
ATOM     17  H   LIG    1       -4.604  -1.187   2.228  0.00  0.00    +0.166 HD
ATOM     18  C   LIG    1       -3.403  -1.705   6.538  0.00  0.00    +0.034 A 
BRANCH   9  19
ATOM     19  N   LIG    1       -4.037  -3.510   8.055  0.00  0.00    -0.221 N 
ATOM     20  H   LIG    1       -4.387  -4.455   8.100  0.00  0.00    +0.173 HD
BRANCH  19  21
ATOM     21  S   LIG    1       -4.134  -2.578   9.561  0.00  0.00    +0.040 S 
ATOM     22  C   LIG    1       -4.352  -3.932  10.854  0.00  0.00    +0.218 C 
ATOM     23  O   LIG    1       -5.361  -1.777   9.488  0.00  0.00    -0.155 OA
ATOM     24  O   LIG    1       -2.832  -1.931   9.755  0.00  0.00    -0.155 OA
ENDBRANCH  19  21
ENDBRANCH   9  19
ENDBRANCH   1  15
BRANCH   5  25
ATOM     25  C   LIG    1        1.697   0.308  -0.304  0.00  0.00    +0.142 A 
ATOM     26  C   LIG    1        2.276  -0.851  -0.880  0.00  0.00    +0.068 A 
ATOM     27  C   LIG    1        3.653  -0.824  -1.162  0.00  0.00    +0.028 A 
ATOM     28  C   LIG    1        4.408   0.314  -0.887  0.00  0.00    +0.022 A 
ATOM     29  C   LIG    1        3.767   1.415  -0.332  0.00  0.00    +0.113 A 
ATOM     30  N   LIG    1        2.444   1.421  -0.043  0.00  0.00    -0.238 NA
BRANCH  26  31
ATOM     31  N   LIG    1        1.479  -1.972  -1.196  0.00  0.00    -0.339 N 
ATOM     32  H   LIG    1        0.498  -1.935  -0.960  0.00  0.00    +0.146 HD
BRANCH  31  33
ATOM     33  C   LIG    1        2.006  -3.250  -1.667  0.00  0.00    +0.064 C 
ATOM     34  C   LIG    1        1.068  -4.401  -1.269  0.00  0.00    +0.027 C 
ATOM     35  C   LIG    1        2.251  -3.244  -3.188  0.00  0.00    +0.027 C 
ENDBRANCH  31  33
ENDBRANCH  26  31
ENDBRANCH   5  25
TORSDOF 6
