REMARK  Name = DB00626
REMARK                            x       y       z     vdW  Elec       q    Type
REMARK                         _______ _______ _______ _____ _____    ______ ____
ROOT
ATOM      1  C   LIG    1        2.617   2.667  -2.612  0.00  0.00    +0.159 C 
ATOM      2  C   LIG    1        1.929   4.005  -2.987  0.00  0.00    +0.032 C 
ATOM      3  C   LIG    1        2.324   4.653  -4.336  0.00  0.00    +0.004 C 
ATOM      4  C   LIG    1        2.223   3.725  -5.562  0.00  0.00    +0.019 C 
ATOM      5  C   LIG    1        2.547   4.443  -6.883  0.00  0.00    +0.104 C 
ATOM      6  N   LIG    1        2.487   3.527  -8.020  0.00  0.00    -0.314 N 
ATOM      7  H   LIG    1        1.867   2.739  -7.902  0.00  0.00    +0.149 HD
ATOM      8  C   LIG    1        3.131   3.631  -9.198  0.00  0.00    +0.234 C 
ATOM      9  O   LIG    1        2.990   2.782 -10.076  0.00  0.00    -0.274 OA
ATOM     10  C   LIG    1        4.066   4.832  -9.451  0.00  0.00    +0.168 C 
ATOM     11  N   LIG    1        5.325   4.635  -8.727  0.00  0.00    -0.302 N 
ATOM     12  H   LIG    1        5.549   3.681  -8.486  0.00  0.00    +0.150 HD
ATOM     13  C   LIG    1        6.148   5.623  -8.342  0.00  0.00    +0.234 C 
ATOM     14  O   LIG    1        5.962   6.816  -8.586  0.00  0.00    -0.274 OA
ATOM     15  C   LIG    1        7.383   5.199  -7.529  0.00  0.00    +0.169 C 
ATOM     16  N   LIG    1        7.298   5.777  -6.185  0.00  0.00    -0.302 N 
ATOM     17  H   LIG    1        7.853   6.605  -6.020  0.00  0.00    +0.150 HD
ATOM     18  C   LIG    1        6.482   5.327  -5.217  0.00  0.00    +0.234 C 
ATOM     19  O   LIG    1        5.780   4.323  -5.326  0.00  0.00    -0.274 OA
ATOM     20  C   LIG    1        6.406   6.155  -3.921  0.00  0.00    +0.165 C 
ATOM     21  N   LIG    1        7.388   5.726  -2.920  0.00  0.00    -0.302 N 
ATOM     22  H   LIG    1        6.992   5.247  -2.124  0.00  0.00    +0.150 HD
ATOM     23  C   LIG    1        8.726   5.874  -2.963  0.00  0.00    +0.234 C 
ATOM     24  O   LIG    1        9.332   6.435  -3.875  0.00  0.00    -0.274 OA
ATOM     25  C   LIG    1        9.547   5.289  -1.796  0.00  0.00    +0.163 C 
ATOM     26  N   LIG    1        9.045   4.005  -1.278  0.00  0.00    -0.302 N 
ATOM     27  H   LIG    1        9.533   3.202  -1.648  0.00  0.00    +0.150 HD
ATOM     28  C   LIG    1        7.989   3.759  -0.479  0.00  0.00    +0.234 C 
ATOM     29  O   LIG    1        7.291   4.629   0.041  0.00  0.00    -0.274 OA
ATOM     30  C   LIG    1        7.602   2.277  -0.260  0.00  0.00    +0.162 C 
ATOM     31  N   LIG    1        6.790   1.775  -1.375  0.00  0.00    -0.302 N 
ATOM     32  H   LIG    1        5.819   1.621  -1.146  0.00  0.00    +0.150 HD
ATOM     33  C   LIG    1        7.157   1.619  -2.662  0.00  0.00    +0.234 C 
ATOM     34  O   LIG    1        8.306   1.764  -3.078  0.00  0.00    -0.274 OA
ATOM     35  C   LIG    1        6.058   1.267  -3.688  0.00  0.00    +0.159 C 
ATOM     36  N   LIG    1        4.667   1.535  -3.295  0.00  0.00    -0.302 N 
ATOM     37  H   LIG    1        4.034   0.768  -3.470  0.00  0.00    +0.150 HD
ATOM     38  C   LIG    1        4.142   2.675  -2.810  0.00  0.00    +0.234 C 
ATOM     39  O   LIG    1        4.785   3.676  -2.502  0.00  0.00    -0.274 OA
ENDROOT
BRANCH   1  42
ATOM     40  C   LIG    1        2.319   1.018  -0.775  0.00  0.00    +0.234 C 
ATOM     41  O   LIG    1        2.549   0.023  -1.465  0.00  0.00    -0.274 OA
ATOM     42  N   LIG    1        2.302   2.278  -1.240  0.00  0.00    -0.302 N 
ATOM     43  H   LIG    1        2.083   3.035  -0.608  0.00  0.00    +0.150 HD
BRANCH  40  44
ATOM     44  C   LIG    1        1.991   0.849   0.721  0.00  0.00    +0.162 C 
BRANCH  44  47
ATOM     45  C   LIG    1       -0.482   0.989   0.723  0.00  0.00    +0.234 C 
ATOM     46  O   LIG    1       -0.518   2.218   0.653  0.00  0.00    -0.274 OA
ATOM     47  N   LIG    1        0.650   0.277   0.839  0.00  0.00    -0.302 N 
ATOM     48  H   LIG    1        0.603  -0.729   0.917  0.00  0.00    +0.150 HD
BRANCH  45  49
ATOM     49  C   LIG    1       -1.788   0.174   0.668  0.00  0.00    +0.159 C 
BRANCH  49  52
ATOM     50  C   LIG    1       -3.132   1.505  -1.018  0.00  0.00    +0.234 C 
ATOM     51  O   LIG    1       -3.317   2.517  -0.340  0.00  0.00    -0.274 OA
ATOM     52  N   LIG    1       -2.501   0.393  -0.597  0.00  0.00    -0.302 N 
ATOM     53  H   LIG    1       -2.430  -0.376  -1.248  0.00  0.00    +0.150 HD
BRANCH  50  54
ATOM     54  C   LIG    1       -3.583   1.486  -2.488  0.00  0.00    +0.159 C 
BRANCH  54  57
ATOM     55  C   LIG    1       -6.055   1.769  -2.279  0.00  0.00    +0.239 C 
ATOM     56  O   LIG    1       -6.218   0.663  -1.756  0.00  0.00    -0.273 OA
ATOM     57  N   LIG    1       -4.845   2.205  -2.674  0.00  0.00    -0.302 N 
ATOM     58  H   LIG    1       -4.768   3.117  -3.099  0.00  0.00    +0.150 HD
BRANCH  55  62
ATOM     59  S   LIG    1       -8.742   4.347  -0.997  0.00  0.00    -0.106 S 
ATOM     60  C   LIG    1       -9.295   2.744  -1.585  0.00  0.00    +0.087 C 
ATOM     61  N   LIG    1       -8.485   2.076  -2.301  0.00  0.00    -0.266 NA
ATOM     62  C   LIG    1       -7.226   2.758  -2.522  0.00  0.00    +0.202 C 
ATOM     63  C   LIG    1       -7.097   4.008  -1.632  0.00  0.00    +0.112 C 
BRANCH  60  64
ATOM     64  C   LIG    1      -10.675   2.187  -1.229  0.00  0.00    +0.109 C 
BRANCH  64  65
ATOM     65  N   LIG    1      -10.763   1.974   0.208  0.00  0.00    -0.322 NA
ATOM     66  H   LIG    1      -10.059   1.307   0.493  0.00  0.00    +0.119 HD
ATOM     67  H   LIG    1      -11.657   1.560   0.433  0.00  0.00    +0.119 HD
ENDBRANCH  64  65
BRANCH  64  68
ATOM     68  C   LIG    1      -11.850   3.092  -1.735  0.00  0.00    +0.009 C 
ATOM     69  C   LIG    1      -11.809   3.337  -3.264  0.00  0.00    +0.009 C 
BRANCH  68  70
ATOM     70  C   LIG    1      -13.260   2.596  -1.305  0.00  0.00    +0.002 C 
ATOM     71  C   LIG    1      -13.654   1.198  -1.811  0.00  0.00    +0.004 C 
ENDBRANCH  68  70
ENDBRANCH  64  68
ENDBRANCH  60  64
ENDBRANCH  55  62
ENDBRANCH  54  57
BRANCH  54  72
ATOM     72  C   LIG    1       -2.494   2.139  -3.371  0.00  0.00    +0.034 C 
BRANCH  72  73
ATOM     73  C   LIG    1       -2.720   1.998  -4.894  0.00  0.00    -0.015 C 
ATOM     74  C   LIG    1       -1.727   2.879  -5.683  0.00  0.00    +0.007 C 
ATOM     75  C   LIG    1       -2.693   0.526  -5.357  0.00  0.00    +0.007 C 
ENDBRANCH  72  73
ENDBRANCH  54  72
ENDBRANCH  50  54
ENDBRANCH  49  52
BRANCH  49  76
ATOM     76  C   LIG    1       -2.704   0.386   1.905  0.00  0.00    +0.043 C 
BRANCH  76  77
ATOM     77  C   LIG    1       -2.058   0.085   3.276  0.00  0.00    +0.123 C 
BRANCH  77  78
ATOM     78  C   LIG    1       -1.647  -1.379   3.433  0.00  0.00    +0.305 C 
ATOM     79  O   LIG    1       -0.498  -1.788   3.279  0.00  0.00    -0.251 OA
BRANCH  78  80
ATOM     80  O   LIG    1       -2.705  -2.181   3.750  0.00  0.00    -0.481 OA
ATOM     81  H   LIG    1       -2.454  -3.103   3.845  0.00  0.00    +0.295 HD
ENDBRANCH  78  80
ENDBRANCH  77  78
ENDBRANCH  76  77
ENDBRANCH  49  76
ENDBRANCH  45  49
ENDBRANCH  44  47
BRANCH  44  82
ATOM     82  C   LIG    1        3.066  -0.045   1.414  0.00  0.00    +0.015 C 
ATOM     83  C   LIG    1        4.525   0.384   1.127  0.00  0.00    +0.010 C 
BRANCH  82  84
ATOM     84  C   LIG    1        2.825  -0.095   2.942  0.00  0.00    +0.002 C 
ATOM     85  C   LIG    1        3.616  -1.195   3.667  0.00  0.00    +0.004 C 
ENDBRANCH  82  84
ENDBRANCH  44  82
ENDBRANCH  40  44
ENDBRANCH   1  42
BRANCH  30  86
ATOM     86  C   LIG    1        8.830   1.372   0.091  0.00  0.00    +0.015 C 
ATOM     87  C   LIG    1        9.750   1.956   1.187  0.00  0.00    +0.010 C 
BRANCH  86  88
ATOM     88  C   LIG    1        8.355  -0.043   0.503  0.00  0.00    +0.002 C 
ATOM     89  C   LIG    1        9.479  -1.088   0.581  0.00  0.00    +0.004 C 
ENDBRANCH  86  88
ENDBRANCH  30  86
BRANCH  10  90
ATOM     90  C   LIG    1        4.309   5.163 -10.956  0.00  0.00    +0.127 C 
BRANCH  90  91
ATOM     91  C   LIG    1        5.317   4.272 -11.700  0.00  0.00    +0.213 C 
ATOM     92  N   LIG    1        4.823   3.390 -12.572  0.00  0.00    -0.329 N 
ATOM     93  H   LIG    1        3.825   3.309 -12.708  0.00  0.00    +0.145 HD
ATOM     94  H   LIG    1        5.444   2.789 -13.093  0.00  0.00    +0.145 HD
ATOM     95  O   LIG    1        6.526   4.395 -11.512  0.00  0.00    -0.276 OA
ENDBRANCH  90  91
ENDBRANCH  10  90
BRANCH  15  96
ATOM     96  C   LIG    1        8.693   5.606  -8.255  0.00  0.00    +0.152 C 
BRANCH  96  97
ATOM     97  C   LIG    1        9.937   5.579  -7.361  0.00  0.00    +0.307 C 
ATOM     98  O   LIG    1       10.534   4.549  -7.054  0.00  0.00    -0.251 OA
BRANCH  97  99
ATOM     99  O   LIG    1       10.294   6.823  -6.929  0.00  0.00    -0.481 OA
ATOM    100  H   LIG    1       11.060   6.806  -6.349  0.00  0.00    +0.295 HD
ENDBRANCH  97  99
ENDBRANCH  96  97
ENDBRANCH  15  96
BRANCH  20 101
ATOM    101  C   LIG    1        6.413   7.689  -4.143  0.00  0.00    +0.088 C 
BRANCH 101 102
ATOM    102  C   LIG    1        5.334   8.186  -5.078  0.00  0.00    +0.061 A 
ATOM    103  C   LIG    1        5.468   8.954  -6.216  0.00  0.00    +0.107 A 
ATOM    104  N   LIG    1        4.196   9.099  -6.739  0.00  0.00    -0.351 N 
ATOM    105  H   LIG    1        3.946   9.599  -7.581  0.00  0.00    +0.166 HD
ATOM    106  C   LIG    1        3.363   8.447  -5.928  0.00  0.00    +0.196 A 
ATOM    107  N   LIG    1        3.979   7.878  -4.901  0.00  0.00    -0.241 NA
ENDBRANCH 101 102
ENDBRANCH  20 101
BRANCH  25 108
ATOM    108  C   LIG    1        9.793   6.353  -0.697  0.00  0.00    +0.067 C 
BRANCH 108 109
ATOM    109  C   LIG    1       10.828   5.973   0.346  0.00  0.00    -0.045 A 
ATOM    110  C   LIG    1       12.197   5.939   0.006  0.00  0.00    +0.004 A 
ATOM    111  C   LIG    1       13.134   5.517   0.940  0.00  0.00    +0.000 A 
ATOM    112  C   LIG    1       12.727   5.111   2.206  0.00  0.00    +0.000 A 
ATOM    113  C   LIG    1       11.381   5.117   2.547  0.00  0.00    +0.000 A 
ATOM    114  C   LIG    1       10.428   5.534   1.626  0.00  0.00    +0.004 A 
ENDBRANCH 108 109
ENDBRANCH  25 108
BRANCH  35 115
ATOM    115  C   LIG    1        6.228  -0.193  -4.160  0.00  0.00    +0.033 C 
BRANCH 115 116
ATOM    116  C   LIG    1        5.348  -0.549  -5.375  0.00  0.00    +0.017 C 
BRANCH 116 117
ATOM    117  C   LIG    1        5.594  -1.981  -5.877  0.00  0.00    +0.078 C 
BRANCH 117 118
ATOM    118  N   LIG    1        4.761  -2.260  -7.031  0.00  0.00    -0.330 NA
ATOM    119  H   LIG    1        4.960  -1.593  -7.763  0.00  0.00    +0.118 HD
ATOM    120  H   LIG    1        3.788  -2.141  -6.787  0.00  0.00    +0.118 HD
ENDBRANCH 117 118
ENDBRANCH 116 117
ENDBRANCH 115 116
ENDBRANCH  35 115
TORSDOF 35
