REMARK  Name = DB00233
REMARK                            x       y       z     vdW  Elec       q    Type
REMARK                         _______ _______ _______ _____ _____    ______ ____
ROOT
ATOM      1  C   LIG    1        1.373   0.014   0.000  0.00  0.00    +0.133 A 
ATOM      2  C   LIG    1        2.074   1.223   0.000  0.00  0.00    +0.069 A 
ATOM      3  C   LIG    1        3.467   1.235   0.000  0.00  0.00    +0.028 A 
ATOM      4  C   LIG    1        4.167   0.033   0.000  0.00  0.00    +0.024 A 
ATOM      5  C   LIG    1        3.476  -1.177   0.000  0.00  0.00    +0.020 A 
ATOM      6  C   LIG    1        2.070  -1.217   0.000  0.00  0.00    +0.100 A 
ENDROOT
BRANCH   3   7
ATOM      7  N   LIG    1        4.156   2.447   0.000  0.00  0.00    -0.358 N 
ATOM      8  H   LIG    1        3.637   3.313   0.000  0.00  0.00    +0.142 HD
ATOM      9  H   LIG    1        5.165   2.444   0.000  0.00  0.00    +0.142 HD
ENDBRANCH   3   7
BRANCH   1  10
ATOM     10  O   LIG    1        0.002   0.096   0.000  0.00  0.00    -0.506 OA
ATOM     11  H   LIG    1       -0.317   1.001   0.000  0.00  0.00    +0.292 HD
ENDBRANCH   1  10
BRANCH   6  12
ATOM     12  C   LIG    1        1.354  -2.558   0.000  0.00  0.00    +0.340 C 
ATOM     13  O   LIG    1        0.129  -2.667   0.000  0.00  0.00    -0.245 OA
BRANCH  12  14
ATOM     14  O   LIG    1        2.175  -3.650  -0.000  0.00  0.00    -0.477 OA
ATOM     15  H   LIG    1        1.681  -4.473  -0.000  0.00  0.00    +0.295 HD
ENDBRANCH  12  14
ENDBRANCH   6  12
TORSDOF 4
