REMARK  Name = DB00152
REMARK                            x       y       z     vdW  Elec       q    Type
REMARK                         _______ _______ _______ _____ _____    ______ ____
ROOT
ATOM      1  C   LIG    1        1.331  -0.476   0.076  0.00  0.00    +0.162 C 
ENDROOT
BRANCH   1   2
ATOM      2  C   LIG    1        1.921  -0.252   1.474  0.00  0.00    +0.030 A 
ATOM      3  C   LIG    1        1.171  -0.499   2.636  0.00  0.00    +0.121 A 
ATOM      4  N   LIG    1        1.659  -0.307   3.888  0.00  0.00    -0.240 NA
ATOM      5  C   LIG    1        2.938   0.140   3.963  0.00  0.00    +0.128 A 
ATOM      6  C   LIG    1        3.512   0.366   5.349  0.00  0.00    +0.088 C 
ATOM      7  N   LIG    1        3.759   0.400   2.914  0.00  0.00    -0.218 NA
ATOM      8  C   LIG    1        3.241   0.197   1.674  0.00  0.00    +0.125 A 
BRANCH   8   9
ATOM      9  N   LIG    1        4.100   0.456   0.605  0.00  0.00    -0.343 N 
ATOM     10  H   LIG    1        5.041   0.769   0.795  0.00  0.00    +0.144 HD
ATOM     11  H   LIG    1        3.780   0.315  -0.342  0.00  0.00    +0.144 HD
ENDBRANCH   8   9
ENDBRANCH   1   2
BRANCH   1  14
ATOM     12  S   LIG    1       -2.621  -0.919  -0.237  0.00  0.00    -0.082 S 
ATOM     13  C   LIG    1       -0.965  -1.402  -0.160  0.00  0.00    +0.132 A 
ATOM     14  N   LIG    1       -0.124  -0.315  -0.029  0.00  0.00    -0.340 N 
ATOM     15  C   LIG    1       -0.800   0.914   0.013  0.00  0.00    +0.026 A 
ATOM     16  C   LIG    1       -0.004   2.200   0.157  0.00  0.00    +0.064 C 
ATOM     17  C   LIG    1       -2.194   0.778  -0.083  0.00  0.00    +0.012 A 
BRANCH  17  18
ATOM     18  C   LIG    1       -3.268   1.852  -0.065  0.00  0.00    +0.072 C 
BRANCH  18  19
ATOM     19  C   LIG    1       -3.506   2.503  -1.440  0.00  0.00    +0.161 C 
BRANCH  19  20
ATOM     20  O   LIG    1       -3.949   1.558  -2.394  0.00  0.00    -0.395 OA
ATOM     21  H   LIG    1       -4.111   2.013  -3.224  0.00  0.00    +0.209 HD
ENDBRANCH  19  20
ENDBRANCH  18  19
ENDBRANCH  17  18
ENDBRANCH   1  14
TORSDOF 6
