REMARK  Name = DB00459
REMARK                            x       y       z     vdW  Elec       q    Type
REMARK                         _______ _______ _______ _____ _____    ______ ____
ROOT
ATOM      1  C   LIG    1        1.529  -0.297   0.316  0.00  0.00    +0.009 C 
ATOM      2  C   LIG    1        2.320  -1.185  -0.321  0.00  0.00    +0.004 C 
ENDROOT
BRANCH   1   5
ATOM      3  C   LIG    1       -0.532   1.055  -0.108  0.00  0.00    -0.037 A 
ATOM      4  C   LIG    1        0.348   2.293  -0.324  0.00  0.00    +0.045 C 
ATOM      5  C   LIG    1        0.056  -0.197   0.180  0.00  0.00    -0.019 A 
ATOM      6  C   LIG    1       -0.772  -1.325   0.344  0.00  0.00    -0.040 A 
ATOM      7  C   LIG    1       -0.226  -2.697   0.731  0.00  0.00    +0.044 C 
ATOM      8  C   LIG    1       -2.153  -1.199   0.203  0.00  0.00    +0.049 A 
ATOM      9  C   LIG    1       -2.751   0.034  -0.085  0.00  0.00    +0.124 A 
ATOM     10  C   LIG    1       -1.934   1.166  -0.229  0.00  0.00    -0.005 A 
ATOM     11  C   LIG    1       -2.585   2.526  -0.497  0.00  0.00    +0.048 C 
BRANCH   9  12
ATOM     12  O   LIG    1       -4.119   0.194  -0.234  0.00  0.00    -0.495 OA
ATOM     13  C   LIG    1       -4.984  -0.930  -0.103  0.00  0.00    +0.277 C 
ENDBRANCH   9  12
ENDBRANCH   1   5
BRANCH   2  14
ATOM     14  C   LIG    1        3.767  -1.278  -0.170  0.00  0.00    -0.050 C 
ATOM     15  C   LIG    1        4.362  -2.676  -0.043  0.00  0.00    +0.044 C 
ATOM     16  C   LIG    1        4.512  -0.146  -0.150  0.00  0.00    +0.003 C 
BRANCH  16  17
ATOM     17  C   LIG    1        5.955  -0.053   0.005  0.00  0.00    +0.001 C 
ATOM     18  C   LIG    1        6.614   1.123  -0.013  0.00  0.00    +0.003 C 
BRANCH  18  19
ATOM     19  C   LIG    1        8.056   1.284   0.134  0.00  0.00    -0.044 C 
ATOM     20  C   LIG    1        8.527   2.393   1.073  0.00  0.00    +0.044 C 
ATOM     21  C   LIG    1        8.886   0.417  -0.507  0.00  0.00    +0.094 C 
BRANCH  21  22
ATOM     22  C   LIG    1       10.333   0.426  -0.495  0.00  0.00    +0.330 C 
ATOM     23  O   LIG    1       11.045   1.383  -0.194  0.00  0.00    -0.246 OA
BRANCH  22  24
ATOM     24  O   LIG    1       10.835  -0.768  -0.923  0.00  0.00    -0.478 OA
ATOM     25  H   LIG    1       11.794  -0.772  -0.942  0.00  0.00    +0.295 HD
ENDBRANCH  22  24
ENDBRANCH  21  22
ENDBRANCH  18  19
ENDBRANCH  16  17
ENDBRANCH   2  14
TORSDOF 7
