REMARK  Name = DB00939
REMARK                            x       y       z     vdW  Elec       q    Type
REMARK                         _______ _______ _______ _____ _____    ______ ____
ROOT
ATOM      1  N   LIG    1        0.214   0.415   0.762  0.00  0.00    -0.312 N 
ATOM      2  H   LIG    1       -0.151  -0.294   1.383  0.00  0.00    +0.152 HD
ENDROOT
BRANCH   1  11
ATOM      3 CL   LIG    1        2.115   1.837   2.611  0.00  0.00    -0.081 Cl
ATOM      4  C   LIG    1        2.561   0.908   1.211  0.00  0.00    +0.066 A 
ATOM      5  C   LIG    1        3.916   0.778   0.863  0.00  0.00    -0.030 A 
ATOM      6  C   LIG    1        5.011   1.437   1.690  0.00  0.00    +0.045 C 
ATOM      7  C   LIG    1        4.272   0.032  -0.263  0.00  0.00    +0.006 A 
ATOM      8  C   LIG    1        3.294  -0.583  -1.039  0.00  0.00    +0.022 A 
ATOM      9  C   LIG    1        1.948  -0.460  -0.703  0.00  0.00    +0.064 A 
ATOM     10 CL   LIG    1        0.775  -1.246  -1.707  0.00  0.00    -0.082 Cl
ATOM     11  C   LIG    1        1.572   0.290   0.424  0.00  0.00    +0.069 A 
ENDBRANCH   1  11
BRANCH   1  12
ATOM     12  C   LIG    1       -0.714   1.395   0.357  0.00  0.00    +0.045 A 
ATOM     13  C   LIG    1       -0.278   2.414  -0.506  0.00  0.00    +0.024 A 
ATOM     14  C   LIG    1       -1.145   3.409  -0.941  0.00  0.00    +0.002 A 
ATOM     15  C   LIG    1       -2.467   3.404  -0.519  0.00  0.00    +0.001 A 
ATOM     16  C   LIG    1       -2.920   2.405   0.337  0.00  0.00    +0.017 A 
ATOM     17  C   LIG    1       -2.066   1.382   0.795  0.00  0.00    +0.080 A 
BRANCH  17  18
ATOM     18  C   LIG    1       -2.628   0.318   1.731  0.00  0.00    +0.339 C 
ATOM     19  O   LIG    1       -1.959  -0.611   2.181  0.00  0.00    -0.245 OA
BRANCH  18  20
ATOM     20  O   LIG    1       -3.950   0.464   2.046  0.00  0.00    -0.477 OA
ATOM     21  H   LIG    1       -4.258  -0.227   2.637  0.00  0.00    +0.295 HD
ENDBRANCH  18  20
ENDBRANCH  17  18
ENDBRANCH   1  12
TORSDOF 4
