REMARK  Name = DB00156
REMARK                            x       y       z     vdW  Elec       q    Type
REMARK                         _______ _______ _______ _____ _____    ______ ____
ROOT
ATOM      1  CA  THR A  1        0.023   0.063  -0.001  0.00  0.00    +0.189 C 
ENDROOT
BRANCH   1   2
ATOM      2  N   THR A  1       -0.465   1.454   0.076  0.00  0.00    -0.316 NA
ATOM      3  H1  THR A  1       -0.360   1.920  -0.814  0.00  0.00    +0.119 HD
ATOM      4  H2  THR A  1        0.075   1.986   0.744  0.00  0.00    +0.119 HD
ENDBRANCH   1   2
BRANCH   1   6
ATOM      5  O   THR A  1       -0.403  -0.301   2.382  0.00  0.00    -0.249 OA
ATOM      6  C   THR A  1       -0.578  -0.670   1.220  0.00  0.00    +0.324 C 
BRANCH   6   7
ATOM      7  OXT THR A  1       -1.295  -1.766   0.837  0.00  0.00    -0.479 OA
ATOM      8  HXT THR A  1       -1.672  -2.233   1.586  0.00  0.00    +0.295 HD
ENDBRANCH   6   7
ENDBRANCH   1   6
BRANCH   1   9
ATOM      9  CB  THR A  1        1.575  -0.063   0.060  0.00  0.00    +0.139 C 
ATOM     10  CG2 THR A  1        2.116  -1.507   0.002  0.00  0.00    +0.040 C 
BRANCH   9  11
ATOM     11  OG1 THR A  1        2.132   0.600  -1.061  0.00  0.00    -0.390 OA
ATOM     12  HG1 THR A  1        1.906   1.531  -1.007  0.00  0.00    +0.210 HD
ENDBRANCH   9  11
ENDBRANCH   1   9
TORSDOF 5
