REMARK  Name = DB00956
REMARK                            x       y       z     vdW  Elec       q    Type
REMARK                         _______ _______ _______ _____ _____    ______ ____
ROOT
ATOM      1  O   LIG    1        1.549  -2.395  -0.149  0.00  0.00    -0.476 OA
ATOM      2  C   LIG    1        2.100  -1.136  -0.038  0.00  0.00    +0.167 A 
ATOM      3  C   LIG    1        1.433   0.086   0.037  0.00  0.00    +0.162 A 
ATOM      4  C   LIG    1        2.223   1.256   0.023  0.00  0.00    +0.050 A 
ATOM      5  C   LIG    1        3.622   1.179  -0.097  0.00  0.00    +0.008 A 
ATOM      6  C   LIG    1        4.276  -0.059  -0.162  0.00  0.00    -0.038 A 
ATOM      7  C   LIG    1        5.780  -0.246  -0.401  0.00  0.00    +0.054 C 
ATOM      8  C   LIG    1        6.256  -1.720  -0.161  0.00  0.00    +0.065 C 
ATOM      9  C   LIG    1        5.245  -2.775  -0.750  0.00  0.00    +0.021 C 
ATOM     10  C   LIG    1        5.027  -2.729  -2.276  0.00  0.00    +0.014 C 
ATOM     11  C   LIG    1        3.983  -3.778  -2.714  0.00  0.00    +0.078 C 
ATOM     12  C   LIG    1        2.616  -3.498  -2.069  0.00  0.00    +0.174 C 
ATOM     13  O   LIG    1        1.594  -3.387  -2.746  0.00  0.00    -0.293 OA
ATOM     14  C   LIG    1        3.914  -2.619   0.018  0.00  0.00    +0.049 C 
ATOM     15  C   LIG    1        4.226  -3.030   1.482  0.00  0.00    +0.031 C 
ATOM     16  C   LIG    1        5.320  -2.137   2.118  0.00  0.00    +0.085 C 
ATOM     17  N   LIG    1        6.524  -1.973   1.278  0.00  0.00    -0.302 NA
ATOM     18  C   LIG    1        7.461  -3.079   1.470  0.00  0.00    +0.105 C 
ATOM     19  C   LIG    1        3.470  -1.190  -0.060  0.00  0.00    +0.012 A 
ATOM     20  C   LIG    1        2.623  -3.292  -0.528  0.00  0.00    +0.250 C 
ENDROOT
BRANCH   3  21
ATOM     21  O   LIG    1        0.055   0.043   0.090  0.00  0.00    -0.491 OA
ATOM     22  C   LIG    1       -0.661   1.271   0.146  0.00  0.00    +0.277 C 
ENDBRANCH   3  21
TORSDOF 1
