REMARK  Name = DB00656
REMARK                            x       y       z     vdW  Elec       q    Type
REMARK                         _______ _______ _______ _____ _____    ______ ____
ROOT
ATOM      1  N   LIG    1       -1.994   3.178   0.214  0.00  0.00    -0.327 N 
ATOM      2  C   LIG    1       -0.781   3.411  -0.596  0.00  0.00    +0.120 C 
ATOM      3  C   LIG    1       -0.162   2.125  -1.191  0.00  0.00    +0.103 C 
ATOM      4  N   LIG    1        0.128   1.154  -0.135  0.00  0.00    -0.299 NA
ATOM      5  C   LIG    1       -1.135   0.814   0.515  0.00  0.00    +0.103 C 
ATOM      6  C   LIG    1       -1.771   2.066   1.160  0.00  0.00    +0.120 C 
ENDROOT
BRANCH   1  12
ATOM      7 CL   LIG    1       -3.032   8.227   0.315  0.00  0.00    -0.083 Cl
ATOM      8  C   LIG    1       -3.458   6.580   0.611  0.00  0.00    +0.043 A 
ATOM      9  C   LIG    1       -4.699   6.270   1.161  0.00  0.00    +0.020 A 
ATOM     10  C   LIG    1       -5.040   4.941   1.396  0.00  0.00    +0.003 A 
ATOM     11  C   LIG    1       -4.138   3.923   1.083  0.00  0.00    +0.023 A 
ATOM     12  C   LIG    1       -2.877   4.211   0.535  0.00  0.00    +0.031 A 
ATOM     13  C   LIG    1       -2.558   5.560   0.299  0.00  0.00    +0.043 A 
ENDBRANCH   1  12
BRANCH   4  14
ATOM     14  C   LIG    1        0.774  -0.057  -0.653  0.00  0.00    +0.086 C 
BRANCH  14  15
ATOM     15  C   LIG    1        2.224   0.184  -1.137  0.00  0.00    +0.039 C 
BRANCH  15  16
ATOM     16  C   LIG    1        3.177   0.841  -0.110  0.00  0.00    +0.150 C 
BRANCH  16  17
ATOM     17  N   LIG    1        3.222   0.148   1.185  0.00  0.00    -0.212 N 
ATOM     18  C   LIG    1        2.689   0.630   2.332  0.00  0.00    +0.351 A 
ATOM     19  N   LIG    1        2.939  -0.379   3.184  0.00  0.00    -0.251 N 
ATOM     20  C   LIG    1        2.632  -0.496   4.524  0.00  0.00    +0.098 A 
ATOM     21  C   LIG    1        2.951  -1.588   5.258  0.00  0.00    +0.018 A 
ATOM     22  C   LIG    1        3.651  -2.675   4.576  0.00  0.00    +0.005 A 
ATOM     23  C   LIG    1        3.951  -2.558   3.257  0.00  0.00    +0.049 A 
ATOM     24  C   LIG    1        3.587  -1.366   2.504  0.00  0.00    +0.162 A 
ATOM     25  O   LIG    1        2.118   1.702   2.544  0.00  0.00    -0.244 OA
ATOM     26  N   LIG    1        3.767  -1.073   1.299  0.00  0.00    -0.149 NA
ENDBRANCH  16  17
ENDBRANCH  15  16
ENDBRANCH  14  15
ENDBRANCH   4  14
TORSDOF 5
