REMARK  Name = DB00589
REMARK                            x       y       z     vdW  Elec       q    Type
REMARK                         _______ _______ _______ _____ _____    ______ ____
ROOT
ATOM      1  C   LIG    1        3.351  -1.332   0.308  0.00  0.00    +0.112 C 
ATOM      2  C   LIG    1        4.218  -0.427  -0.562  0.00  0.00    +0.002 C 
ATOM      3  C   LIG    1        5.460  -0.051  -0.199  0.00  0.00    -0.024 C 
ATOM      4  C   LIG    1        6.304   0.877  -0.982  0.00  0.00    -0.011 A 
ATOM      5  C   LIG    1        6.213   1.123  -2.358  0.00  0.00    +0.009 A 
ATOM      6  C   LIG    1        7.068   2.038  -2.987  0.00  0.00    +0.003 A 
ATOM      7  C   LIG    1        8.043   2.762  -2.284  0.00  0.00    +0.026 A 
ATOM      8  C   LIG    1        8.112   2.542  -0.903  0.00  0.00    +0.047 A 
ATOM      9  N   LIG    1        8.893   3.040   0.126  0.00  0.00    -0.360 N 
ATOM     10  H   LIG    1        9.633   3.723   0.058  0.00  0.00    +0.165 HD
ATOM     11  C   LIG    1        8.514   2.474   1.331  0.00  0.00    +0.087 A 
ATOM     12  C   LIG    1        7.468   1.589   1.124  0.00  0.00    -0.020 A 
ATOM     13  C   LIG    1        6.566   0.691   1.975  0.00  0.00    +0.061 C 
ATOM     14  C   LIG    1        7.246   1.628  -0.282  0.00  0.00    +0.010 A 
ATOM     15  C   LIG    1        6.102  -0.550   1.123  0.00  0.00    +0.091 C 
ATOM     16  N   LIG    1        5.291  -1.557   1.841  0.00  0.00    -0.296 NA
ATOM     17  C   LIG    1        5.747  -1.892   3.187  0.00  0.00    +0.105 C 
ATOM     18  C   LIG    1        3.848  -1.305   1.782  0.00  0.00    +0.111 C 
ENDROOT
BRANCH   1  22
ATOM     19  O   LIG    1        1.709   0.934   0.992  0.00  0.00    -0.253 OA
ATOM     20  C   LIG    1        1.193  -0.043   0.443  0.00  0.00    +0.303 C 
ATOM     21  N   LIG    1       -0.133  -0.096   0.131  0.00  0.00    -0.286 N 
ATOM     22  N   LIG    1        1.915  -1.133   0.103  0.00  0.00    -0.292 N 
ATOM     23  H   LIG    1        1.442  -1.869  -0.401  0.00  0.00    +0.151 HD
BRANCH  21  24
ATOM     24  C   LIG    1       -1.030   1.030   0.436  0.00  0.00    +0.106 C 
ATOM     25  C   LIG    1       -1.114   2.055  -0.706  0.00  0.00    +0.024 C 
ENDBRANCH  21  24
BRANCH  21  26
ATOM     26  C   LIG    1       -0.798  -1.223  -0.550  0.00  0.00    +0.106 C 
ATOM     27  C   LIG    1       -1.157  -2.378   0.398  0.00  0.00    +0.024 C 
ENDBRANCH  21  26
ENDBRANCH   1  22
TORSDOF 3
