REMARK  Name = DB00394
REMARK                            x       y       z     vdW  Elec       q    Type
REMARK                         _______ _______ _______ _____ _____    ______ ____
ROOT
ATOM      1  C   LIG    1        5.228  -0.081   4.731  0.00  0.00    +0.029 C 
ATOM      2  C   LIG    1        4.351  -0.315   3.418  0.00  0.00    +0.086 C 
ATOM      3  C   LIG    1        4.136   1.039   2.635  0.00  0.00    +0.018 C 
ATOM      4  C   LIG    1        3.261   0.834   1.363  0.00  0.00    +0.005 C 
ATOM      5  C   LIG    1        1.864   0.234   1.654  0.00  0.00    +0.021 C 
ATOM      6  C   LIG    1        0.997   1.154   2.585  0.00  0.00    +0.016 C 
ATOM      7  C   LIG    1        2.108  -1.149   2.345  0.00  0.00    +0.044 C 
ATOM      8  C   LIG    1        1.279   0.199   0.178  0.00  0.00    +0.182 C 
ATOM      9  C   LIG    1        1.811   1.559  -0.466  0.00  0.00    +0.038 C 
ATOM     10  C   LIG    1        0.831   2.718  -0.758  0.00  0.00    +0.012 C 
ATOM     11  C   LIG    1        2.987   2.019   0.431  0.00  0.00    +0.012 C 
ATOM     12  C   LIG    1        5.480   1.742   2.325  0.00  0.00    +0.010 C 
ATOM     13  C   LIG    1        6.336   1.971   3.582  0.00  0.00    +0.032 C 
ATOM     14 CL   LIG    1        5.304  -1.418   2.343  0.00  0.00    -0.114 Cl
ATOM     15  C   LIG    1        2.983  -1.079   3.635  0.00  0.00    +0.137 C 
ATOM     16  C   LIG    1        6.542   0.642   4.309  0.00  0.00    -0.055 C 
ATOM     17  C   LIG    1        7.778   0.140   4.545  0.00  0.00    +0.051 C 
ATOM     18  C   LIG    1        8.060  -1.129   5.217  0.00  0.00    +0.179 C 
ATOM     19  O   LIG    1        9.198  -1.547   5.418  0.00  0.00    -0.288 OA
ATOM     20  C   LIG    1        6.859  -1.854   5.625  0.00  0.00    +0.047 C 
ATOM     21  C   LIG    1        4.563   0.793   5.834  0.00  0.00    +0.022 C 
ATOM     22  C   LIG    1        5.604  -1.407   5.417  0.00  0.00    -0.011 C 
ENDROOT
BRANCH   8  23
ATOM     23  C   LIG    1       -0.273  -0.082   0.184  0.00  0.00    +0.214 C 
ATOM     24  O   LIG    1       -1.101   0.829   0.137  0.00  0.00    -0.289 OA
BRANCH  23  25
ATOM     25  C   LIG    1       -0.755  -1.542   0.264  0.00  0.00    +0.310 C 
BRANCH  25  26
ATOM     26  O   LIG    1       -2.072  -1.616   0.799  0.00  0.00    -0.457 OA
BRANCH  26  27
ATOM     27  C   LIG    1       -2.613  -2.805   1.137  0.00  0.00    +0.307 C 
ATOM     28  O   LIG    1       -2.075  -3.908   1.020  0.00  0.00    -0.251 OA
BRANCH  27  29
ATOM     29  C   LIG    1       -4.024  -2.669   1.713  0.00  0.00    +0.117 C 
ATOM     30  C   LIG    1       -4.066  -1.850   3.014  0.00  0.00    +0.015 C 
ENDBRANCH  27  29
ENDBRANCH  26  27
ENDBRANCH  25  26
ENDBRANCH  23  25
ENDBRANCH   8  23
BRANCH  15  31
ATOM     31  O   LIG    1        2.200  -0.612   4.715  0.00  0.00    -0.390 OA
ATOM     32  H   LIG    1        2.725  -0.668   5.517  0.00  0.00    +0.210 HD
ENDBRANCH  15  31
BRANCH   8  33
ATOM     33  O   LIG    1        1.896  -0.923  -0.519  0.00  0.00    -0.449 OA
BRANCH  33  34
ATOM     34  C   LIG    1        1.748  -1.240  -1.846  0.00  0.00    +0.308 C 
ATOM     35  O   LIG    1        1.052  -0.630  -2.660  0.00  0.00    -0.251 OA
BRANCH  34  36
ATOM     36  C   LIG    1        2.559  -2.486  -2.220  0.00  0.00    +0.117 C 
ATOM     37  C   LIG    1        2.406  -2.932  -3.686  0.00  0.00    +0.015 C 
ENDBRANCH  34  36
ENDBRANCH  33  34
ENDBRANCH   8  33
TORSDOF 9
