REMARK  Name = DB00498
REMARK                            x       y       z     vdW  Elec       q    Type
REMARK                         _______ _______ _______ _____ _____    ______ ____
ROOT
ATOM      1  O   LIG    1       -0.177  -0.735   2.391  0.00  0.00    -0.291 OA
ATOM      2  C   LIG    1       -0.452  -0.951   1.211  0.00  0.00    +0.179 C 
ATOM      3  C   LIG    1       -1.384  -1.966   0.688  0.00  0.00    +0.029 A 
ATOM      4  C   LIG    1       -2.183  -2.872   1.390  0.00  0.00    +0.012 A 
ATOM      5  C   LIG    1       -2.986  -3.771   0.686  0.00  0.00    +0.001 A 
ATOM      6  C   LIG    1       -2.987  -3.767  -0.711  0.00  0.00    +0.001 A 
ATOM      7  C   LIG    1       -2.184  -2.864  -1.411  0.00  0.00    +0.012 A 
ATOM      8  C   LIG    1       -1.385  -1.962  -0.705  0.00  0.00    +0.029 A 
ATOM      9  C   LIG    1       -0.452  -0.945  -1.222  0.00  0.00    +0.179 C 
ATOM     10  O   LIG    1       -0.176  -0.723  -2.400  0.00  0.00    -0.291 OA
ATOM     11  C   LIG    1        0.097  -0.196  -0.004  0.00  0.00    +0.161 C 
ENDROOT
BRANCH  11  12
ATOM     12  C   LIG    1        1.626  -0.069  -0.002  0.00  0.00    -0.029 A 
ATOM     13  C   LIG    1        2.200   1.206  -0.001  0.00  0.00    +0.005 A 
ATOM     14  C   LIG    1        3.585   1.350   0.002  0.00  0.00    +0.000 A 
ATOM     15  C   LIG    1        4.398   0.219   0.004  0.00  0.00    +0.000 A 
ATOM     16  C   LIG    1        3.838  -1.057   0.003  0.00  0.00    +0.000 A 
ATOM     17  C   LIG    1        2.453  -1.202  -0.001  0.00  0.00    +0.005 A 
ENDBRANCH  11  12
TORSDOF 1
