REMARK  Name = DB00268
REMARK                            x       y       z     vdW  Elec       q    Type
REMARK                         _______ _______ _______ _____ _____    ______ ____
ROOT
ATOM      1  O   LIG    1        5.194   3.276  -3.512  0.00  0.00    -0.275 OA
ATOM      2  C   LIG    1        5.090   2.208  -2.912  0.00  0.00    +0.222 C 
ATOM      3  C   LIG    1        3.783   1.559  -2.454  0.00  0.00    +0.133 C 
ATOM      4  C   LIG    1        4.242   0.297  -1.786  0.00  0.00    -0.014 A 
ATOM      5  C   LIG    1        5.622   0.255  -1.868  0.00  0.00    +0.037 A 
ATOM      6  C   LIG    1        6.349  -0.811  -1.341  0.00  0.00    +0.023 A 
ATOM      7  C   LIG    1        5.659  -1.855  -0.723  0.00  0.00    +0.002 A 
ATOM      8  C   LIG    1        4.264  -1.823  -0.638  0.00  0.00    +0.004 A 
ATOM      9  C   LIG    1        3.539  -0.744  -1.163  0.00  0.00    -0.041 A 
ATOM     10  N   LIG    1        6.082   1.384  -2.529  0.00  0.00    -0.285 N 
ATOM     11  H   LIG    1        7.057   1.573  -2.709  0.00  0.00    +0.155 HD
ENDROOT
BRANCH   9  12
ATOM     12  C   LIG    1        2.019  -0.750  -1.069  0.00  0.00    +0.051 C 
BRANCH  12  13
ATOM     13  C   LIG    1        1.484   0.229  -0.004  0.00  0.00    +0.089 C 
BRANCH  13  14
ATOM     14  N   LIG    1        0.019   0.130   0.116  0.00  0.00    -0.302 NA
BRANCH  14  15
ATOM     15  C   LIG    1       -0.397  -0.696   1.265  0.00  0.00    +0.084 C 
BRANCH  15  16
ATOM     16  C   LIG    1        0.053  -2.170   1.201  0.00  0.00    +0.012 C 
ATOM     17  C   LIG    1       -0.573  -3.023   2.311  0.00  0.00    +0.005 C 
ENDBRANCH  15  16
ENDBRANCH  14  15
BRANCH  14  18
ATOM     18  C   LIG    1       -0.570   1.476   0.196  0.00  0.00    +0.084 C 
BRANCH  18  19
ATOM     19  C   LIG    1       -2.110   1.493   0.071  0.00  0.00    +0.012 C 
ATOM     20  C   LIG    1       -2.670   2.891  -0.223  0.00  0.00    +0.005 C 
ENDBRANCH  18  19
ENDBRANCH  14  18
ENDBRANCH  13  14
ENDBRANCH  12  13
ENDBRANCH   9  12
TORSDOF 7
