REMARK  Name = DB00175
REMARK                            x       y       z     vdW  Elec       q    Type
REMARK                         _______ _______ _______ _____ _____    ______ ____
ROOT
ATOM      1  C   LIG    1       -0.091  -2.516  -1.189  0.00  0.00    +0.187 C 
ATOM      2  C   LIG    1       -0.781  -3.321  -0.078  0.00  0.00    +0.080 C 
ATOM      3  C   LIG    1       -2.306  -3.387  -0.333  0.00  0.00    +0.141 C 
ATOM      4  C   LIG    1       -2.849  -2.011  -0.704  0.00  0.00    +0.008 C 
ATOM      5  C   LIG    1       -2.092  -0.945  -1.051  0.00  0.00    -0.042 C 
ATOM      6  C   LIG    1       -2.692   0.371  -1.154  0.00  0.00    -0.000 C 
ATOM      7  C   LIG    1       -1.971   1.493  -0.977  0.00  0.00    -0.023 C 
ATOM      8  C   LIG    1       -0.481   1.496  -0.611  0.00  0.00    +0.012 C 
ATOM      9  C   LIG    1        0.303   2.147  -1.772  0.00  0.00    +0.012 C 
ATOM     10  C   LIG    1        0.017   0.049  -0.213  0.00  0.00    +0.007 C 
ATOM     11  C   LIG    1       -0.560  -1.022  -1.209  0.00  0.00    +0.063 C 
ENDROOT
BRANCH   3  12
ATOM     12  O   LIG    1       -2.653  -4.329  -1.325  0.00  0.00    -0.388 OA
ATOM     13  H   LIG    1       -2.199  -4.095  -2.138  0.00  0.00    +0.210 HD
ENDBRANCH   3  12
BRANCH   1  14
ATOM     14  O   LIG    1        1.321  -2.726  -1.188  0.00  0.00    -0.460 OA
BRANCH  14  15
ATOM     15  C   LIG    1        2.063  -2.596  -2.315  0.00  0.00    +0.310 C 
ATOM     16  O   LIG    1        1.630  -2.293  -3.429  0.00  0.00    -0.251 OA
BRANCH  15  17
ATOM     17  C   LIG    1        3.560  -2.856  -2.057  0.00  0.00    +0.094 C 
ATOM     18  C   LIG    1        3.836  -4.373  -2.019  0.00  0.00    +0.019 C 
BRANCH  17  19
ATOM     19  C   LIG    1        4.502  -2.144  -3.065  0.00  0.00    +0.011 C 
ATOM     20  C   LIG    1        4.471  -0.608  -2.991  0.00  0.00    +0.004 C 
ENDBRANCH  17  19
ENDBRANCH  15  17
ENDBRANCH  14  15
ENDBRANCH   1  14
BRANCH  10  21
ATOM     21  C   LIG    1        1.547  -0.018   0.052  0.00  0.00    +0.007 C 
BRANCH  21  22
ATOM     22  C   LIG    1        2.071   0.983   1.109  0.00  0.00    +0.032 C 
BRANCH  22  23
ATOM     23  C   LIG    1        3.582   0.853   1.399  0.00  0.00    +0.117 C 
BRANCH  23  24
ATOM     24  O   LIG    1        4.306   1.190   0.231  0.00  0.00    -0.392 OA
ATOM     25  H   LIG    1        4.122   2.106   0.012  0.00  0.00    +0.210 HD
ENDBRANCH  23  24
BRANCH  23  26
ATOM     26  C   LIG    1        4.030   1.733   2.592  0.00  0.00    +0.063 C 
BRANCH  26  27
ATOM     27  C   LIG    1        5.490   1.516   3.074  0.00  0.00    +0.128 C 
BRANCH  27  28
ATOM     28  O   LIG    1        6.390   2.055   2.124  0.00  0.00    -0.391 OA
ATOM     29  H   LIG    1        6.221   2.996   2.042  0.00  0.00    +0.210 HD
ENDBRANCH  27  28
BRANCH  27  30
ATOM     30  C   LIG    1        5.806   2.181   4.439  0.00  0.00    +0.151 C 
BRANCH  30  31
ATOM     31  C   LIG    1        5.158   1.507   5.657  0.00  0.00    +0.307 C 
ATOM     32  O   LIG    1        4.532   0.450   5.613  0.00  0.00    -0.251 OA
BRANCH  31  33
ATOM     33  O   LIG    1        5.382   2.229   6.793  0.00  0.00    -0.481 OA
ATOM     34  H   LIG    1        4.991   1.819   7.568  0.00  0.00    +0.295 HD
ENDBRANCH  31  33
ENDBRANCH  30  31
ENDBRANCH  27  30
ENDBRANCH  26  27
ENDBRANCH  23  26
ENDBRANCH  22  23
ENDBRANCH  21  22
ENDBRANCH  10  21
TORSDOF 15
