REMARK  Name = DB00014
REMARK                            x       y       z     vdW  Elec       q    Type
REMARK                         _______ _______ _______ _____ _____    ______ ____
ROOT
ATOM      1  C   LIG    1       -1.961   1.042   0.798  0.00  0.00    +0.163 C 
ENDROOT
BRANCH   1   4
ATOM      2  N   LIG    1        0.128   0.343  -0.233  0.00  0.00    -0.301 N 
ATOM      3  H   LIG    1       -0.452   0.118  -1.031  0.00  0.00    +0.150 HD
ATOM      4  C   LIG    1       -0.441   0.839   0.875  0.00  0.00    +0.234 C 
ATOM      5  O   LIG    1        0.176   1.142   1.898  0.00  0.00    -0.274 OA
BRANCH   2   6
ATOM      6  C   LIG    1        1.554   0.069  -0.394  0.00  0.00    +0.185 C 
BRANCH   6   9
ATOM      7  N   LIG    1        2.568  -1.920  -1.391  0.00  0.00    -0.302 N 
ATOM      8  H   LIG    1        3.055  -2.004  -0.510  0.00  0.00    +0.150 HD
ATOM      9  C   LIG    1        1.720  -0.893  -1.578  0.00  0.00    +0.236 C 
ATOM     10  O   LIG    1        1.102  -0.683  -2.624  0.00  0.00    -0.274 OA
BRANCH   7  11
ATOM     11  C   LIG    1        2.775  -3.013  -2.344  0.00  0.00    +0.159 C 
BRANCH  11  14
ATOM     12  N   LIG    1        0.832  -3.815  -3.579  0.00  0.00    -0.302 N 
ATOM     13  H   LIG    1        1.191  -3.239  -4.327  0.00  0.00    +0.150 HD
ATOM     14  C   LIG    1        1.508  -3.879  -2.423  0.00  0.00    +0.234 C 
ATOM     15  O   LIG    1        1.164  -4.542  -1.444  0.00  0.00    -0.274 OA
BRANCH  12  16
ATOM     16  C   LIG    1       -0.456  -4.452  -3.845  0.00  0.00    +0.159 C 
BRANCH  16  18
ATOM     17  O   LIG    1       -0.679  -4.170  -6.202  0.00  0.00    -0.274 OA
ATOM     18  C   LIG    1       -0.434  -4.972  -5.299  0.00  0.00    +0.237 C 
ATOM     19  N   LIG    1       -0.139  -6.276  -5.536  0.00  0.00    -0.288 N 
ATOM     20  C   LIG    1       -0.136  -6.811  -6.900  0.00  0.00    +0.109 C 
ATOM     21  C   LIG    1        0.527  -8.179  -6.801  0.00  0.00    +0.021 C 
ATOM     22  C   LIG    1        0.176  -8.617  -5.390  0.00  0.00    +0.033 C 
ATOM     23  C   LIG    1        0.215  -7.325  -4.556  0.00  0.00    +0.163 C 
BRANCH  23  24
ATOM     24  C   LIG    1        1.598  -7.120  -3.910  0.00  0.00    +0.250 C 
ATOM     25  N   LIG    1        1.675  -7.457  -2.603  0.00  0.00    -0.232 N 
ATOM     26  H   LIG    1        0.930  -7.872  -2.062  0.00  0.00    +0.173 HD
ATOM     27  O   LIG    1        2.521  -6.658  -4.585  0.00  0.00    -0.272 OA
BRANCH  25  28
ATOM     28  N   LIG    1        2.883  -7.349  -1.904  0.00  0.00    -0.218 N 
ATOM     29  H   LIG    1        3.038  -6.419  -1.542  0.00  0.00    +0.174 HD
ATOM     30  C   LIG    1        3.861  -8.258  -2.101  0.00  0.00    +0.313 C 
ATOM     31  N   LIG    1        5.062  -7.789  -1.760  0.00  0.00    -0.312 N 
ATOM     32  H   LIG    1        5.878  -8.376  -1.852  0.00  0.00    +0.147 HD
ATOM     33  H   LIG    1        5.168  -6.842  -1.427  0.00  0.00    +0.147 HD
ATOM     34  O   LIG    1        3.694  -9.400  -2.527  0.00  0.00    -0.252 OA
ENDBRANCH  25  28
ENDBRANCH  23  24
ENDBRANCH  16  18
BRANCH  16  35
ATOM     35  C   LIG    1       -1.623  -3.455  -3.630  0.00  0.00    +0.035 C 
BRANCH  35  36
ATOM     36  C   LIG    1       -1.879  -3.073  -2.154  0.00  0.00    +0.043 C 
BRANCH  36  37
ATOM     37  C   LIG    1       -2.882  -1.916  -1.973  0.00  0.00    +0.243 C 
BRANCH  37  38
ATOM     38  N   LIG    1       -2.267  -0.658  -2.377  0.00  0.00    -0.114 NA
ATOM     39  C   LIG    1       -2.780   0.060  -3.294  0.00  0.00    +0.376 C 
BRANCH  39  40
ATOM     40  N   LIG    1       -2.055   1.107  -3.900  0.00  0.00    -0.289 N 
ATOM     41  H   LIG    1       -2.567   1.925  -4.193  0.00  0.00    +0.255 HD
ATOM     42  H   LIG    1       -1.170   1.361  -3.485  0.00  0.00    +0.255 HD
ENDBRANCH  39  40
BRANCH  39  43
ATOM     43  N   LIG    1       -4.097  -0.022  -3.807  0.00  0.00    -0.289 N 
ATOM     44  H   LIG    1       -4.534   0.834  -4.118  0.00  0.00    +0.255 HD
ATOM     45  H   LIG    1       -4.756  -0.605  -3.312  0.00  0.00    +0.255 HD
ENDBRANCH  39  43
ENDBRANCH  37  38
ENDBRANCH  36  37
ENDBRANCH  35  36
ENDBRANCH  16  35
ENDBRANCH  12  16
ENDBRANCH  11  14
BRANCH  11  46
ATOM     46  C   LIG    1        3.996  -3.861  -1.918  0.00  0.00    +0.034 C 
BRANCH  46  47
ATOM     47  C   LIG    1        5.356  -3.133  -2.008  0.00  0.00    -0.015 C 
ATOM     48  C   LIG    1        6.471  -3.960  -1.331  0.00  0.00    +0.007 C 
ATOM     49  C   LIG    1        5.719  -2.736  -3.456  0.00  0.00    +0.007 C 
ENDBRANCH  46  47
ENDBRANCH  11  46
ENDBRANCH   7  11
ENDBRANCH   6   9
BRANCH   6  50
ATOM     50  C   LIG    1        2.384   1.358  -0.589  0.00  0.00    +0.192 C 
BRANCH  50  51
ATOM     51  O   LIG    1        3.772   1.011  -0.601  0.00  0.00    -0.372 OA
BRANCH  51  52
ATOM     52  C   LIG    1        4.655   1.701  -1.492  0.00  0.00    +0.061 C 
ATOM     53  C   LIG    1        4.602   3.227  -1.254  0.00  0.00    +0.041 C 
ATOM     54  C   LIG    1        6.056   1.166  -1.137  0.00  0.00    +0.041 C 
ATOM     55  C   LIG    1        4.321   1.346  -2.960  0.00  0.00    +0.041 C 
ENDBRANCH  51  52
ENDBRANCH  50  51
ENDBRANCH   6  50
ENDBRANCH   2   6
ENDBRANCH   1   4
BRANCH   1  56
ATOM     56  N   LIG    1       -2.550   1.051   2.138  0.00  0.00    -0.302 N 
ATOM     57  H   LIG    1       -2.166   1.726   2.783  0.00  0.00    +0.150 HD
ATOM     58  C   LIG    1       -3.548   0.246   2.536  0.00  0.00    +0.236 C 
ATOM     59  O   LIG    1       -4.068  -0.625   1.836  0.00  0.00    -0.274 OA
BRANCH  58  60
ATOM     60  CA  LIG    1       -4.046   0.451   3.978  0.00  0.00    +0.184 C 
BRANCH  60  61
ATOM     61  N   LIG    1       -5.508   0.491   4.021  0.00  0.00    -0.301 N 
ATOM     62  H   LIG    1       -5.960  -0.338   4.377  0.00  0.00    +0.150 HD
ATOM     63  C   LIG    1       -6.261   1.506   3.562  0.00  0.00    +0.234 C 
ATOM     64  O   LIG    1       -5.807   2.555   3.104  0.00  0.00    -0.274 OA
BRANCH  63  65
ATOM     65  CA  LIG    1       -7.777   1.278   3.608  0.00  0.00    +0.163 C 
BRANCH  65  66
ATOM     66  N   LIG    1       -8.477   2.558   3.726  0.00  0.00    -0.302 N 
ATOM     67  H   LIG    1       -8.140   3.295   3.124  0.00  0.00    +0.150 HD
ATOM     68  C   LIG    1       -9.511   2.796   4.548  0.00  0.00    +0.234 C 
ATOM     69  O   LIG    1       -9.987   1.971   5.331  0.00  0.00    -0.274 OA
BRANCH  68  70
ATOM     70  CA  LIG    1      -10.103   4.209   4.475  0.00  0.00    +0.165 C 
BRANCH  70  71
ATOM     71  N   LIG    1      -11.555   4.133   4.645  0.00  0.00    -0.302 N 
ATOM     72  H   LIG    1      -11.867   3.651   5.475  0.00  0.00    +0.150 HD
ATOM     73  C   LIG    1      -12.468   4.580   3.766  0.00  0.00    +0.234 C 
ATOM     74  O   LIG    1      -12.162   5.187   2.737  0.00  0.00    -0.274 OA
BRANCH  73  75
ATOM     75  CA  LIG    1      -13.948   4.313   4.124  0.00  0.00    +0.159 C 
ATOM     76  C   LIG    1      -14.223   2.853   4.485  0.00  0.00    +0.041 C 
ATOM     77  C   LIG    1      -15.610   2.587   3.925  0.00  0.00    +0.098 C 
ATOM     78  C   LIG    1      -15.874   3.686   2.894  0.00  0.00    +0.214 C 
ATOM     79  O   LIG    1      -16.824   3.737   2.116  0.00  0.00    -0.276 OA
ATOM     80  N   LIG    1      -14.864   4.566   3.015  0.00  0.00    -0.304 N 
ATOM     81  H   LIG    1      -14.847   5.441   2.511  0.00  0.00    +0.149 HD
ENDBRANCH  73  75
ENDBRANCH  70  71
BRANCH  70  82
ATOM     82  CB  LIG    1       -9.500   5.112   5.571  0.00  0.00    +0.086 C 
BRANCH  82  83
ATOM     83  CG  LIG    1      -10.047   6.520   5.607  0.00  0.00    +0.038 A 
ATOM     84  CD2 LIG    1      -10.605   7.257   6.628  0.00  0.00    +0.133 A 
ATOM     85  NE2 LIG    1      -10.990   8.513   6.153  0.00  0.00    -0.244 NA
ATOM     86  CE1 LIG    1      -10.655   8.489   4.868  0.00  0.00    +0.196 A 
ATOM     87  ND1 LIG    1      -10.094   7.338   4.490  0.00  0.00    -0.348 N 
ATOM     88  HD1 LIG    1       -9.779   7.102   3.560  0.00  0.00    +0.166 HD
ENDBRANCH  82  83
ENDBRANCH  70  82
ENDBRANCH  68  70
ENDBRANCH  65  66
BRANCH  65  89
ATOM     89  CB  LIG    1       -8.259   0.535   2.342  0.00  0.00    +0.069 C 
BRANCH  89  90
ATOM     90  CG  LIG    1       -9.720   0.191   2.288  0.00  0.00    -0.020 A 
ATOM     91  CD1 LIG    1      -10.283  -0.906   2.844  0.00  0.00    +0.087 A 
ATOM     92  NE1 LIG    1      -11.646  -0.884   2.637  0.00  0.00    -0.360 N 
ATOM     93  HE1 LIG    1      -12.258  -1.618   2.965  0.00  0.00    +0.165 HD
ATOM     94  CE2 LIG    1      -12.041   0.244   1.950  0.00  0.00    +0.047 A 
ATOM     95  CZ2 LIG    1      -13.290   0.717   1.510  0.00  0.00    +0.026 A 
ATOM     96  CH2 LIG    1      -13.358   1.946   0.830  0.00  0.00    +0.002 A 
ATOM     97  CZ3 LIG    1      -12.182   2.686   0.601  0.00  0.00    +0.001 A 
ATOM     98  CE3 LIG    1      -10.935   2.200   1.046  0.00  0.00    +0.010 A 
ATOM     99  CD2 LIG    1      -10.828   0.963   1.725  0.00  0.00    +0.003 A 
ENDBRANCH  89  90
ENDBRANCH  65  89
ENDBRANCH  63  65
ENDBRANCH  60  61
BRANCH  60 100
ATOM    100  C   LIG    1       -3.557  -0.664   4.924  0.00  0.00    +0.187 C 
BRANCH 100 101
ATOM    101  O   LIG    1       -2.145  -0.722   4.985  0.00  0.00    -0.393 OA
ATOM    102  H   LIG    1       -1.815  -1.043   4.142  0.00  0.00    +0.209 HD
ENDBRANCH 100 101
ENDBRANCH  60 100
ENDBRANCH  58  60
ENDBRANCH   1  56
BRANCH   1 103
ATOM    103  C   LIG    1       -2.296   2.366   0.074  0.00  0.00    +0.067 C 
BRANCH 103 104
ATOM    104  C   LIG    1       -3.775   2.714  -0.029  0.00  0.00    -0.045 A 
ATOM    105  C   LIG    1       -4.231   3.983   0.388  0.00  0.00    +0.007 A 
ATOM    106  C   LIG    1       -5.597   4.312   0.295  0.00  0.00    +0.045 A 
ATOM    107  C   LIG    1       -6.516   3.373  -0.211  0.00  0.00    +0.117 A 
ATOM    108  C   LIG    1       -6.066   2.105  -0.628  0.00  0.00    +0.045 A 
ATOM    109  C   LIG    1       -4.699   1.779  -0.541  0.00  0.00    +0.007 A 
BRANCH 107 110
ATOM    110  O   LIG    1       -7.839   3.690  -0.298  0.00  0.00    -0.507 OA
ATOM    111  H   LIG    1       -8.032   4.585  -0.007  0.00  0.00    +0.292 HD
ENDBRANCH 107 110
ENDBRANCH 103 104
ENDBRANCH   1 103
TORSDOF 37
