REMARK  Name = DB00188
REMARK                            x       y       z     vdW  Elec       q    Type
REMARK                         _______ _______ _______ _____ _____    ______ ____
ROOT
ATOM      1  C   LIG    1       -2.260   0.827   0.018  0.00  0.00    +0.000 C 
ENDROOT
BRANCH   1   4
ATOM      2  C   LIG    1       -2.950   0.944   2.428  0.00  0.00    +0.000 C 
ATOM      3  O   LIG    1       -2.268  -0.024   2.772  0.00  0.00    +0.000 OA
ATOM      4  N   LIG    1       -3.003   1.386   1.154  0.00  0.00    +0.000 N 
ATOM      5  H   LIG    1       -3.579   2.188   0.945  0.00  0.00    +0.000 HD
BRANCH   2   6
ATOM      6  C   LIG    1       -3.783   1.696   3.444  0.00  0.00    +0.000 A 
ATOM      7  C   LIG    1       -3.756   1.341   4.803  0.00  0.00    +0.000 A 
ATOM      8  N   LIG    1       -4.493   2.002   5.734  0.00  0.00    +0.000 NA
ATOM      9  C   LIG    1       -5.266   3.031   5.301  0.00  0.00    +0.000 A 
ATOM     10  C   LIG    1       -5.303   3.396   3.954  0.00  0.00    +0.000 A 
ATOM     11  N   LIG    1       -4.566   2.735   3.023  0.00  0.00    +0.000 NA
ENDBRANCH   2   6
ENDBRANCH   1   4
BRANCH   1  12
ATOM     12  C   LIG    1       -0.735   1.033   0.157  0.00  0.00    +0.000 C 
ATOM     13  N   LIG    1        0.028  -0.034  -0.139  0.00  0.00    +0.000 N 
ATOM     14  H   LIG    1       -0.433  -0.883  -0.430  0.00  0.00    +0.000 HD
ATOM     15  O   LIG    1       -0.292   2.137   0.479  0.00  0.00    +0.000 OA
BRANCH  13  16
ATOM     16  C   LIG    1        1.492  -0.072  -0.109  0.00  0.00    +0.000 C 
BRANCH  16  17
ATOM     17  B   LIG    1        2.013  -0.810  -1.407  0.00  0.00    +0.000 B 
BRANCH  17  18
ATOM     18  O   LIG    1        2.975  -0.225  -2.174  0.00  0.00    +0.000 OA
ATOM     19  H   LIG    1        3.227  -0.785  -2.912  0.00  0.00    +0.000 HD
ENDBRANCH  17  18
BRANCH  17  20
ATOM     20  O   LIG    1        1.560  -2.061  -1.716  0.00  0.00    +0.000 OA
ATOM     21  H   LIG    1        0.912  -2.371  -1.079  0.00  0.00    +0.000 HD
ENDBRANCH  17  20
ENDBRANCH  16  17
BRANCH  16  22
ATOM     22  C   LIG    1        2.060  -0.722   1.178  0.00  0.00    +0.000 C 
BRANCH  22  23
ATOM     23  C   LIG    1        1.726  -0.011   2.515  0.00  0.00    +0.000 C 
ATOM     24  C   LIG    1        2.110  -0.891   3.719  0.00  0.00    +0.000 C 
ATOM     25  C   LIG    1        2.382   1.379   2.628  0.00  0.00    +0.000 C 
ENDBRANCH  22  23
ENDBRANCH  16  22
ENDBRANCH  13  16
ENDBRANCH   1  12
BRANCH   1  26
ATOM     26  C   LIG    1       -2.816   1.436  -1.296  0.00  0.00    +0.000 C 
BRANCH  26  27
ATOM     27  C   LIG    1       -2.264   0.833  -2.580  0.00  0.00    +0.000 A 
ATOM     28  C   LIG    1       -2.771  -0.393  -3.059  0.00  0.00    +0.000 A 
ATOM     29  C   LIG    1       -2.191  -1.001  -4.165  0.00  0.00    +0.000 A 
ATOM     30  C   LIG    1       -1.094  -0.420  -4.788  0.00  0.00    +0.000 A 
ATOM     31  C   LIG    1       -0.560   0.768  -4.306  0.00  0.00    +0.000 A 
ATOM     32  C   LIG    1       -1.126   1.392  -3.202  0.00  0.00    +0.000 A 
ENDBRANCH  26  27
ENDBRANCH   1  26
TORSDOF 11
