REMARK  Name = DB00594
REMARK                            x       y       z     vdW  Elec       q    Type
REMARK                         _______ _______ _______ _____ _____    ______ ____
ROOT
ATOM      1  N   LIG    1       -0.577   1.163   0.000  0.00  0.00    -0.222 NA
ATOM      2  C   LIG    1        0.058  -0.049   0.000  0.00  0.00    +0.183 A 
ATOM      3  C   LIG    1       -0.718  -1.234   0.000  0.00  0.00    +0.151 A 
ATOM      4  N   LIG    1       -2.076  -1.187   0.000  0.00  0.00    -0.213 NA
ATOM      5  C   LIG    1       -2.683   0.025   0.000  0.00  0.00    +0.156 A 
ATOM      6  C   LIG    1       -1.933   1.206   0.000  0.00  0.00    +0.170 A 
ATOM      7 CL   LIG    1       -2.693   2.762   0.000  0.00  0.00    -0.058 Cl
ENDROOT
BRANCH   2   8
ATOM      8  C   LIG    1        1.585  -0.028   0.000  0.00  0.00    +0.328 C 
ATOM      9  O   LIG    1        2.228  -1.083   0.000  0.00  0.00    -0.250 OA
ATOM     10  N   LIG    1        2.162   1.203  -0.000  0.00  0.00    -0.170 N 
ATOM     11  H   LIG    1        1.520   1.981  -0.000  0.00  0.00    +0.255 HD
BRANCH  10  12
ATOM     12  C   LIG    1        3.485   1.516  -0.000  0.00  0.00    +0.375 C 
ATOM     13  N   LIG    1        4.512   0.777   0.000  0.00  0.00    -0.131 NA
ATOM     14  H   LIG    1        5.375   1.301   0.000  0.00  0.00    +0.306 HD
BRANCH  12  15
ATOM     15  N   LIG    1        3.608   2.922  -0.001  0.00  0.00    -0.291 N 
ATOM     16  H   LIG    1        2.808   3.537   0.001  0.00  0.00    +0.254 HD
ATOM     17  H   LIG    1        4.505   3.385   0.000  0.00  0.00    +0.254 HD
ENDBRANCH  12  15
ENDBRANCH  10  12
ENDBRANCH   2   8
BRANCH   3  18
ATOM     18  N   LIG    1       -0.182  -2.524   0.000  0.00  0.00    -0.341 N 
ATOM     19  H   LIG    1       -0.804  -3.320   0.000  0.00  0.00    +0.144 HD
ATOM     20  H   LIG    1        0.822  -2.642   0.000  0.00  0.00    +0.144 HD
ENDBRANCH   3  18
BRANCH   5  21
ATOM     21  N   LIG    1       -4.078   0.033   0.000  0.00  0.00    -0.341 N 
ATOM     22  H   LIG    1       -4.580  -0.844   0.000  0.00  0.00    +0.144 HD
ATOM     23  H   LIG    1       -4.570   0.915   0.000  0.00  0.00    +0.144 HD
ENDBRANCH   5  21
TORSDOF 5
