REMARK  Name = DB00548
REMARK                            x       y       z     vdW  Elec       q    Type
REMARK                         _______ _______ _______ _____ _____    ______ ____
ROOT
ATOM      1  C   LIG    1        0.050   0.021  -0.032  0.00  0.00    +0.000 C 
ENDROOT
BRANCH   1   2
ATOM      2  C   LIG    1        1.583  -0.100  -0.099  0.00  0.00    +0.001 C 
BRANCH   2   3
ATOM      3  C   LIG    1        2.071  -1.564  -0.133  0.00  0.00    +0.011 C 
BRANCH   3   4
ATOM      4  C   LIG    1        3.607  -1.734  -0.096  0.00  0.00    +0.120 C 
BRANCH   4   5
ATOM      5  C   LIG    1        4.335  -1.137  -1.305  0.00  0.00    +0.305 C 
ATOM      6  O   LIG    1        5.048  -0.138  -1.236  0.00  0.00    -0.251 OA
BRANCH   5   7
ATOM      7  O   LIG    1        4.096  -1.849  -2.444  0.00  0.00    -0.481 OA
ATOM      8  H   LIG    1        4.553  -1.482  -3.204  0.00  0.00    +0.295 HD
ENDBRANCH   5   7
ENDBRANCH   4   5
ENDBRANCH   3   4
ENDBRANCH   2   3
ENDBRANCH   1   2
BRANCH   1   9
ATOM      9  C   LIG    1       -0.434   1.481   0.013  0.00  0.00    +0.001 C 
BRANCH   9  10
ATOM     10  C   LIG    1       -1.970   1.602   0.091  0.00  0.00    +0.011 C 
BRANCH  10  11
ATOM     11  C   LIG    1       -2.501   3.055   0.099  0.00  0.00    +0.120 C 
BRANCH  11  12
ATOM     12  C   LIG    1       -2.195   3.860   1.371  0.00  0.00    +0.305 C 
ATOM     13  O   LIG    1       -1.704   3.382   2.393  0.00  0.00    -0.251 OA
BRANCH  12  14
ATOM     14  O   LIG    1       -2.557   5.166   1.224  0.00  0.00    -0.481 OA
ATOM     15  H   LIG    1       -2.378   5.684   2.012  0.00  0.00    +0.295 HD
ENDBRANCH  12  14
ENDBRANCH  11  12
ENDBRANCH  10  11
ENDBRANCH   9  10
ENDBRANCH   1   9
TORSDOF 10
