REMARK  Name = DB00634
REMARK                            x       y       z     vdW  Elec       q    Type
REMARK                         _______ _______ _______ _____ _____    ______ ____
ROOT
ATOM      1  C   LIG    1       -0.482   1.706   0.190  0.00  0.00    +0.109 A 
ATOM      2  C   LIG    1       -0.134   2.420  -0.958  0.00  0.00    +0.030 A 
ATOM      3  C   LIG    1       -0.402   3.784  -1.033  0.00  0.00    +0.024 A 
ATOM      4  C   LIG    1       -1.019   4.428   0.040  0.00  0.00    +0.025 A 
ATOM      5  C   LIG    1       -1.369   3.715   1.187  0.00  0.00    +0.024 A 
ATOM      6  C   LIG    1       -1.102   2.350   1.263  0.00  0.00    +0.030 A 
ENDROOT
BRANCH   1   7
ATOM      7  S   LIG    1       -0.122  -0.046   0.268  0.00  0.00    +0.074 S 
ATOM      8  O   LIG    1       -0.404  -0.505   1.634  0.00  0.00    -0.150 OA
ATOM      9  O   LIG    1       -0.791  -0.662  -0.883  0.00  0.00    -0.150 OA
BRANCH   7  10
ATOM     10  N   LIG    1        1.614  -0.168  -0.010  0.00  0.00    -0.186 N 
ATOM     11  H   LIG    1        1.886  -0.560  -0.916  0.00  0.00    +0.177 HD
ATOM     12  C   LIG    1        2.614   0.283   0.878  0.00  0.00    +0.229 C 
ATOM     13  C   LIG    1        4.037   0.077   0.369  0.00  0.00    +0.111 C 
ATOM     14  O   LIG    1        2.383   0.806   1.967  0.00  0.00    -0.275 OA
ENDBRANCH   7  10
ENDBRANCH   1   7
BRANCH   4  15
ATOM     15  N   LIG    1       -1.286   5.793  -0.035  0.00  0.00    -0.358 N 
ATOM     16  H   LIG    1       -1.731   6.256   0.745  0.00  0.00    +0.142 HD
ATOM     17  H   LIG    1       -1.029   6.306  -0.866  0.00  0.00    +0.142 HD
ENDBRANCH   4  15
TORSDOF 3
