REMARK  Name = DB00951
REMARK                            x       y       z     vdW  Elec       q    Type
REMARK                         _______ _______ _______ _____ _____    ______ ____
ROOT
ATOM      1  O   LIG    1       -0.351   2.159  -0.007  0.00  0.00    -0.269 OA
ATOM      2  C   LIG    1       -0.739   0.986  -0.000  0.00  0.00    +0.257 C 
ATOM      3  N   LIG    1        0.093  -0.076  -0.008  0.00  0.00    -0.250 N 
ATOM      4  H   LIG    1       -0.209  -1.040  -0.011  0.00  0.00    +0.169 HD
ENDROOT
BRANCH   2   5
ATOM      5  C   LIG    1       -2.219   0.671   0.002  0.00  0.00    +0.041 A 
ATOM      6  C   LIG    1       -2.713  -0.579   0.419  0.00  0.00    +0.033 A 
ATOM      7  C   LIG    1       -4.090  -0.806   0.403  0.00  0.00    +0.111 A 
ATOM      8  N   LIG    1       -4.988   0.128   0.002  0.00  0.00    -0.263 NA
ATOM      9  C   LIG    1       -4.508   1.333  -0.396  0.00  0.00    +0.111 A 
ATOM     10  C   LIG    1       -3.147   1.642  -0.410  0.00  0.00    +0.033 A 
ENDBRANCH   2   5
BRANCH   3  11
ATOM     11  N   LIG    1        1.476   0.097  -0.013  0.00  0.00    -0.254 NA
ATOM     12  H   LIG    1        1.720   0.638   0.805  0.00  0.00    +0.140 HD
ATOM     13  H   LIG    1        1.716   0.630  -0.837  0.00  0.00    +0.140 HD
ENDBRANCH   3  11
TORSDOF 2
