REMARK  Name = DB00328
REMARK                            x       y       z     vdW  Elec       q    Type
REMARK                         _______ _______ _______ _____ _____    ______ ____
ROOT
ATOM      1  C   LIG    1       -2.795  -1.864  -0.761  0.00  0.00    +0.263 C 
ATOM      2  N   LIG    1       -1.781  -0.871  -0.531  0.00  0.00    -0.280 N 
ATOM      3  C   LIG    1       -0.400  -1.092  -0.575  0.00  0.00    +0.028 A 
ATOM      4  C   LIG    1        0.230  -2.436  -0.930  0.00  0.00    +0.064 C 
ATOM      5  C   LIG    1        0.274   0.087  -0.280  0.00  0.00    -0.008 A 
ATOM      6  C   LIG    1       -0.721   1.103  -0.130  0.00  0.00    +0.008 A 
ATOM      7  C   LIG    1       -0.655   2.480   0.140  0.00  0.00    +0.056 A 
ATOM      8  C   LIG    1       -1.836   3.232   0.221  0.00  0.00    +0.121 A 
ATOM      9  C   LIG    1       -3.063   2.602   0.035  0.00  0.00    +0.048 A 
ATOM     10  C   LIG    1       -3.176   1.239  -0.230  0.00  0.00    +0.030 A 
ATOM     11  C   LIG    1       -1.990   0.490  -0.313  0.00  0.00    +0.057 A 
ATOM     12  O   LIG    1       -3.823  -1.567  -1.372  0.00  0.00    -0.267 OA
ENDROOT
BRANCH   1  15
ATOM     13  C   LIG    1       -1.971  -4.702   1.643  0.00  0.00    +0.021 A 
ATOM     14  C   LIG    1       -2.089  -3.424   1.101  0.00  0.00    +0.015 A 
ATOM     15  C   LIG    1       -2.644  -3.247  -0.173  0.00  0.00    +0.040 A 
ATOM     16  C   LIG    1       -3.105  -4.361  -0.885  0.00  0.00    +0.015 A 
ATOM     17  C   LIG    1       -2.986  -5.638  -0.343  0.00  0.00    +0.021 A 
ATOM     18  C   LIG    1       -2.417  -5.804   0.917  0.00  0.00    +0.041 A 
ATOM     19 CL   LIG    1       -2.267  -7.388   1.588  0.00  0.00    -0.084 Cl
ENDBRANCH   1  15
BRANCH   8  20
ATOM     20  O   LIG    1       -1.876   4.588   0.480  0.00  0.00    -0.495 OA
ATOM     21  C   LIG    1       -0.656   5.295   0.684  0.00  0.00    +0.277 C 
ENDBRANCH   8  20
BRANCH   5  22
ATOM     22  C   LIG    1        1.775   0.302  -0.169  0.00  0.00    +0.158 C 
BRANCH  22  23
ATOM     23  C   LIG    1        2.281   0.105   1.262  0.00  0.00    +0.309 C 
ATOM     24  O   LIG    1        2.843  -0.920   1.641  0.00  0.00    -0.251 OA
BRANCH  23  25
ATOM     25  O   LIG    1        2.010   1.185   2.050  0.00  0.00    -0.480 OA
ATOM     26  H   LIG    1        2.317   1.063   2.951  0.00  0.00    +0.295 HD
ENDBRANCH  23  25
ENDBRANCH  22  23
ENDBRANCH   5  22
TORSDOF 5
