REMARK  Name = DB00270
REMARK                            x       y       z     vdW  Elec       q    Type
REMARK                         _______ _______ _______ _____ _____    ______ ____
ROOT
ATOM      1  C   LIG    1       -0.011   0.133   0.090  0.00  0.00    +0.065 C 
ATOM      2  C   LIG    1       -0.708   1.304   0.028  0.00  0.00    +0.016 C 
ATOM      3  C   LIG    1       -0.162   2.722  -0.135  0.00  0.00    +0.061 C 
ATOM      4  N   LIG    1       -2.083   1.285   0.004  0.00  0.00    -0.321 N 
ATOM      5  H   LIG    1       -2.556   2.177   0.046  0.00  0.00    +0.152 HD
ATOM      6  C   LIG    1       -2.870   0.156   0.027  0.00  0.00    +0.016 C 
ATOM      7  C   LIG    1       -4.350   0.498  -0.140  0.00  0.00    +0.061 C 
ATOM      8  C   LIG    1       -2.291  -1.078   0.090  0.00  0.00    +0.065 C 
ATOM      9  C   LIG    1       -0.746  -1.236   0.241  0.00  0.00    +0.098 C 
ENDROOT
BRANCH   9  10
ATOM     10  C   LIG    1       -0.321  -2.030   1.494  0.00  0.00    -0.004 A 
ATOM     11  C   LIG    1       -0.583  -1.480   2.757  0.00  0.00    +0.007 A 
ATOM     12  C   LIG    1       -0.225  -2.128   3.937  0.00  0.00    +0.003 A 
ATOM     13  C   LIG    1        0.417  -3.364   3.917  0.00  0.00    +0.033 A 
ATOM     14  C   LIG    1        0.694  -3.942   2.671  0.00  0.00    +0.134 A 
ATOM     15  N   LIG    1        1.306  -5.123   2.396  0.00  0.00    -0.049 NA
ATOM     16  O   LIG    1        1.299  -5.162   0.998  0.00  0.00    -0.242 OA
ATOM     17  N   LIG    1        0.701  -4.046   0.404  0.00  0.00    -0.049 NA
ATOM     18  C   LIG    1        0.328  -3.285   1.469  0.00  0.00    +0.138 A 
ENDBRANCH   9  10
BRANCH   1  19
ATOM     19  C   LIG    1        1.478   0.108   0.147  0.00  0.00    +0.338 C 
ATOM     20  O   LIG    1        2.167   1.068   0.498  0.00  0.00    -0.245 OA
BRANCH  19  21
ATOM     21  O   LIG    1        2.010  -1.095  -0.204  0.00  0.00    -0.459 OA
BRANCH  21  22
ATOM     22  C   LIG    1        3.412  -1.359  -0.144  0.00  0.00    +0.171 C 
ATOM     23  C   LIG    1        3.840  -1.684   1.300  0.00  0.00    +0.052 C 
ATOM     24  C   LIG    1        3.714  -2.519  -1.104  0.00  0.00    +0.052 C 
ENDBRANCH  21  22
ENDBRANCH  19  21
ENDBRANCH   1  19
BRANCH   8  25
ATOM     25  C   LIG    1       -3.106  -2.325   0.136  0.00  0.00    +0.337 C 
ATOM     26  O   LIG    1       -4.298  -2.355   0.454  0.00  0.00    -0.245 OA
BRANCH  25  27
ATOM     27  O   LIG    1       -2.404  -3.440  -0.186  0.00  0.00    -0.465 OA
ATOM     28  C   LIG    1       -3.011  -4.724  -0.169  0.00  0.00    +0.280 C 
ENDBRANCH  25  27
ENDBRANCH   8  25
TORSDOF 6
