REMARK  Name = DB00503
REMARK                            x       y       z     vdW  Elec       q    Type
REMARK                         _______ _______ _______ _____ _____    ______ ____
ROOT
ATOM      1  C   LIG    1       -0.295  -0.168  -0.520  0.00  0.00    +0.080 C 
ENDROOT
BRANCH   1   2
ATOM      2  N   LIG    1        1.154   0.045  -0.442  0.00  0.00    -0.311 N 
ATOM      3  H   LIG    1        1.630  -0.410   0.324  0.00  0.00    +0.149 HD
ATOM      4  C   LIG    1        1.880   0.789  -1.295  0.00  0.00    +0.234 C 
ATOM      5  O   LIG    1        1.403   1.391  -2.259  0.00  0.00    -0.274 OA
BRANCH   4   6
ATOM      6  C   LIG    1        3.400   0.849  -1.018  0.00  0.00    +0.163 C 
BRANCH   6   7
ATOM      7  N   LIG    1        4.083  -0.034  -1.966  0.00  0.00    -0.288 N 
ATOM      8  H   LIG    1        4.338   0.393  -2.845  0.00  0.00    +0.151 HD
ATOM      9  C   LIG    1        4.380  -1.335  -1.771  0.00  0.00    +0.303 C 
ATOM     10  O   LIG    1        4.100  -1.916  -0.719  0.00  0.00    -0.253 OA
ATOM     11  N   LIG    1        5.049  -1.934  -2.794  0.00  0.00    -0.283 N 
ATOM     12  C   LIG    1        5.543  -3.311  -2.685  0.00  0.00    +0.134 C 
BRANCH  11  13
ATOM     13  C   LIG    1        5.326  -1.310  -4.107  0.00  0.00    +0.164 C 
BRANCH  13  14
ATOM     14  C   LIG    1        6.446  -0.275  -4.097  0.00  0.00    +0.066 A 
ATOM     15  C   LIG    1        6.514   0.887  -4.857  0.00  0.00    +0.071 A 
ATOM     16  S   LIG    1        7.965   1.752  -4.466  0.00  0.00    -0.080 S 
ATOM     17  C   LIG    1        8.372   0.491  -3.335  0.00  0.00    +0.081 A 
ATOM     18  N   LIG    1        7.477  -0.468  -3.291  0.00  0.00    -0.247 NA
BRANCH  17  19
ATOM     19  C   LIG    1        9.603   0.473  -2.435  0.00  0.00    +0.038 C 
ATOM     20  C   LIG    1       10.801   1.253  -3.014  0.00  0.00    +0.014 C 
ATOM     21  C   LIG    1        9.247   0.971  -1.023  0.00  0.00    +0.014 C 
ENDBRANCH  17  19
ENDBRANCH  13  14
ENDBRANCH  11  13
ENDBRANCH   6   7
BRANCH   6  22
ATOM     22  C   LIG    1        3.930   2.319  -1.131  0.00  0.00    +0.012 C 
ATOM     23  C   LIG    1        3.219   3.319  -0.191  0.00  0.00    +0.009 C 
ATOM     24  C   LIG    1        5.454   2.400  -0.902  0.00  0.00    +0.009 C 
ENDBRANCH   6  22
ENDBRANCH   4   6
ENDBRANCH   1   2
BRANCH   1  25
ATOM     25  C   LIG    1       -0.812  -0.694   0.846  0.00  0.00    +0.055 C 
BRANCH  25  26
ATOM     26  C   LIG    1       -2.353  -0.814   0.999  0.00  0.00    +0.137 C 
BRANCH  26  27
ATOM     27  O   LIG    1       -2.890   0.493   0.862  0.00  0.00    -0.390 OA
ATOM     28  H   LIG    1       -2.609   0.853   0.017  0.00  0.00    +0.210 HD
ENDBRANCH  26  27
BRANCH  26  29
ATOM     29  C   LIG    1       -2.799  -1.458   2.348  0.00  0.00    +0.109 C 
BRANCH  29  30
ATOM     30  N   LIG    1       -4.234  -1.234   2.600  0.00  0.00    -0.275 N 
ATOM     31  H   LIG    1       -4.874  -1.359   1.830  0.00  0.00    +0.152 HD
ATOM     32  C   LIG    1       -4.764  -0.941   3.850  0.00  0.00    +0.401 C 
ATOM     33  O   LIG    1       -4.126  -0.770   4.892  0.00  0.00    -0.226 OA
BRANCH  32  34
ATOM     34  O   LIG    1       -6.106  -0.890   3.751  0.00  0.00    -0.445 OA
BRANCH  34  35
ATOM     35  C   LIG    1       -6.915  -0.668   4.899  0.00  0.00    +0.278 C 
BRANCH  35  36
ATOM     36  C   LIG    1       -8.359  -0.928   4.546  0.00  0.00    +0.046 A 
ATOM     37  S   LIG    1       -8.995  -2.537   4.306  0.00  0.00    -0.077 S 
ATOM     38  C   LIG    1      -10.548  -1.849   3.988  0.00  0.00    +0.156 A 
ATOM     39  N   LIG    1      -10.601  -0.548   4.053  0.00  0.00    -0.255 NA
ATOM     40  C   LIG    1       -9.422  -0.041   4.354  0.00  0.00    +0.125 A 
ENDBRANCH  35  36
ENDBRANCH  34  35
ENDBRANCH  32  34
ENDBRANCH  29  30
BRANCH  29  41
ATOM     41  C   LIG    1       -2.454  -2.973   2.422  0.00  0.00    +0.060 C 
BRANCH  41  42
ATOM     42  C   LIG    1       -2.738  -3.620   3.773  0.00  0.00    -0.046 A 
ATOM     43  C   LIG    1       -3.868  -4.426   3.942  0.00  0.00    +0.004 A 
ATOM     44  C   LIG    1       -4.136  -4.995   5.184  0.00  0.00    +0.000 A 
ATOM     45  C   LIG    1       -3.272  -4.758   6.252  0.00  0.00    +0.000 A 
ATOM     46  C   LIG    1       -2.142  -3.961   6.089  0.00  0.00    +0.000 A 
ATOM     47  C   LIG    1       -1.873  -3.391   4.847  0.00  0.00    +0.004 A 
ENDBRANCH  41  42
ENDBRANCH  29  41
ENDBRANCH  26  29
ENDBRANCH  25  26
ENDBRANCH   1  25
BRANCH   1  48
ATOM     48  C   LIG    1       -0.711  -1.055  -1.732  0.00  0.00    +0.057 C 
BRANCH  48  49
ATOM     49  C   LIG    1       -0.126  -2.465  -1.726  0.00  0.00    -0.046 A 
ATOM     50  C   LIG    1       -0.819  -3.512  -1.112  0.00  0.00    +0.004 A 
ATOM     51  C   LIG    1       -0.274  -4.793  -1.093  0.00  0.00    +0.000 A 
ATOM     52  C   LIG    1        0.961  -5.026  -1.694  0.00  0.00    +0.000 A 
ATOM     53  C   LIG    1        1.652  -3.991  -2.320  0.00  0.00    +0.000 A 
ATOM     54  C   LIG    1        1.106  -2.711  -2.339  0.00  0.00    +0.004 A 
ENDBRANCH  48  49
ENDBRANCH   1  48
TORSDOF 19
