REMARK  Name = DB00669
REMARK                            x       y       z     vdW  Elec       q    Type
REMARK                         _______ _______ _______ _____ _____    ______ ____
ROOT
ATOM      1  C   LIG    1       -3.456   1.310  -0.082  0.00  0.00    +0.026 A 
ATOM      2  C   LIG    1       -3.065   2.648  -0.031  0.00  0.00    +0.007 A 
ATOM      3  C   LIG    1       -1.724   3.030  -0.060  0.00  0.00    -0.024 A 
ATOM      4  C   LIG    1       -0.713   2.070  -0.133  0.00  0.00    +0.015 A 
ATOM      5  C   LIG    1       -1.054   0.708  -0.183  0.00  0.00    +0.003 A 
ATOM      6  C   LIG    1       -0.290  -0.513  -0.253  0.00  0.00    -0.021 A 
ATOM      7  C   LIG    1       -1.226  -1.532  -0.293  0.00  0.00    +0.087 A 
ATOM      8  N   LIG    1       -2.494  -1.019  -0.231  0.00  0.00    -0.360 N 
ATOM      9  H   LIG    1       -3.318  -1.603  -0.240  0.00  0.00    +0.165 HD
ATOM     10  C   LIG    1       -2.438   0.354  -0.161  0.00  0.00    +0.047 A 
ENDROOT
BRANCH   3  11
ATOM     11  C   LIG    1       -1.361   4.504  -0.008  0.00  0.00    +0.220 C 
BRANCH  11  12
ATOM     12  S   LIG    1       -1.301   5.272  -1.734  0.00  0.00    +0.033 S 
ATOM     13  O   LIG    1       -2.652   5.242  -2.306  0.00  0.00    -0.158 OA
ATOM     14  O   LIG    1       -0.171   4.681  -2.459  0.00  0.00    -0.158 OA
BRANCH  12  15
ATOM     15  N   LIG    1       -0.885   6.951  -1.405  0.00  0.00    -0.197 NA
ATOM     16  H   LIG    1       -0.037   7.305  -1.855  0.00  0.00    +0.147 HD
ATOM     17  C   LIG    1       -1.960   7.930  -1.172  0.00  0.00    +0.127 C 
ENDBRANCH  12  15
ENDBRANCH  11  12
ENDBRANCH   3  11
BRANCH   6  18
ATOM     18  C   LIG    1        1.220  -0.652  -0.284  0.00  0.00    +0.052 C 
BRANCH  18  19
ATOM     19  C   LIG    1        1.982  -0.093   0.943  0.00  0.00    +0.088 C 
BRANCH  19  20
ATOM     20  N   LIG    1        1.782  -0.817   2.206  0.00  0.00    -0.308 NA
ATOM     21  C   LIG    1        2.824  -0.429   3.154  0.00  0.00    +0.104 C 
ATOM     22  C   LIG    1        0.483  -0.551   2.824  0.00  0.00    +0.104 C 
ENDBRANCH  19  20
ENDBRANCH  18  19
ENDBRANCH   6  18
TORSDOF 6
