REMARK  Name = DB00235
REMARK                            x       y       z     vdW  Elec       q    Type
REMARK                         _______ _______ _______ _____ _____    ______ ____
ROOT
ATOM      1  O   LIG    1       -4.092   0.134   0.005  0.00  0.00    -0.267 OA
ATOM      2  C   LIG    1       -2.865   0.061   0.003  0.00  0.00    +0.266 A 
ATOM      3  C   LIG    1       -2.114  -1.197   0.001  0.00  0.00    +0.116 A 
ATOM      4  C   LIG    1       -0.759  -1.209  -0.002  0.00  0.00    +0.034 A 
ATOM      5  C   LIG    1        0.004   0.034  -0.003  0.00  0.00    +0.003 A 
ATOM      6  C   LIG    1       -0.717   1.186  -0.001  0.00  0.00    +0.024 A 
ATOM      7  C   LIG    1       -0.128   2.590  -0.001  0.00  0.00    +0.064 C 
ATOM      8  N   LIG    1       -2.092   1.184   0.002  0.00  0.00    -0.325 N 
ATOM      9  H   LIG    1       -2.598   2.058   0.004  0.00  0.00    +0.169 HD
ENDROOT
BRANCH   5  10
ATOM     10  C   LIG    1        1.475  -0.007  -0.005  0.00  0.00    -0.013 A 
ATOM     11  C   LIG    1        2.189  -0.027   1.199  0.00  0.00    +0.028 A 
ATOM     12  C   LIG    1        3.584  -0.065   1.153  0.00  0.00    +0.111 A 
ATOM     13  N   LIG    1        4.283  -0.084  -0.010  0.00  0.00    -0.263 NA
ATOM     14  C   LIG    1        3.579  -0.066  -1.171  0.00  0.00    +0.111 A 
ATOM     15  C   LIG    1        2.184  -0.028  -1.212  0.00  0.00    +0.028 A 
ENDBRANCH   5  10
BRANCH   3  16
ATOM     16  C   LIG    1       -2.812  -2.442   0.001  0.00  0.00    +0.105 C 
ATOM     17  N   LIG    1       -3.357  -3.463  -0.000  0.00  0.00    -0.191 NA
ENDBRANCH   3  16
TORSDOF 2
