REMARK  Name = DB00841
REMARK                            x       y       z     vdW  Elec       q    Type
REMARK                         _______ _______ _______ _____ _____    ______ ____
ROOT
ATOM      1  N   LIG    1        0.037   0.171   0.436  0.00  0.00    -0.313 NA
ATOM      2  H   LIG    1       -0.204  -0.009   1.400  0.00  0.00    +0.122 HD
ENDROOT
BRANCH   1   3
ATOM      3  C   LIG    1        1.478  -0.009   0.265  0.00  0.00    +0.051 C 
ATOM      4  C   LIG    1        1.970  -0.860   1.449  0.00  0.00    +0.024 C 
BRANCH   3   5
ATOM      5  C   LIG    1        1.810  -0.703  -1.083  0.00  0.00    +0.023 C 
BRANCH   5   6
ATOM      6  C   LIG    1        1.445   0.087  -2.357  0.00  0.00    +0.036 C 
BRANCH   6   7
ATOM      7  C   LIG    1        1.827  -0.640  -3.638  0.00  0.00    -0.047 A 
ATOM      8  C   LIG    1        0.877  -1.411  -4.312  0.00  0.00    +0.007 A 
ATOM      9  C   LIG    1        1.224  -2.069  -5.489  0.00  0.00    +0.045 A 
ATOM     10  C   LIG    1        2.521  -1.957  -5.988  0.00  0.00    +0.117 A 
ATOM     11  C   LIG    1        3.474  -1.191  -5.317  0.00  0.00    +0.045 A 
ATOM     12  C   LIG    1        3.126  -0.531  -4.141  0.00  0.00    +0.007 A 
BRANCH  10  13
ATOM     13  O   LIG    1        2.862  -2.603  -7.146  0.00  0.00    -0.507 OA
ATOM     14  H   LIG    1        3.774  -2.454  -7.404  0.00  0.00    +0.292 HD
ENDBRANCH  10  13
ENDBRANCH   6   7
ENDBRANCH   5   6
ENDBRANCH   3   5
ENDBRANCH   1   3
BRANCH   1  15
ATOM     15  C   LIG    1       -0.442   1.497   0.055  0.00  0.00    +0.086 C 
BRANCH  15  16
ATOM     16  C   LIG    1       -1.964   1.472  -0.185  0.00  0.00    +0.050 C 
BRANCH  16  21
ATOM     17  C   LIG    1       -2.595   0.489  -3.825  0.00  0.00    +0.158 A 
ATOM     18  C   LIG    1       -3.022  -0.839  -3.687  0.00  0.00    +0.158 A 
ATOM     19  C   LIG    1       -3.122  -1.405  -2.415  0.00  0.00    +0.049 A 
ATOM     20  C   LIG    1       -2.794  -0.657  -1.285  0.00  0.00    +0.007 A 
ATOM     21  C   LIG    1       -2.364   0.667  -1.417  0.00  0.00    -0.042 A 
ATOM     22  C   LIG    1       -2.273   1.237  -2.690  0.00  0.00    +0.052 A 
BRANCH  17  23
ATOM     23  O   LIG    1       -2.479   1.070  -5.063  0.00  0.00    -0.503 OA
ATOM     24  H   LIG    1       -2.166   1.976  -5.025  0.00  0.00    +0.292 HD
ENDBRANCH  17  23
BRANCH  18  25
ATOM     25  O   LIG    1       -3.340  -1.599  -4.784  0.00  0.00    -0.503 OA
ATOM     26  H   LIG    1       -3.618  -2.489  -4.558  0.00  0.00    +0.292 HD
ENDBRANCH  18  25
ENDBRANCH  16  21
ENDBRANCH  15  16
ENDBRANCH   1  15
TORSDOF 10
