REMARK  Name = DB00264
REMARK                            x       y       z     vdW  Elec       q    Type
REMARK                         _______ _______ _______ _____ _____    ______ ____
ROOT
ATOM      1  O   LIG    1        2.070  -1.094   0.256  0.00  0.00    -0.489 OA
ENDROOT
BRANCH   1   2
ATOM      2  C   LIG    1        3.436  -1.283   0.168  0.00  0.00    +0.121 A 
ATOM      3  C   LIG    1        4.344  -0.306  -0.269  0.00  0.00    +0.046 A 
ATOM      4  C   LIG    1        5.707  -0.588  -0.323  0.00  0.00    +0.007 A 
ATOM      5  C   LIG    1        6.175  -1.847   0.059  0.00  0.00    -0.045 A 
ATOM      6  C   LIG    1        5.276  -2.823   0.492  0.00  0.00    +0.007 A 
ATOM      7  C   LIG    1        3.914  -2.539   0.546  0.00  0.00    +0.046 A 
BRANCH   5   8
ATOM      8  C   LIG    1        7.663  -2.155  -0.002  0.00  0.00    +0.063 C 
BRANCH   8   9
ATOM      9  C   LIG    1        8.099  -2.709  -1.367  0.00  0.00    +0.164 C 
BRANCH   9  10
ATOM     10  O   LIG    1        9.495  -2.972  -1.328  0.00  0.00    -0.383 OA
ATOM     11  C   LIG    1       10.012  -3.458  -2.557  0.00  0.00    +0.193 C 
ENDBRANCH   9  10
ENDBRANCH   8   9
ENDBRANCH   5   8
ENDBRANCH   1   2
BRANCH   1  12
ATOM     12  C   LIG    1        1.511   0.169  -0.105  0.00  0.00    +0.261 C 
BRANCH  12  13
ATOM     13  C   LIG    1       -0.013   0.141   0.117  0.00  0.00    +0.166 C 
BRANCH  13  14
ATOM     14  O   LIG    1       -0.586  -0.760  -0.817  0.00  0.00    -0.387 OA
ATOM     15  H   LIG    1       -0.161  -1.615  -0.711  0.00  0.00    +0.210 HD
ENDBRANCH  13  14
BRANCH  13  16
ATOM     16  C   LIG    1       -0.646   1.539  -0.054  0.00  0.00    +0.115 C 
BRANCH  16  17
ATOM     17  N   LIG    1       -2.054   1.526   0.334  0.00  0.00    -0.311 NA
ATOM     18  H   LIG    1       -2.557   0.880  -0.259  0.00  0.00    +0.122 HD
BRANCH  17  19
ATOM     19  C   LIG    1       -2.696   2.839   0.287  0.00  0.00    +0.048 C 
ATOM     20  C   LIG    1       -2.823   3.369  -1.156  0.00  0.00    +0.023 C 
ATOM     21  C   LIG    1       -4.074   2.704   0.955  0.00  0.00    +0.023 C 
ENDBRANCH  17  19
ENDBRANCH  16  17
ENDBRANCH  13  16
ENDBRANCH  12  13
ENDBRANCH   1  12
TORSDOF 10
