REMARK  Name = DB00298
REMARK                            x       y       z     vdW  Elec       q    Type
REMARK                         _______ _______ _______ _____ _____    ______ ____
ROOT
ATOM      1  N   LIG    1        0.028   0.200  -0.208  0.00  0.00    -0.299 NA
ATOM      2  C   LIG    1       -0.528  -0.902   0.585  0.00  0.00    +0.103 C 
ATOM      3  C   LIG    1       -2.071  -0.890   0.513  0.00  0.00    +0.120 C 
ATOM      4  N   LIG    1       -2.662   0.368   1.005  0.00  0.00    -0.327 N 
ATOM      5  C   LIG    1       -2.004   1.511   0.348  0.00  0.00    +0.120 C 
ATOM      6  C   LIG    1       -0.459   1.444   0.394  0.00  0.00    +0.103 C 
ENDROOT
BRANCH   4   7
ATOM      7  C   LIG    1       -4.024   0.464   1.281  0.00  0.00    +0.033 A 
ATOM      8  C   LIG    1       -4.953  -0.249   0.504  0.00  0.00    +0.023 A 
ATOM      9  C   LIG    1       -6.323  -0.121   0.719  0.00  0.00    +0.002 A 
ATOM     10  C   LIG    1       -6.793   0.732   1.712  0.00  0.00    +0.000 A 
ATOM     11  C   LIG    1       -5.893   1.459   2.485  0.00  0.00    +0.005 A 
ATOM     12  C   LIG    1       -4.514   1.342   2.275  0.00  0.00    -0.029 A 
ATOM     13  C   LIG    1       -3.587   2.141   3.187  0.00  0.00    +0.045 C 
ENDBRANCH   4   7
BRANCH   1  14
ATOM     14  C   LIG    1        1.497   0.179  -0.226  0.00  0.00    +0.092 C 
BRANCH  14  15
ATOM     15  C   LIG    1        2.093  -0.624  -1.407  0.00  0.00    +0.091 C 
BRANCH  15  16
ATOM     16  C   LIG    1        1.721  -2.095  -1.467  0.00  0.00    +0.135 A 
ATOM     17  N   LIG    1        0.880  -2.608  -2.331  0.00  0.00    -0.134 NA
ATOM     18  N   LIG    1        0.808  -3.973  -2.077  0.00  0.00    -0.134 NA
ATOM     19  C   LIG    1        1.631  -4.230  -1.090  0.00  0.00    +0.133 A 
ATOM     20  C   LIG    1        1.848  -5.585  -0.430  0.00  0.00    +0.076 C 
ATOM     21  C   LIG    1        3.145  -5.538   0.406  0.00  0.00    +0.009 C 
ATOM     22  C   LIG    1        3.224  -4.266   1.272  0.00  0.00    +0.022 C 
ATOM     23  C   LIG    1        3.239  -2.973   0.422  0.00  0.00    +0.125 C 
ATOM     24  N   LIG    1        2.207  -3.065  -0.616  0.00  0.00    -0.315 N 
ENDBRANCH  15  16
ENDBRANCH  14  15
ENDBRANCH   1  14
TORSDOF 4
