REMARK  Name = DB00922
REMARK                            x       y       z     vdW  Elec       q    Type
REMARK                         _______ _______ _______ _____ _____    ______ ____
ROOT
ATOM      1  C   LIG    1       -2.113   3.671   0.038  0.00  0.00    -0.002 A 
ATOM      2  C   LIG    1       -0.716   3.688  -0.046  0.00  0.00    +0.011 A 
ATOM      3  C   LIG    1        0.000   2.495  -0.062  0.00  0.00    +0.025 A 
ATOM      4  C   LIG    1       -0.669   1.267  -0.000  0.00  0.00    +0.048 A 
ATOM      5  C   LIG    1       -2.062   1.250   0.077  0.00  0.00    +0.025 A 
ATOM      6  C   LIG    1       -2.782   2.442   0.094  0.00  0.00    +0.011 A 
ENDROOT
BRANCH   1  12
ATOM      7  O   LIG    1       -4.962   8.456  -0.477  0.00  0.00    -0.274 OA
ATOM      8  C   LIG    1       -4.412   7.409  -0.143  0.00  0.00    +0.233 C 
ATOM      9  C   LIG    1       -3.432   7.280   1.039  0.00  0.00    +0.107 C 
ATOM     10  C   LIG    1       -2.376   6.131   0.909  0.00  0.00    +0.046 C 
ATOM     11  C   LIG    1       -1.910   5.680   2.314  0.00  0.00    +0.014 C 
ATOM     12  C   LIG    1       -2.876   4.933   0.051  0.00  0.00    +0.070 C 
ATOM     13  N   LIG    1       -3.924   5.057  -0.678  0.00  0.00    -0.184 NA
ATOM     14  N   LIG    1       -4.644   6.217  -0.736  0.00  0.00    -0.207 N 
ATOM     15  H   LIG    1       -5.342   6.212  -1.465  0.00  0.00    +0.177 HD
ENDBRANCH   1  12
BRANCH   4  16
ATOM     16  N   LIG    1        0.013   0.043  -0.015  0.00  0.00    -0.236 N 
ATOM     17  H   LIG    1       -0.503  -0.825   0.022  0.00  0.00    +0.174 HD
BRANCH  16  18
ATOM     18  N   LIG    1        1.410  -0.108  -0.078  0.00  0.00    -0.160 NA
ATOM     19  C   LIG    1        1.905  -1.281  -0.089  0.00  0.00    +0.234 C 
BRANCH  19  20
ATOM     20  C   LIG    1        3.340  -1.434  -0.151  0.00  0.00    +0.132 C 
ATOM     21  N   LIG    1        4.485  -1.598  -0.198  0.00  0.00    -0.188 NA
ENDBRANCH  19  20
BRANCH  19  22
ATOM     22  C   LIG    1        1.110  -2.495  -0.043  0.00  0.00    +0.132 C 
ATOM     23  N   LIG    1        0.443  -3.440  -0.015  0.00  0.00    -0.188 NA
ENDBRANCH  19  22
ENDBRANCH  16  18
ENDBRANCH   4  16
TORSDOF 5
