REMARK  Name = DB00859
REMARK                            x       y       z     vdW  Elec       q    Type
REMARK                         _______ _______ _______ _____ _____    ______ ____
ROOT
ATOM      1  CA  LIG    1       -0.055   0.044  -0.040  0.00  0.00    +0.176 C 
ENDROOT
BRANCH   1   3
ATOM      2  C   LIG    1        2.148   0.655  -1.294  0.00  0.00    +0.024 C 
ATOM      3  C   LIG    1        1.515   0.047  -0.018  0.00  0.00    +0.033 C 
ATOM      4  C   LIG    1        2.116   0.708   1.245  0.00  0.00    +0.024 C 
BRANCH   3   5
ATOM      5  S   LIG    1        2.081  -1.689   0.043  0.00  0.00    -0.170 S 
ATOM      6  H   LIG    1        1.639  -1.938   1.278  0.00  0.00    +0.102 HD
ENDBRANCH   3   5
ENDBRANCH   1   3
BRANCH   1   7
ATOM      7  N   LIG    1       -0.651  -0.627  -1.214  0.00  0.00    -0.317 NA
ATOM      8  H1  LIG    1       -1.645  -0.760  -1.093  0.00  0.00    +0.119 HD
ATOM      9  H2  LIG    1       -0.247  -1.542  -1.350  0.00  0.00    +0.119 HD
ENDBRANCH   1   7
BRANCH   1  10
ATOM     10  C   LIG    1       -0.673   1.461   0.034  0.00  0.00    +0.323 C 
ATOM     11  O   LIG    1       -0.851   2.181  -0.949  0.00  0.00    -0.249 OA
BRANCH  10  12
ATOM     12  OXT LIG    1       -0.966   1.804   1.322  0.00  0.00    -0.480 OA
ATOM     13  HXT LIG    1       -1.345   2.684   1.387  0.00  0.00    +0.295 HD
ENDBRANCH  10  12
ENDBRANCH   1  10
TORSDOF 5
