REMARK  Name = DB00449
REMARK                            x       y       z     vdW  Elec       q    Type
REMARK                         _______ _______ _______ _____ _____    ______ ____
ROOT
ATOM      1  C   LIG    1       -1.884  -1.093   0.118  0.00  0.00    +0.174 A 
ATOM      2  C   LIG    1       -0.488  -1.112   0.013  0.00  0.00    +0.056 A 
ATOM      3  C   LIG    1        0.240   0.079  -0.083  0.00  0.00    -0.014 A 
ATOM      4  C   LIG    1       -0.445   1.298  -0.089  0.00  0.00    +0.010 A 
ATOM      5  C   LIG    1       -1.835   1.326   0.001  0.00  0.00    +0.050 A 
ATOM      6  C   LIG    1       -2.563   0.138   0.111  0.00  0.00    +0.174 A 
ENDROOT
BRANCH   1   7
ATOM      7  O   LIG    1       -2.587  -2.276   0.186  0.00  0.00    -0.422 OA
BRANCH   7   8
ATOM      8  C   LIG    1       -2.606  -2.989   1.355  0.00  0.00    +0.318 C 
ATOM      9  O   LIG    1       -2.039  -2.660   2.402  0.00  0.00    -0.250 OA
BRANCH   8  10
ATOM     10  C   LIG    1       -3.442  -4.294   1.244  0.00  0.00    +0.060 C 
ATOM     11  C   LIG    1       -2.834  -5.207   0.151  0.00  0.00    +0.022 C 
ATOM     12  C   LIG    1       -3.442  -5.068   2.589  0.00  0.00    +0.022 C 
ATOM     13  C   LIG    1       -4.906  -3.939   0.886  0.00  0.00    +0.022 C 
ENDBRANCH   8  10
ENDBRANCH   7   8
ENDBRANCH   1   7
BRANCH   3  14
ATOM     14  C   LIG    1        1.766   0.055  -0.191  0.00  0.00    +0.158 C 
BRANCH  14  15
ATOM     15  O   LIG    1        2.359  -0.669   0.870  0.00  0.00    -0.386 OA
ATOM     16  H   LIG    1        2.157  -0.219   1.694  0.00  0.00    +0.210 HD
ENDBRANCH  14  15
BRANCH  14  17
ATOM     17  C   LIG    1        2.276  -0.554  -1.518  0.00  0.00    +0.116 C 
BRANCH  17  18
ATOM     18  N   LIG    1        1.807   0.217  -2.666  0.00  0.00    -0.316 NA
ATOM     19  H   LIG    1        0.797   0.248  -2.663  0.00  0.00    +0.122 HD
ATOM     20  C   LIG    1        2.279  -0.371  -3.909  0.00  0.00    +0.101 C 
ENDBRANCH  17  18
ENDBRANCH  14  17
ENDBRANCH   3  14
BRANCH   6  21
ATOM     21  O   LIG    1       -3.938   0.201   0.164  0.00  0.00    -0.422 OA
BRANCH  21  22
ATOM     22  C   LIG    1       -4.573   0.171   1.376  0.00  0.00    +0.318 C 
ATOM     23  O   LIG    1       -4.014   0.043   2.470  0.00  0.00    -0.250 OA
BRANCH  22  24
ATOM     24  C   LIG    1       -6.114   0.347   1.260  0.00  0.00    +0.060 C 
ATOM     25  C   LIG    1       -6.817  -0.083   2.575  0.00  0.00    +0.022 C 
ATOM     26  C   LIG    1       -6.412   1.846   1.014  0.00  0.00    +0.022 C 
ATOM     27  C   LIG    1       -6.692  -0.493   0.091  0.00  0.00    +0.022 C 
ENDBRANCH  22  24
ENDBRANCH  21  22
ENDBRANCH   6  21
TORSDOF 10
