REMARK  Name = DB00513
REMARK                            x       y       z     vdW  Elec       q    Type
REMARK                         _______ _______ _______ _____ _____    ______ ____
ROOT
ATOM      1  C   LIG    1        1.531  -0.044  -0.031  0.00  0.00    +0.011 C 
ENDROOT
BRANCH   1   2
ATOM      2  C   LIG    1        2.078  -1.485   0.016  0.00  0.00    +0.120 C 
BRANCH   2   3
ATOM      3  C   LIG    1        3.608  -1.535  -0.015  0.00  0.00    +0.305 C 
ATOM      4  O   LIG    1        4.294  -1.816   0.965  0.00  0.00    -0.251 OA
BRANCH   3   5
ATOM      5  O   LIG    1        4.100  -1.237  -1.253  0.00  0.00    -0.481 OA
ATOM      6  H   LIG    1        5.059  -1.266  -1.280  0.00  0.00    +0.295 HD
ENDBRANCH   3   5
ENDBRANCH   2   3
ENDBRANCH   1   2
BRANCH   1   7
ATOM      7  C   LIG    1       -0.007   0.009   0.014  0.00  0.00    +0.002 C 
BRANCH   7   8
ATOM      8  C   LIG    1       -0.560   1.444  -0.020  0.00  0.00    +0.015 C 
BRANCH   8   9
ATOM      9  C   LIG    1       -2.097   1.485   0.007  0.00  0.00    +0.077 C 
BRANCH   9  10
ATOM     10  N   LIG    1       -2.564   2.858  -0.012  0.00  0.00    -0.330 NA
ATOM     11  H   LIG    1       -2.252   3.334   0.822  0.00  0.00    +0.118 HD
ATOM     12  H   LIG    1       -3.574   2.873   0.011  0.00  0.00    +0.118 HD
ENDBRANCH   9  10
ENDBRANCH   8   9
ENDBRANCH   7   8
ENDBRANCH   1   7
TORSDOF 7
