REMARK  Name = DB00197
REMARK                            x       y       z     vdW  Elec       q    Type
REMARK                         _______ _______ _______ _____ _____    ______ ____
ROOT
ATOM      1  C   LIG    1        1.414   0.125  -0.045  0.00  0.00    +0.276 C 
ENDROOT
BRANCH   1   2
ATOM      2  C   LIG    1       -0.131  -0.047  -0.011  0.00  0.00    +0.142 C 
ATOM      3  C   LIG    1       -0.694  -0.704  -1.286  0.00  0.00    +0.059 C 
ATOM      4  C   LIG    1       -0.632  -0.838   1.226  0.00  0.00    +0.056 C 
ATOM      5  C   LIG    1       -0.196  -0.164   2.534  0.00  0.00    +0.043 C 
ATOM      6  C   LIG    1       -0.426   1.350   2.478  0.00  0.00    +0.001 A 
ATOM      7  C   LIG    1       -0.400   2.156   3.630  0.00  0.00    -0.002 A 
ATOM      8  C   LIG    1       -0.137   1.509   4.993  0.00  0.00    +0.048 C 
ATOM      9  C   LIG    1       -0.594   3.544   3.531  0.00  0.00    +0.123 A 
ATOM     10  C   LIG    1       -0.808   4.149   2.281  0.00  0.00    -0.002 A 
ATOM     11  C   LIG    1       -1.046   5.659   2.186  0.00  0.00    +0.048 C 
ATOM     12  C   LIG    1       -0.825   3.355   1.121  0.00  0.00    -0.002 A 
ATOM     13  C   LIG    1       -1.028   3.994  -0.256  0.00  0.00    +0.048 C 
ATOM     14  C   LIG    1       -0.639   1.969   1.228  0.00  0.00    +0.128 A 
ATOM     15  O   LIG    1       -0.764   1.240   0.051  0.00  0.00    -0.482 OA
BRANCH   9  16
ATOM     16  O   LIG    1       -0.569   4.318   4.667  0.00  0.00    -0.506 OA
ATOM     17  H   LIG    1       -0.703   5.251   4.483  0.00  0.00    +0.292 HD
ENDBRANCH   9  16
ENDBRANCH   1   2
BRANCH   1  18
ATOM     18  O   LIG    1        2.047  -1.154  -0.034  0.00  0.00    -0.488 OA
BRANCH  18  22
ATOM     19  C   LIG    1        6.204  -1.570   0.033  0.00  0.00    -0.046 A 
ATOM     20  C   LIG    1        5.661  -0.287  -0.054  0.00  0.00    +0.007 A 
ATOM     21  C   LIG    1        4.280  -0.114  -0.079  0.00  0.00    +0.046 A 
ATOM     22  C   LIG    1        3.426  -1.228  -0.019  0.00  0.00    +0.121 A 
ATOM     23  C   LIG    1        3.979  -2.506   0.060  0.00  0.00    +0.046 A 
ATOM     24  C   LIG    1        5.360  -2.681   0.088  0.00  0.00    +0.007 A 
BRANCH  19  25
ATOM     25  C   LIG    1        7.717  -1.752   0.070  0.00  0.00    +0.059 C 
BRANCH  25  33
ATOM     26  S   LIG    1        7.787  -2.343   2.814  0.00  0.00    -0.054 S 
ATOM     27  C   LIG    1        9.466  -2.861   3.208  0.00  0.00    +0.279 C 
ATOM     28  N   LIG    1       10.314  -2.289   2.346  0.00  0.00    -0.246 N 
ATOM     29  H   LIG    1       11.303  -2.473   2.432  0.00  0.00    +0.158 HD
ATOM     30  C   LIG    1        9.880  -1.480   1.373  0.00  0.00    +0.234 C 
ATOM     31  O   LIG    1       10.599  -0.913   0.551  0.00  0.00    -0.274 OA
ATOM     32  O   LIG    1        9.755  -3.618   4.132  0.00  0.00    -0.263 OA
ATOM     33  C   LIG    1        8.358  -1.343   1.421  0.00  0.00    +0.146 C 
ENDBRANCH  25  33
ENDBRANCH  19  25
ENDBRANCH  18  22
ENDBRANCH   1  18
TORSDOF 6
