REMARK  Name = DB00567
REMARK                            x       y       z     vdW  Elec       q    Type
REMARK                         _______ _______ _______ _____ _____    ______ ____
ROOT
ATOM      1  C   LIG    1       -0.659   0.138   1.148  0.00  0.00    +0.169 C 
ATOM      2  CA  LIG    1       -0.063   0.394  -0.264  0.00  0.00    +0.191 C 
ATOM      3  C   LIG    1       -0.534   1.862  -0.075  0.00  0.00    +0.244 C 
ATOM      4  O   LIG    1       -0.368   2.917  -0.686  0.00  0.00    -0.273 OA
ATOM      5  S   LIG    1        0.401  -0.096   2.611  0.00  0.00    -0.131 S 
ATOM      6  C   LIG    1       -0.884   0.383   3.818  0.00  0.00    +0.103 C 
ATOM      7  C   LIG    1       -1.544   1.736   3.505  0.00  0.00    -0.034 C 
ATOM      8  C   LIG    1       -2.103   2.425   4.753  0.00  0.00    +0.042 C 
ATOM      9  CA  LIG    1       -1.629   2.221   2.228  0.00  0.00    +0.122 C 
ATOM     10  N   LIG    1       -1.155   1.533   1.138  0.00  0.00    -0.249 N 
ENDROOT
BRANCH   2  11
ATOM     11  N   LIG    1        1.389   0.286  -0.408  0.00  0.00    -0.300 N 
ATOM     12  H   LIG    1        1.927   1.122  -0.228  0.00  0.00    +0.150 HD
ATOM     13  C   LIG    1        2.031  -0.856  -0.703  0.00  0.00    +0.235 C 
ATOM     14  O   LIG    1        1.460  -1.927  -0.920  0.00  0.00    -0.274 OA
BRANCH  13  15
ATOM     15  CA  LIG    1        3.574  -0.780  -0.747  0.00  0.00    +0.168 C 
BRANCH  15  16
ATOM     16  C   LIG    1        4.222  -1.793   0.180  0.00  0.00    -0.022 A 
ATOM     17  C   LIG    1        5.063  -2.802  -0.312  0.00  0.00    +0.005 A 
ATOM     18  C   LIG    1        5.652  -3.716   0.559  0.00  0.00    +0.000 A 
ATOM     19  C   LIG    1        5.407  -3.623   1.926  0.00  0.00    +0.000 A 
ATOM     20  C   LIG    1        4.581  -2.624   2.432  0.00  0.00    +0.000 A 
ATOM     21  C   LIG    1        3.993  -1.710   1.561  0.00  0.00    +0.005 A 
ENDBRANCH  15  16
BRANCH  15  22
ATOM     22  N   LIG    1        3.926  -0.799  -2.179  0.00  0.00    -0.316 NA
ATOM     23  H1  LIG    1        4.928  -0.749  -2.301  0.00  0.00    +0.119 HD
ATOM     24  H2  LIG    1        3.543   0.006  -2.653  0.00  0.00    +0.119 HD
ENDBRANCH  15  22
ENDBRANCH  13  15
ENDBRANCH   2  11
BRANCH   9  25
ATOM     25  C   LIG    1       -2.226   3.521   1.958  0.00  0.00    +0.351 C 
ATOM     26  O   LIG    1       -1.869   4.571   2.491  0.00  0.00    -0.244 OA
BRANCH  25  27
ATOM     27  OXT LIG    1       -3.241   3.449   1.046  0.00  0.00    -0.476 OA
ATOM     28  HXT LIG    1       -3.633   4.307   0.868  0.00  0.00    +0.295 HD
ENDBRANCH  25  27
ENDBRANCH   9  25
TORSDOF 6
