REMARK  Name = DB00991
REMARK                            x       y       z     vdW  Elec       q    Type
REMARK                         _______ _______ _______ _____ _____    ______ ____
ROOT
ATOM      1  O   LIG    1       -0.695   1.450   0.099  0.00  0.00    -0.439 OA
ATOM      2  C   LIG    1       -0.048   0.270   0.246  0.00  0.00    +0.197 A 
ATOM      3  N   LIG    1       -0.844  -0.771   0.305  0.00  0.00    -0.213 NA
ATOM      4  C   LIG    1       -2.070  -0.281   0.185  0.00  0.00    +0.117 A 
ATOM      5  C   LIG    1       -2.008   1.112   0.070  0.00  0.00    +0.163 A 
ENDROOT
BRANCH   4   6
ATOM      6  C   LIG    1       -3.264  -1.181   0.175  0.00  0.00    +0.004 A 
ATOM      7  C   LIG    1       -4.342  -0.903  -0.671  0.00  0.00    +0.010 A 
ATOM      8  C   LIG    1       -5.456  -1.738  -0.686  0.00  0.00    +0.001 A 
ATOM      9  C   LIG    1       -5.491  -2.856   0.143  0.00  0.00    +0.000 A 
ATOM     10  C   LIG    1       -4.421  -3.148   0.985  0.00  0.00    +0.001 A 
ATOM     11  C   LIG    1       -3.307  -2.312   1.000  0.00  0.00    +0.010 A 
ENDBRANCH   4   6
BRANCH   5  12
ATOM     12  C   LIG    1       -2.994   2.224  -0.039  0.00  0.00    +0.019 A 
ATOM     13  C   LIG    1       -4.217   2.146   0.634  0.00  0.00    +0.011 A 
ATOM     14  C   LIG    1       -5.136   3.187   0.535  0.00  0.00    +0.001 A 
ATOM     15  C   LIG    1       -4.829   4.308  -0.234  0.00  0.00    +0.000 A 
ATOM     16  C   LIG    1       -3.610   4.397  -0.903  0.00  0.00    +0.001 A 
ATOM     17  C   LIG    1       -2.691   3.355  -0.804  0.00  0.00    +0.011 A 
ENDBRANCH   5  12
BRANCH   2  18
ATOM     18  C   LIG    1        1.468   0.310   0.319  0.00  0.00    +0.107 C 
BRANCH  18  19
ATOM     19  C   LIG    1        2.129  -1.078   0.506  0.00  0.00    +0.130 C 
BRANCH  19  20
ATOM     20  C   LIG    1        3.576  -1.006   1.005  0.00  0.00    +0.305 C 
ATOM     21  O   LIG    1        4.536  -1.352   0.320  0.00  0.00    -0.251 OA
BRANCH  20  22
ATOM     22  O   LIG    1        3.659  -0.530   2.281  0.00  0.00    -0.481 OA
ATOM     23  H   LIG    1        4.565  -0.489   2.596  0.00  0.00    +0.295 HD
ENDBRANCH  20  22
ENDBRANCH  19  20
ENDBRANCH  18  19
ENDBRANCH   2  18
TORSDOF 6
