REMARK  Name = DB00155
REMARK                            x       y       z     vdW  Elec       q    Type
REMARK                         _______ _______ _______ _____ _____    ______ ____
ROOT
ATOM      1  C   LIG    1        1.409  -0.076  -0.114  0.00  0.00    -0.004 C 
ENDROOT
BRANCH   1   2
ATOM      2  C   LIG    1       -0.126   0.043   0.018  0.00  0.00    +0.018 C 
BRANCH   2   3
ATOM      3  C   LIG    1       -0.649   1.495   0.075  0.00  0.00    +0.105 C 
BRANCH   3   4
ATOM      4  N   LIG    1       -0.124   2.289   1.186  0.00  0.00    -0.300 N 
ATOM      5  H   LIG    1        0.541   3.009   0.946  0.00  0.00    +0.150 HD
ATOM      6  C   LIG    1       -0.465   2.132   2.475  0.00  0.00    +0.297 C 
ATOM      7  N   LIG    1        0.172   2.984   3.277  0.00  0.00    -0.313 N 
ATOM      8  H   LIG    1        0.004   2.960   4.272  0.00  0.00    +0.146 HD
ATOM      9  H   LIG    1        0.815   3.663   2.898  0.00  0.00    +0.146 HD
ATOM     10  O   LIG    1       -1.269   1.300   2.893  0.00  0.00    -0.253 OA
ENDBRANCH   3   4
ENDBRANCH   2   3
ENDBRANCH   1   2
BRANCH   1  11
ATOM     11  CA  LIG    1        1.938  -1.534  -0.119  0.00  0.00    +0.036 C 
BRANCH  11  12
ATOM     12  N   LIG    1        3.443  -1.506   0.203  0.00  0.00    +0.387 N 
ATOM     13  H1  LIG    1        3.938  -0.975  -0.499  0.00  0.00    -0.089 HD
ATOM     14  H2  LIG    1        3.592  -1.071   1.102  0.00  0.00    -0.089 HD
ATOM     15  H3  LIG    1        3.809  -2.446   0.234  0.00  0.00    -0.089 HD
ENDBRANCH  11  12
BRANCH  11  16
ATOM     16  C   LIG    1        1.744  -2.237  -1.491  0.00  0.00    +0.290 C 
ATOM     17  O   LIG    1        0.613  -2.729  -1.700  0.00  0.00    -0.253 OA
BRANCH  16  18
ATOM     18  OXT LIG    1        2.682  -2.271  -2.323  0.00  0.00    -0.482 OA
ATOM     19  HXT LIG    1        3.509  -1.886  -2.113  0.00  0.00    +0.295 HD
ENDBRANCH  16  18
ENDBRANCH  11  16
ENDBRANCH   1  11
TORSDOF 7
