REMARK  Name = DB00142
REMARK                            x       y       z     vdW  Elec       q    Type
REMARK                         _______ _______ _______ _____ _____    ______ ____
ROOT
ATOM      1  CA  GLU A  1        1.606   0.043  -0.093  0.00  0.00    +0.161 C 
ENDROOT
BRANCH   1   2
ATOM      2  N   GLU A  1        2.178   0.712  -1.277  0.00  0.00    -0.318 NA
ATOM      3  H1  GLU A  1        1.703   0.437  -2.125  0.00  0.00    +0.119 HD
ATOM      4  H2  GLU A  1        3.158   0.495  -1.390  0.00  0.00    +0.119 HD
ENDBRANCH   1   2
BRANCH   1   5
ATOM      5  C   GLU A  1        2.130  -1.410  -0.048  0.00  0.00    +0.322 C 
ATOM      6  OXT GLU A  1        2.495  -2.042  -1.040  0.00  0.00    -0.249 OA
BRANCH   5   7
ATOM      7  O   GLU A  1        2.106  -1.895   1.228  0.00  0.00    -0.480 OA
ATOM      8  H   GLU A  1        2.420  -2.801   1.279  0.00  0.00    +0.295 HD
ENDBRANCH   5   7
ENDBRANCH   1   5
BRANCH   1   9
ATOM      9  CB  GLU A  1        0.061   0.093  -0.056  0.00  0.00    +0.041 C 
BRANCH   9  10
ATOM     10  CG  GLU A  1       -0.504   1.522   0.046  0.00  0.00    +0.122 C 
BRANCH  10  11
ATOM     11  CD  GLU A  1       -2.029   1.523   0.134  0.00  0.00    +0.305 C 
ATOM     12  OE2 GLU A  1       -2.653   1.573   1.191  0.00  0.00    -0.251 OA
BRANCH  11  13
ATOM     13  OE1 GLU A  1       -2.617   1.453  -1.096  0.00  0.00    -0.481 OA
ATOM     14  HE1 GLU A  1       -3.575   1.452  -1.047  0.00  0.00    +0.295 HD
ENDBRANCH  11  13
ENDBRANCH  10  11
ENDBRANCH   9  10
ENDBRANCH   1   9
TORSDOF 7
