REMARK  Name = DB00287
REMARK                            x       y       z     vdW  Elec       q    Type
REMARK                         _______ _______ _______ _____ _____    ______ ____
ROOT
ATOM      1  C   LIG    1       -0.947  -0.761   0.434  0.00  0.00    +0.046 C 
ATOM      2  C   LIG    1       -1.399  -2.158  -0.016  0.00  0.00    +0.124 C 
ATOM      3  C   LIG    1       -0.853  -2.304  -1.435  0.00  0.00    +0.063 C 
ATOM      4  C   LIG    1       -0.866  -0.891  -2.036  0.00  0.00    +0.121 C 
ATOM      5  C   LIG    1       -0.952   0.110  -0.849  0.00  0.00    +0.031 C 
ENDROOT
BRANCH   1   7
ATOM      6  C   LIG    1       -1.349   0.084   2.797  0.00  0.00    +0.003 C 
ATOM      7  C   LIG    1       -1.804  -0.200   1.560  0.00  0.00    -0.022 C 
BRANCH   6   8
ATOM      8  C   LIG    1       -2.138   0.649   3.976  0.00  0.00    +0.174 C 
BRANCH   8   9
ATOM      9  O   LIG    1       -3.505   0.809   3.633  0.00  0.00    -0.384 OA
ATOM     10  H   LIG    1       -3.564   1.424   2.899  0.00  0.00    +0.210 HD
ENDBRANCH   8   9
BRANCH   8  11
ATOM     11  C   LIG    1       -2.030  -0.224   5.239  0.00  0.00    +0.264 C 
BRANCH  11  12
ATOM     12  O   LIG    1       -2.566   0.479   6.359  0.00  0.00    -0.489 OA
BRANCH  12  17
ATOM     13  C   LIG    1       -3.247   0.058   9.938  0.00  0.00    +0.058 A 
ATOM     14  C   LIG    1       -2.746  -1.227  10.176  0.00  0.00    +0.012 A 
ATOM     15  C   LIG    1       -2.176  -1.964   9.139  0.00  0.00    +0.004 A 
ATOM     16  C   LIG    1       -2.101  -1.425   7.856  0.00  0.00    +0.045 A 
ATOM     17  C   LIG    1       -2.597  -0.137   7.595  0.00  0.00    +0.121 A 
ATOM     18  C   LIG    1       -3.164   0.590   8.645  0.00  0.00    +0.058 A 
BRANCH  13  20
ATOM     19  F   LIG    1       -4.237   0.116  12.098  0.00  0.00    -0.166 F 
ATOM     20  C   LIG    1       -3.878   0.878  11.062  0.00  0.00    +0.418 C 
ATOM     21  F   LIG    1       -2.996   1.780  11.491  0.00  0.00    -0.166 F 
ATOM     22  F   LIG    1       -4.965   1.517  10.627  0.00  0.00    -0.166 F 
ENDBRANCH  13  20
ENDBRANCH  12  17
ENDBRANCH  11  12
ENDBRANCH   8  11
ENDBRANCH   6   8
ENDBRANCH   1   7
BRANCH   4  23
ATOM     23  O   LIG    1        0.150  -0.702  -3.003  0.00  0.00    -0.391 OA
ATOM     24  H   LIG    1       -0.020   0.120  -3.469  0.00  0.00    +0.210 HD
ENDBRANCH   4  23
BRANCH   2  25
ATOM     25  O   LIG    1       -1.053  -3.221   0.849  0.00  0.00    -0.391 OA
ATOM     26  H   LIG    1       -0.260  -2.976   1.331  0.00  0.00    +0.210 HD
ENDBRANCH   2  25
BRANCH   5  27
ATOM     27  C   LIG    1        0.123   1.227  -0.855  0.00  0.00    +0.033 C 
BRANCH  27  28
ATOM     28  C   LIG    1       -0.088   2.319   0.183  0.00  0.00    -0.031 C 
ATOM     29  C   LIG    1        0.667   2.560   1.272  0.00  0.00    -0.031 C 
BRANCH  29  30
ATOM     30  C   LIG    1        1.877   1.767   1.738  0.00  0.00    +0.027 C 
BRANCH  30  31
ATOM     31  C   LIG    1        3.224   2.472   1.504  0.00  0.00    +0.015 C 
BRANCH  31  32
ATOM     32  C   LIG    1        3.576   2.623   0.007  0.00  0.00    +0.121 C 
BRANCH  32  33
ATOM     33  C   LIG    1        4.931   3.284  -0.271  0.00  0.00    +0.307 C 
ATOM     34  O   LIG    1        5.699   3.628   0.631  0.00  0.00    -0.251 OA
BRANCH  33  35
ATOM     35  O   LIG    1        5.151   3.433  -1.599  0.00  0.00    -0.462 OA
BRANCH  35  36
ATOM     36  C   LIG    1        6.357   4.006  -2.104  0.00  0.00    +0.170 C 
ATOM     37  C   LIG    1        7.508   2.979  -2.084  0.00  0.00    +0.052 C 
ATOM     38  C   LIG    1        6.073   4.516  -3.525  0.00  0.00    +0.052 C 
ENDBRANCH  35  36
ENDBRANCH  33  35
ENDBRANCH  32  33
ENDBRANCH  31  32
ENDBRANCH  30  31
ENDBRANCH  29  30
ENDBRANCH  27  28
ENDBRANCH   5  27
TORSDOF 17
