REMARK  Name = DB00660
REMARK                            x       y       z     vdW  Elec       q    Type
REMARK                         _______ _______ _______ _____ _____    ______ ____
ROOT
ATOM      1  O   LIG    1        0.063   0.136  -0.003  0.00  0.00    -0.488 OA
ENDROOT
BRANCH   1   2
ATOM      2  C   LIG    1        1.444   0.143  -0.002  0.00  0.00    +0.121 A 
ATOM      3  C   LIG    1        2.235   1.304  -0.040  0.00  0.00    +0.049 A 
ATOM      4  C   LIG    1        3.630   1.218  -0.036  0.00  0.00    -0.047 A 
ATOM      5  C   LIG    1        4.465   2.484  -0.081  0.00  0.00    +0.044 C 
ATOM      6  C   LIG    1        4.245  -0.036   0.008  0.00  0.00    +0.007 A 
ATOM      7  C   LIG    1        3.471  -1.198   0.046  0.00  0.00    -0.047 A 
ATOM      8  C   LIG    1        4.133  -2.563   0.093  0.00  0.00    +0.044 C 
ATOM      9  C   LIG    1        2.078  -1.101   0.042  0.00  0.00    +0.049 A 
ENDBRANCH   1   2
BRANCH   1  10
ATOM     10  C   LIG    1       -0.643   1.373  -0.054  0.00  0.00    +0.275 C 
BRANCH  10  17
ATOM     11  O   LIG    1       -2.551   0.473  -1.264  0.00  0.00    -0.442 OA
ATOM     12  C   LIG    1       -3.759   0.907  -1.695  0.00  0.00    +0.401 C 
ATOM     13  N   LIG    1       -4.156   1.891  -0.805  0.00  0.00    -0.277 N 
ATOM     14  H   LIG    1       -5.117   2.048  -0.538  0.00  0.00    +0.152 HD
ATOM     15  C   LIG    1       -3.032   2.323  -0.012  0.00  0.00    +0.155 C 
ATOM     16  O   LIG    1       -4.319   0.466  -2.695  0.00  0.00    -0.226 OA
ATOM     17  C   LIG    1       -2.154   1.086  -0.050  0.00  0.00    +0.232 C 
ENDBRANCH  10  17
ENDBRANCH   1  10
TORSDOF 3
