REMARK  Name = DB00768
REMARK                            x       y       z     vdW  Elec       q    Type
REMARK                         _______ _______ _______ _____ _____    ______ ____
ROOT
ATOM      1  O   LIG    1       -2.372   1.946   3.098  0.00  0.00    -0.487 OA
ATOM      2  C   LIG    1       -3.141   3.104   2.802  0.00  0.00    +0.265 C 
ATOM      3  C   LIG    1       -2.988   3.707   1.398  0.00  0.00    -0.003 A 
ATOM      4  C   LIG    1       -3.505   4.995   1.206  0.00  0.00    +0.007 A 
ATOM      5  C   LIG    1       -3.408   5.646  -0.019  0.00  0.00    +0.000 A 
ATOM      6  C   LIG    1       -2.786   5.012  -1.085  0.00  0.00    +0.001 A 
ATOM      7  C   LIG    1       -2.268   3.732  -0.919  0.00  0.00    +0.009 A 
ATOM      8  C   LIG    1       -2.356   3.048   0.308  0.00  0.00    -0.011 A 
ATOM      9  C   LIG    1       -1.773   1.672   0.393  0.00  0.00    -0.011 C 
ATOM     10  C   LIG    1       -0.626   1.371  -0.270  0.00  0.00    -0.017 C 
ATOM     11  C   LIG    1       -2.534   0.630   1.119  0.00  0.00    +0.024 A 
ATOM     12  C   LIG    1       -2.982  -0.533   0.479  0.00  0.00    +0.016 A 
ATOM     13  C   LIG    1       -3.671  -1.522   1.188  0.00  0.00    -0.036 A 
ATOM     14  C   LIG    1       -3.914  -1.344   2.552  0.00  0.00    +0.008 A 
ATOM     15  C   LIG    1       -3.486  -0.183   3.193  0.00  0.00    +0.046 A 
ATOM     16  C   LIG    1       -2.809   0.807   2.478  0.00  0.00    +0.129 A 
ENDROOT
BRANCH  10  17
ATOM     17  C   LIG    1        0.121   0.040  -0.316  0.00  0.00    +0.043 C 
BRANCH  17  18
ATOM     18  C   LIG    1        1.583   0.107   0.181  0.00  0.00    +0.088 C 
BRANCH  18  19
ATOM     19  N   LIG    1        2.411   1.122  -0.482  0.00  0.00    -0.308 NA
ATOM     20  C   LIG    1        3.705   1.218   0.187  0.00  0.00    +0.104 C 
ATOM     21  C   LIG    1        2.620   0.825  -1.898  0.00  0.00    +0.104 C 
ENDBRANCH  18  19
ENDBRANCH  17  18
ENDBRANCH  10  17
BRANCH  13  22
ATOM     22  C   LIG    1       -4.117  -2.802   0.486  0.00  0.00    +0.155 C 
BRANCH  22  23
ATOM     23  C   LIG    1       -3.028  -3.886   0.459  0.00  0.00    +0.309 C 
ATOM     24  O   LIG    1       -1.841  -3.686   0.714  0.00  0.00    -0.251 OA
BRANCH  23  25
ATOM     25  O   LIG    1       -3.544  -5.087   0.069  0.00  0.00    -0.480 OA
ATOM     26  H   LIG    1       -2.875  -5.773   0.029  0.00  0.00    +0.295 HD
ENDBRANCH  23  25
ENDBRANCH  22  23
ENDBRANCH  13  22
TORSDOF 6
