REMARK  Name = DB00476
REMARK                            x       y       z     vdW  Elec       q    Type
REMARK                         _______ _______ _______ _____ _____    ______ ____
ROOT
ATOM      1  C   LIG    1       -0.054   0.058   0.092  0.00  0.00    +0.211 C 
ENDROOT
BRANCH   1   6
ATOM      2  S   LIG    1       -0.592   2.424  -1.442  0.00  0.00    -0.098 S 
ATOM      3  C   LIG    1       -1.088   3.860  -0.615  0.00  0.00    +0.045 A 
ATOM      4  C   LIG    1       -1.157   3.662   0.751  0.00  0.00    +0.008 A 
ATOM      5  C   LIG    1       -0.813   2.358   1.119  0.00  0.00    +0.015 A 
ATOM      6  C   LIG    1       -0.478   1.523   0.053  0.00  0.00    +0.030 A 
ENDBRANCH   1   6
BRANCH   1   7
ATOM      7  C   LIG    1        1.481  -0.066  -0.057  0.00  0.00    +0.065 C 
BRANCH   7   8
ATOM      8  C   LIG    1        2.027  -1.509  -0.038  0.00  0.00    +0.084 C 
BRANCH   8   9
ATOM      9  N   LIG    1        1.747  -2.158   1.236  0.00  0.00    -0.319 NA
ATOM     10  H   LIG    1        2.185  -1.640   1.985  0.00  0.00    +0.122 HD
ATOM     11  C   LIG    1        2.237  -3.526   1.232  0.00  0.00    +0.101 C 
ENDBRANCH   8   9
ENDBRANCH   7   8
ENDBRANCH   1   7
BRANCH   1  12
ATOM     12  O   LIG    1       -0.633  -0.682  -0.989  0.00  0.00    -0.483 OA
BRANCH  12  13
ATOM     13  C   LIG    1       -1.996  -0.929  -1.047  0.00  0.00    +0.129 A 
ATOM     14  C   LIG    1       -2.893  -0.583  -0.025  0.00  0.00    +0.046 A 
ATOM     15  C   LIG    1       -4.250  -0.860  -0.129  0.00  0.00    +0.004 A 
ATOM     16  C   LIG    1       -4.758  -1.499  -1.253  0.00  0.00    +0.009 A 
ATOM     17  C   LIG    1       -3.896  -1.877  -2.309  0.00  0.00    -0.014 A 
ATOM     18  C   LIG    1       -4.391  -2.536  -3.462  0.00  0.00    +0.008 A 
ATOM     19  C   LIG    1       -3.526  -2.902  -4.490  0.00  0.00    +0.001 A 
ATOM     20  C   LIG    1       -2.168  -2.626  -4.400  0.00  0.00    +0.001 A 
ATOM     21  C   LIG    1       -1.650  -1.980  -3.281  0.00  0.00    +0.012 A 
ATOM     22  C   LIG    1       -2.498  -1.590  -2.207  0.00  0.00    +0.024 A 
ENDBRANCH  12  13
ENDBRANCH   1  12
TORSDOF 6
