REMARK  Name = DB00843
REMARK                            x       y       z     vdW  Elec       q    Type
REMARK                         _______ _______ _______ _____ _____    ______ ____
ROOT
ATOM      1  O   LIG    1        1.696  -2.472   0.497  0.00  0.00    -0.292 OA
ATOM      2  C   LIG    1        2.000  -1.560  -0.272  0.00  0.00    +0.167 C 
ATOM      3  C   LIG    1        2.874  -1.659  -1.460  0.00  0.00    +0.025 A 
ATOM      4  C   LIG    1        3.581  -2.761  -1.938  0.00  0.00    +0.061 A 
ATOM      5  C   LIG    1        4.360  -2.651  -3.104  0.00  0.00    +0.162 A 
ATOM      6  C   LIG    1        4.412  -1.425  -3.786  0.00  0.00    +0.162 A 
ATOM      7  C   LIG    1        3.685  -0.326  -3.292  0.00  0.00    +0.053 A 
ATOM      8  C   LIG    1        2.925  -0.444  -2.130  0.00  0.00    -0.033 A 
ATOM      9  C   LIG    1        2.046   0.581  -1.463  0.00  0.00    +0.047 C 
ATOM     10  C   LIG    1        1.533  -0.099  -0.183  0.00  0.00    +0.065 C 
ENDROOT
BRANCH   6  11
ATOM     11  O   LIG    1        5.189  -1.376  -4.931  0.00  0.00    -0.491 OA
ATOM     12  C   LIG    1        5.287  -0.158  -5.661  0.00  0.00    +0.277 C 
ENDBRANCH   6  11
BRANCH   5  13
ATOM     13  O   LIG    1        5.095  -3.697  -3.636  0.00  0.00    -0.491 OA
ATOM     14  C   LIG    1        5.090  -4.962  -2.985  0.00  0.00    +0.277 C 
ENDBRANCH   5  13
BRANCH  10  15
ATOM     15  C   LIG    1       -0.000  -0.023   0.046  0.00  0.00    +0.015 C 
BRANCH  15  16
ATOM     16  C   LIG    1       -0.563   1.411   0.209  0.00  0.00    -0.008 C 
ATOM     17  C   LIG    1       -2.094   1.414   0.370  0.00  0.00    +0.019 C 
ATOM     18  C   LIG    1       -2.648   2.852   0.453  0.00  0.00    +0.085 C 
ATOM     19  N   LIG    1       -2.027   3.622   1.545  0.00  0.00    -0.298 NA
ATOM     20  C   LIG    1       -0.553   3.604   1.504  0.00  0.00    +0.085 C 
ATOM     21  C   LIG    1        0.009   2.169   1.422  0.00  0.00    +0.019 C 
BRANCH  19  22
ATOM     22  C   LIG    1       -2.568   4.986   1.570  0.00  0.00    +0.119 C 
BRANCH  22  23
ATOM     23  C   LIG    1       -2.276   5.711   2.878  0.00  0.00    -0.033 A 
ATOM     24  C   LIG    1       -2.984   5.373   4.034  0.00  0.00    +0.005 A 
ATOM     25  C   LIG    1       -2.689   6.002   5.241  0.00  0.00    +0.000 A 
ATOM     26  C   LIG    1       -1.678   6.959   5.290  0.00  0.00    +0.000 A 
ATOM     27  C   LIG    1       -0.956   7.290   4.145  0.00  0.00    +0.000 A 
ATOM     28  C   LIG    1       -1.251   6.660   2.938  0.00  0.00    +0.005 A 
ENDBRANCH  22  23
ENDBRANCH  19  22
ENDBRANCH  15  16
ENDBRANCH  10  15
TORSDOF 6
