REMARK  Name = DB00356
REMARK                            x       y       z     vdW  Elec       q    Type
REMARK                         _______ _______ _______ _____ _____    ______ ____
ROOT
ATOM      1 CL   LIG    1        1.520   7.647   1.517  0.00  0.00    -0.083 Cl
ATOM      2  C   LIG    1        0.780   6.174   1.006  0.00  0.00    +0.043 A 
ATOM      3  C   LIG    1       -0.612   6.120   0.821  0.00  0.00    +0.024 A 
ATOM      4  C   LIG    1       -1.231   4.934   0.406  0.00  0.00    +0.050 A 
ATOM      5  C   LIG    1       -0.419   3.824   0.188  0.00  0.00    +0.157 A 
ATOM      6  C   LIG    1        0.937   3.870   0.367  0.00  0.00    +0.089 A 
ATOM      7  N   LIG    1        1.388   2.613   0.063  0.00  0.00    -0.288 N 
ATOM      8  H   LIG    1        2.348   2.302   0.091  0.00  0.00    +0.172 HD
ATOM      9  C   LIG    1        0.321   1.798  -0.300  0.00  0.00    +0.419 A 
ATOM     10  O   LIG    1        0.301   0.618  -0.640  0.00  0.00    -0.223 OA
ATOM     11  O   LIG    1       -0.796   2.579  -0.214  0.00  0.00    -0.408 OA
ATOM     12  C   LIG    1        1.572   5.040   0.779  0.00  0.00    +0.049 A 
ENDROOT
TORSDOF 0
