REMARK  Name = DB00319
REMARK                            x       y       z     vdW  Elec       q    Type
REMARK                         _______ _______ _______ _____ _____    ______ ____
ROOT
ATOM      1  CA  LIG    1        1.709  -0.044  -0.042  0.00  0.00    +0.191 C 
ENDROOT
BRANCH   1   2
ATOM      2  N   LIG    1        2.272  -0.810  -1.170  0.00  0.00    -0.284 N 
ATOM      3  H   LIG    1        2.285  -1.810  -1.034  0.00  0.00    +0.151 HD
ATOM      4  C   LIG    1        2.544  -0.339  -2.409  0.00  0.00    +0.310 C 
ATOM      5  N   LIG    1        3.024  -1.264  -3.302  0.00  0.00    -0.217 N 
ATOM      6  C   LIG    1        3.962  -0.959  -4.269  0.00  0.00    +0.309 C 
ATOM      7  O   LIG    1        4.474   0.150  -4.468  0.00  0.00    -0.264 OA
ATOM      8  C   LIG    1        4.367  -2.050  -5.235  0.00  0.00    +0.302 C 
ATOM      9  O   LIG    1        5.462  -1.939  -5.795  0.00  0.00    -0.265 OA
ATOM     10  N   LIG    1        3.497  -3.090  -5.411  0.00  0.00    -0.293 N 
ATOM     11  C   LIG    1        2.304  -3.252  -4.561  0.00  0.00    +0.127 C 
ATOM     12  C   LIG    1        2.619  -2.690  -3.157  0.00  0.00    +0.137 C 
ATOM     13  O   LIG    1        2.428   0.864  -2.667  0.00  0.00    -0.252 OA
BRANCH  10  14
ATOM     14  C   LIG    1        3.704  -4.041  -6.511  0.00  0.00    +0.105 C 
ATOM     15  C   LIG    1        2.754  -3.804  -7.694  0.00  0.00    +0.024 C 
ENDBRANCH  10  14
ENDBRANCH   1   2
BRANCH   1  16
ATOM     16  C   LIG    1        2.059  -0.679   1.293  0.00  0.00    -0.018 A 
ATOM     17  C   LIG    1        2.371  -2.043   1.423  0.00  0.00    +0.006 A 
ATOM     18  C   LIG    1        2.683  -2.581   2.669  0.00  0.00    +0.000 A 
ATOM     19  C   LIG    1        2.686  -1.762   3.794  0.00  0.00    +0.000 A 
ATOM     20  C   LIG    1        2.377  -0.409   3.685  0.00  0.00    +0.000 A 
ATOM     21  C   LIG    1        2.063   0.128   2.439  0.00  0.00    +0.006 A 
ENDBRANCH   1  16
BRANCH   1  24
ATOM     22  N   LIG    1       -0.316   1.314   0.203  0.00  0.00    -0.300 N 
ATOM     23  H   LIG    1        0.323   1.941   0.670  0.00  0.00    +0.150 HD
ATOM     24  C   LIG    1        0.179   0.128  -0.195  0.00  0.00    +0.239 C 
ATOM     25  O   LIG    1       -0.505  -0.814  -0.598  0.00  0.00    -0.273 OA
BRANCH  22  28
ATOM     26  N   LIG    1       -2.955   2.892  -1.043  0.00  0.00    -0.271 N 
ATOM     27  C   LIG    1       -2.003   3.248   0.040  0.00  0.00    +0.165 C 
ATOM     28  CA  LIG    1       -1.723   1.737   0.214  0.00  0.00    +0.190 C 
ATOM     29  S   LIG    1       -0.850   4.378  -0.783  0.00  0.00    -0.127 S 
ATOM     30  C   LIG    1       -2.146   5.023  -1.885  0.00  0.00    +0.042 C 
ATOM     31  C   LIG    1       -2.908   6.090  -1.045  0.00  0.00    +0.025 C 
ATOM     32  C   LIG    1       -1.557   5.740  -3.117  0.00  0.00    +0.025 C 
ATOM     33  CA  LIG    1       -3.018   3.763  -2.227  0.00  0.00    +0.201 C 
ATOM     34  C   LIG    1       -2.566   1.549  -1.081  0.00  0.00    +0.240 C 
ATOM     35  O   LIG    1       -2.764   0.642  -1.888  0.00  0.00    -0.273 OA
BRANCH  33  36
ATOM     36  C   LIG    1       -4.459   4.075  -2.688  0.00  0.00    +0.327 C 
ATOM     37  OXT LIG    1       -5.452   3.862  -2.021  0.00  0.00    -0.249 OA
BRANCH  36  38
ATOM     38  O   LIG    1       -4.451   4.588  -3.952  0.00  0.00    -0.479 OA
ATOM     39  H   LIG    1       -5.335   4.778  -4.272  0.00  0.00    +0.295 HD
ENDBRANCH  36  38
ENDBRANCH  33  36
ENDBRANCH  22  28
ENDBRANCH   1  24
TORSDOF 7
