REMARK  Name = DB00472
REMARK                            x       y       z     vdW  Elec       q    Type
REMARK                         _______ _______ _______ _____ _____    ______ ____
ROOT
ATOM      1  C   LIG    1       -0.024   0.001  -0.125  0.00  0.00    +0.205 C 
ENDROOT
BRANCH   1   2
ATOM      2  C   LIG    1       -0.454  -0.789  -1.366  0.00  0.00    -0.007 A 
ATOM      3  C   LIG    1       -0.605  -2.176  -1.283  0.00  0.00    +0.007 A 
ATOM      4  C   LIG    1       -0.997  -2.904  -2.404  0.00  0.00    +0.000 A 
ATOM      5  C   LIG    1       -1.237  -2.244  -3.606  0.00  0.00    +0.000 A 
ATOM      6  C   LIG    1       -1.088  -0.862  -3.699  0.00  0.00    +0.000 A 
ATOM      7  C   LIG    1       -0.696  -0.134  -2.579  0.00  0.00    +0.007 A 
ENDBRANCH   1   2
BRANCH   1   8
ATOM      8  O   LIG    1       -0.667   1.281  -0.081  0.00  0.00    -0.484 OA
BRANCH   8  12
ATOM      9  C   LIG    1       -4.739   1.828   0.730  0.00  0.00    +0.055 A 
ATOM     10  C   LIG    1       -3.895   2.904   0.439  0.00  0.00    +0.016 A 
ATOM     11  C   LIG    1       -2.546   2.685   0.174  0.00  0.00    +0.046 A 
ATOM     12  C   LIG    1       -2.018   1.394   0.197  0.00  0.00    +0.121 A 
ATOM     13  C   LIG    1       -2.865   0.315   0.494  0.00  0.00    +0.046 A 
ATOM     14  C   LIG    1       -4.214   0.532   0.758  0.00  0.00    +0.016 A 
BRANCH   9  16
ATOM     15  F   LIG    1       -6.409   3.253   1.613  0.00  0.00    -0.166 F 
ATOM     16  C   LIG    1       -6.218   2.070   1.027  0.00  0.00    +0.417 C 
ATOM     17  F   LIG    1       -6.900   2.050  -0.118  0.00  0.00    -0.166 F 
ATOM     18  F   LIG    1       -6.718   1.130   1.833  0.00  0.00    -0.166 F 
ENDBRANCH   9  16
ENDBRANCH   8  12
ENDBRANCH   1   8
BRANCH   1  19
ATOM     19  C   LIG    1        1.510   0.211  -0.105  0.00  0.00    +0.064 C 
BRANCH  19  20
ATOM     20  C   LIG    1        2.089   0.785   1.205  0.00  0.00    +0.084 C 
BRANCH  20  21
ATOM     21  N   LIG    1        1.651   2.155   1.433  0.00  0.00    -0.319 NA
ATOM     22  H   LIG    1        1.897   2.733   0.642  0.00  0.00    +0.122 HD
ATOM     23  C   LIG    1        2.240   2.692   2.649  0.00  0.00    +0.101 C 
ENDBRANCH  20  21
ENDBRANCH  19  20
ENDBRANCH   1  19
TORSDOF 7
