REMARK  Name = DB00193
REMARK                            x       y       z     vdW  Elec       q    Type
REMARK                         _______ _______ _______ _____ _____    ______ ____
ROOT
ATOM      1  C   LIG    1       -0.401  -0.903  -1.485  0.00  0.00    +0.095 C 
ATOM      2  C   LIG    1       -1.960  -0.887  -1.469  0.00  0.00    +0.040 C 
ATOM      3  C   LIG    1       -2.547  -1.262  -0.096  0.00  0.00    +0.003 C 
ATOM      4  C   LIG    1       -2.068  -0.277   0.983  0.00  0.00    +0.001 C 
ATOM      5  C   LIG    1       -0.532  -0.170   1.033  0.00  0.00    +0.008 C 
ATOM      6  C   LIG    1        0.116   0.084  -0.366  0.00  0.00    +0.039 C 
ENDROOT
BRANCH   1   7
ATOM      7  C   LIG    1        0.107  -2.375  -1.441  0.00  0.00    -0.012 A 
ATOM      8  C   LIG    1        0.839  -2.912  -0.369  0.00  0.00    +0.007 A 
ATOM      9  C   LIG    1        1.257  -4.240  -0.375  0.00  0.00    +0.004 A 
ATOM     10  C   LIG    1        0.951  -5.065  -1.453  0.00  0.00    +0.045 A 
ATOM     11  C   LIG    1        0.228  -4.574  -2.538  0.00  0.00    +0.120 A 
ATOM     12  C   LIG    1       -0.187  -3.232  -2.519  0.00  0.00    +0.052 A 
BRANCH  11  13
ATOM     13  O   LIG    1       -0.030  -5.461  -3.565  0.00  0.00    -0.495 OA
ATOM     14  C   LIG    1       -0.766  -5.014  -4.699  0.00  0.00    +0.277 C 
ENDBRANCH  11  13
ENDBRANCH   1   7
BRANCH   1  15
ATOM     15  O   LIG    1       -0.021  -0.374  -2.749  0.00  0.00    -0.384 OA
ATOM     16  H   LIG    1        0.933  -0.268  -2.760  0.00  0.00    +0.211 HD
ENDBRANCH   1  15
BRANCH   6  17
ATOM     17  C   LIG    1        1.664   0.291  -0.359  0.00  0.00    +0.090 C 
BRANCH  17  18
ATOM     18  N   LIG    1        2.168   1.167   0.706  0.00  0.00    -0.308 NA
ATOM     19  C   LIG    1        3.627   1.127   0.733  0.00  0.00    +0.104 C 
ATOM     20  C   LIG    1        1.730   2.552   0.539  0.00  0.00    +0.104 C 
ENDBRANCH  17  18
ENDBRANCH   6  17
TORSDOF 5
