REMARK  Name = DB00139
REMARK                            x       y       z     vdW  Elec       q    Type
REMARK                         _______ _______ _______ _____ _____    ______ ____
ROOT
ATOM      1  C   LIG    1       -0.052   0.004   0.135  0.00  0.00    +0.131 C 
ENDROOT
BRANCH   1   2
ATOM      2  C   LIG    1       -0.496   1.450   0.096  0.00  0.00    +0.305 C 
ATOM      3  O   LIG    1       -0.758   2.119   1.093  0.00  0.00    -0.251 OA
BRANCH   2   4
ATOM      4  O   LIG    1       -0.601   1.908  -1.186  0.00  0.00    -0.481 OA
ATOM      5  H   LIG    1       -0.895   2.821  -1.224  0.00  0.00    +0.295 HD
ENDBRANCH   2   4
ENDBRANCH   1   2
BRANCH   1   6
ATOM      6  C   LIG    1        1.417  -0.045  -0.279  0.00  0.00    +0.131 C 
BRANCH   6   7
ATOM      7  C   LIG    1        1.904  -1.482  -0.236  0.00  0.00    +0.305 C 
ATOM      8  O   LIG    1        1.229  -2.473   0.046  0.00  0.00    -0.251 OA
BRANCH   7   9
ATOM      9  O   LIG    1        3.226  -1.532  -0.566  0.00  0.00    -0.481 OA
ATOM     10  H   LIG    1        3.571  -2.427  -0.552  0.00  0.00    +0.295 HD
ENDBRANCH   7   9
ENDBRANCH   6   7
ENDBRANCH   1   6
TORSDOF 5
