REMARK  Name = DB00369
REMARK                            x       y       z     vdW  Elec       q    Type
REMARK                         _______ _______ _______ _____ _____    ______ ____
ROOT
ATOM      1  C   LIG    1        1.325   0.117  -0.170  0.00  0.00    +0.164 C 
ENDROOT
BRANCH   1   2
ATOM      2  O   LIG    1       -0.076  -0.137  -0.269  0.00  0.00    -0.360 OA
BRANCH   2   3
ATOM      3  C   LIG    1       -0.948   0.977  -0.098  0.00  0.00    +0.286 C 
BRANCH   3   4
ATOM      4  P   LIG    1       -1.378   1.091   1.694  0.00  0.00    +0.353 P 
ATOM      5  O   LIG    1       -1.963  -0.103   2.362  0.00  0.00    -0.256 OA
BRANCH   4   6
ATOM      6  O   LIG    1       -0.001   1.630   2.365  0.00  0.00    -0.323 OA
ATOM      7  H   LIG    1        0.437   1.022   2.991  0.00  0.00    +0.220 HD
ENDBRANCH   4   6
BRANCH   4   8
ATOM      8  O   LIG    1       -2.328   2.408   1.724  0.00  0.00    -0.323 OA
ATOM      9  H   LIG    1       -3.219   2.280   2.101  0.00  0.00    +0.220 HD
ENDBRANCH   4   8
ENDBRANCH   3   4
ENDBRANCH   2   3
ENDBRANCH   1   2
BRANCH   1  10
ATOM     10  C   LIG    1        1.865   0.538  -1.553  0.00  0.00    +0.189 C 
BRANCH  10  11
ATOM     11  O   LIG    1        3.232   0.889  -1.484  0.00  0.00    -0.392 OA
ATOM     12  H   LIG    1        3.525   1.156  -2.358  0.00  0.00    +0.210 HD
ENDBRANCH  10  11
ENDBRANCH   1  10
BRANCH   1  13
ATOM     13  C   LIG    1        1.983  -1.175   0.367  0.00  0.00    +0.160 C 
BRANCH  13  14
ATOM     14  N   LIG    1        1.414  -1.641   1.647  0.00  0.00    -0.296 N 
ATOM     15  C   LIG    1        1.813  -1.036   2.832  0.00  0.00    +0.350 A 
ATOM     16  N   LIG    1        1.194  -1.487   4.020  0.00  0.00    -0.178 NA
ATOM     17  C   LIG    1        0.337  -2.449   4.035  0.00  0.00    +0.123 A 
ATOM     18  C   LIG    1       -0.045  -3.118   2.828  0.00  0.00    +0.061 A 
ATOM     19  O   LIG    1        2.661  -0.143   2.783  0.00  0.00    -0.244 OA
ATOM     20  C   LIG    1        0.515  -2.676   1.693  0.00  0.00    +0.094 A 
BRANCH  17  21
ATOM     21  N   LIG    1       -0.230  -2.855   5.180  0.00  0.00    -0.343 N 
ATOM     22  H   LIG    1        0.011  -2.408   6.053  0.00  0.00    +0.144 HD
ATOM     23  H   LIG    1       -0.907  -3.604   5.181  0.00  0.00    +0.144 HD
ENDBRANCH  17  21
ENDBRANCH  13  14
ENDBRANCH   1  13
TORSDOF 10
