REMARK  Name = DB00461
REMARK                            x       y       z     vdW  Elec       q    Type
REMARK                         _______ _______ _______ _____ _____    ______ ____
ROOT
ATOM      1  C   LIG    1       -4.954  -1.198   0.011  0.00  0.00    +0.121 A 
ATOM      2  C   LIG    1       -4.247  -2.398   0.026  0.00  0.00    +0.046 A 
ATOM      3  C   LIG    1       -2.855  -2.421   0.014  0.00  0.00    +0.012 A 
ATOM      4  C   LIG    1       -2.121  -1.212  -0.013  0.00  0.00    -0.017 A 
ATOM      5  C   LIG    1       -0.704  -1.198  -0.025  0.00  0.00    +0.012 A 
ATOM      6  C   LIG    1       -0.005   0.010  -0.050  0.00  0.00    -0.046 A 
ATOM      7  C   LIG    1       -0.703   1.218  -0.062  0.00  0.00    +0.004 A 
ATOM      8  C   LIG    1       -2.095   1.238  -0.052  0.00  0.00    +0.009 A 
ATOM      9  C   LIG    1       -2.829   0.027  -0.027  0.00  0.00    -0.014 A 
ATOM     10  C   LIG    1       -4.246   0.013  -0.015  0.00  0.00    +0.054 A 
ENDROOT
BRANCH   1  11
ATOM     11  O   LIG    1       -6.333  -1.295   0.024  0.00  0.00    -0.495 OA
ATOM     12  C   LIG    1       -7.113  -0.104   0.010  0.00  0.00    +0.277 C 
ENDBRANCH   1  11
BRANCH   6  13
ATOM     13  C   LIG    1        1.516   0.012  -0.062  0.00  0.00    +0.042 C 
BRANCH  13  14
ATOM     14  C   LIG    1        2.111   0.239   1.344  0.00  0.00    +0.078 C 
BRANCH  14  15
ATOM     15  C   LIG    1        3.645   0.246   1.389  0.00  0.00    +0.131 C 
ATOM     16  C   LIG    1        4.286   0.443   2.757  0.00  0.00    +0.086 C 
ATOM     17  O   LIG    1        4.339   0.100   0.383  0.00  0.00    -0.298 OA
ENDBRANCH  14  15
ENDBRANCH  13  14
ENDBRANCH   6  13
TORSDOF 4
