REMARK  Name = DB00220
REMARK                            x       y       z     vdW  Elec       q    Type
REMARK                         _______ _______ _______ _____ _____    ______ ____
ROOT
ATOM      1  C   LIG    1        1.274   0.633   0.099  0.00  0.00    +0.113 C 
ENDROOT
BRANCH   1   2
ATOM      2  N   LIG    1        2.050  -0.587   0.366  0.00  0.00    -0.305 N 
ATOM      3  H   LIG    1        2.234  -1.172  -0.436  0.00  0.00    +0.149 HD
ATOM      4  C   LIG    1        2.594  -0.953   1.543  0.00  0.00    +0.245 C 
ATOM      5  O   LIG    1        2.469  -0.303   2.583  0.00  0.00    -0.270 OA
BRANCH   4   6
ATOM      6  C   LIG    1        3.379  -2.245   1.515  0.00  0.00    +0.043 A 
ATOM      7  C   LIG    1        4.293  -2.454   0.470  0.00  0.00    +0.013 A 
ATOM      8  C   LIG    1        5.060  -3.613   0.410  0.00  0.00    +0.004 A 
ATOM      9  C   LIG    1        4.927  -4.584   1.395  0.00  0.00    +0.046 A 
ATOM     10  C   LIG    1        4.023  -4.405   2.441  0.00  0.00    +0.120 A 
ATOM     11  C   LIG    1        3.236  -3.239   2.514  0.00  0.00    +0.003 A 
ATOM     12  C   LIG    1        2.219  -3.091   3.650  0.00  0.00    +0.048 C 
BRANCH  10  13
ATOM     13  O   LIG    1        3.932  -5.396   3.386  0.00  0.00    -0.506 OA
ATOM     14  H   LIG    1        4.526  -6.130   3.216  0.00  0.00    +0.292 HD
ENDBRANCH  10  13
ENDBRANCH   4   6
ENDBRANCH   1   2
BRANCH   1  15
ATOM     15  C   LIG    1        1.652   1.191  -1.296  0.00  0.00    +0.099 C 
BRANCH  15  16
ATOM     16  S   LIG    1        3.419   1.555  -1.551  0.00  0.00    -0.123 S 
BRANCH  16  17
ATOM     17  C   LIG    1        3.662   2.133  -3.209  0.00  0.00    +0.008 A 
ATOM     18  C   LIG    1        2.590   2.278  -4.097  0.00  0.00    +0.015 A 
ATOM     19  C   LIG    1        2.823   2.733  -5.392  0.00  0.00    +0.001 A 
ATOM     20  C   LIG    1        4.121   3.042  -5.794  0.00  0.00    +0.000 A 
ATOM     21  C   LIG    1        5.190   2.901  -4.913  0.00  0.00    +0.001 A 
ATOM     22  C   LIG    1        4.959   2.445  -3.618  0.00  0.00    +0.015 A 
ENDBRANCH  16  17
ENDBRANCH  15  16
ENDBRANCH   1  15
BRANCH   1  23
ATOM     23  C   LIG    1       -0.262   0.410   0.260  0.00  0.00    +0.149 C 
BRANCH  23  24
ATOM     24  O   LIG    1       -0.938   1.640   0.046  0.00  0.00    -0.389 OA
ATOM     25  H   LIG    1       -0.725   2.236   0.768  0.00  0.00    +0.210 HD
ENDBRANCH  23  24
BRANCH  23  26
ATOM     26  C   LIG    1       -0.676  -0.141   1.653  0.00  0.00    +0.118 C 
BRANCH  26  27
ATOM     27  N   LIG    1       -2.127  -0.330   1.824  0.00  0.00    -0.289 NA
ATOM     28  C   LIG    1       -2.635  -0.198   3.215  0.00  0.00    +0.143 C 
ATOM     29  C   LIG    1       -4.184  -0.387   3.346  0.00  0.00    +0.032 C 
ATOM     30  C   LIG    1       -4.868  -1.392   2.382  0.00  0.00    -0.005 C 
ATOM     31  C   LIG    1       -4.875  -2.848   2.916  0.00  0.00    +0.004 C 
ATOM     32  C   LIG    1       -5.551  -3.831   1.939  0.00  0.00    +0.000 C 
ATOM     33  C   LIG    1       -4.912  -3.771   0.535  0.00  0.00    +0.000 C 
ATOM     34  C   LIG    1       -4.879  -2.328  -0.009  0.00  0.00    +0.005 C 
ATOM     35  C   LIG    1       -4.204  -1.356   0.984  0.00  0.00    +0.006 C 
ATOM     36  C   LIG    1       -2.671  -1.476   1.086  0.00  0.00    +0.089 C 
BRANCH  28  37
ATOM     37  C   LIG    1       -1.922  -1.156   4.219  0.00  0.00    +0.231 C 
ATOM     38  N   LIG    1       -1.856  -0.717   5.494  0.00  0.00    -0.309 N 
ATOM     39  H   LIG    1       -2.257   0.190   5.684  0.00  0.00    +0.149 HD
ATOM     40  O   LIG    1       -1.472  -2.247   3.863  0.00  0.00    -0.274 OA
BRANCH  38  41
ATOM     41  C   LIG    1       -1.280  -1.389   6.670  0.00  0.00    +0.026 C 
ATOM     42  C   LIG    1       -2.014  -2.718   6.973  0.00  0.00    +0.031 C 
ATOM     43  C   LIG    1        0.234  -1.654   6.482  0.00  0.00    +0.031 C 
ATOM     44  C   LIG    1       -1.462  -0.445   7.878  0.00  0.00    +0.031 C 
ENDBRANCH  38  41
ENDBRANCH  28  37
ENDBRANCH  26  27
ENDBRANCH  23  26
ENDBRANCH   1  23
TORSDOF 12
