REMARK  Name = DB00802
REMARK                            x       y       z     vdW  Elec       q    Type
REMARK                         _______ _______ _______ _____ _____    ______ ____
ROOT
ATOM      1  C   LIG    1       -2.677   0.414   0.988  0.00  0.00    +0.068 C 
ATOM      2  C   LIG    1       -2.018  -1.004   0.931  0.00  0.00    +0.044 C 
ATOM      3  C   LIG    1       -0.476  -1.018   0.877  0.00  0.00    +0.086 C 
ATOM      4  N   LIG    1        0.026  -0.279  -0.287  0.00  0.00    -0.300 NA
ATOM      5  C   LIG    1       -0.516   1.084  -0.374  0.00  0.00    +0.086 C 
ATOM      6  C   LIG    1       -2.059   1.115  -0.273  0.00  0.00    +0.044 C 
ENDROOT
BRANCH   1   7
ATOM      7  N   LIG    1       -4.189   0.322   1.030  0.00  0.00    -0.263 N 
ATOM      8  C   LIG    1       -5.044   1.242   0.470  0.00  0.00    +0.220 C 
ATOM      9  O   LIG    1       -4.666   2.312  -0.006  0.00  0.00    -0.275 OA
BRANCH   7  10
ATOM     10  C   LIG    1       -4.758  -0.624   1.919  0.00  0.00    +0.037 A 
ATOM     11  C   LIG    1       -5.021  -1.923   1.468  0.00  0.00    +0.023 A 
ATOM     12  C   LIG    1       -5.576  -2.858   2.337  0.00  0.00    +0.002 A 
ATOM     13  C   LIG    1       -5.866  -2.494   3.651  0.00  0.00    +0.000 A 
ATOM     14  C   LIG    1       -5.609  -1.202   4.105  0.00  0.00    +0.002 A 
ATOM     15  C   LIG    1       -5.055  -0.263   3.240  0.00  0.00    +0.023 A 
ENDBRANCH   7  10
BRANCH   8  16
ATOM     16  C   LIG    1       -6.560   0.921   0.391  0.00  0.00    +0.093 C 
ATOM     17  C   LIG    1       -7.378   1.865  -0.512  0.00  0.00    +0.013 C 
ENDBRANCH   8  16
ENDBRANCH   1   7
BRANCH   1  18
ATOM     18  C   LIG    1       -2.203   1.149   2.286  0.00  0.00    +0.185 C 
BRANCH  18  19
ATOM     19  O   LIG    1       -2.832   2.418   2.424  0.00  0.00    -0.381 OA
ATOM     20  C   LIG    1       -2.470   3.111   3.608  0.00  0.00    +0.194 C 
ENDBRANCH  18  19
ENDBRANCH   1  18
BRANCH   4  21
ATOM     21  C   LIG    1        1.492  -0.322  -0.320  0.00  0.00    +0.108 C 
BRANCH  21  22
ATOM     22  C   LIG    1        2.087   0.177  -1.656  0.00  0.00    +0.166 C 
BRANCH  22  23
ATOM     23  N   LIG    1        3.520  -0.101  -1.766  0.00  0.00    -0.192 N 
ATOM     24  N   LIG    1        4.026  -0.888  -2.716  0.00  0.00    -0.043 NA
ATOM     25  N   LIG    1        5.256  -0.928  -2.548  0.00  0.00    -0.043 NA
ATOM     26  N   LIG    1        5.539  -0.164  -1.492  0.00  0.00    -0.194 N 
ATOM     27  C   LIG    1        4.490   0.611  -1.166  0.00  0.00    +0.364 A 
ATOM     28  O   LIG    1        4.423   1.607  -0.444  0.00  0.00    -0.243 OA
BRANCH  26  29
ATOM     29  C   LIG    1        6.906   0.014  -0.997  0.00  0.00    +0.147 C 
ATOM     30  C   LIG    1        7.793   0.833  -1.948  0.00  0.00    +0.029 C 
ENDBRANCH  26  29
ENDBRANCH  22  23
ENDBRANCH  21  22
ENDBRANCH   4  21
TORSDOF 9
