REMARK  Name = DB00553
REMARK                            x       y       z     vdW  Elec       q    Type
REMARK                         _______ _______ _______ _____ _____    ______ ____
ROOT
ATOM      1  C   LIG    1        1.970  -1.247   0.007  0.00  0.00    +0.206 A 
ATOM      2  C   LIG    1        2.275  -1.904  -1.193  0.00  0.00    +0.180 A 
ATOM      3  O   LIG    1        2.057  -1.425  -2.454  0.00  0.00    -0.459 OA
ATOM      4  C   LIG    1        2.505  -2.391  -3.304  0.00  0.00    +0.196 A 
ATOM      5  C   LIG    1        3.007  -3.490  -2.623  0.00  0.00    +0.050 A 
ATOM      6  C   LIG    1        2.867  -3.190  -1.232  0.00  0.00    +0.025 A 
ATOM      7  C   LIG    1        3.165  -3.840  -0.022  0.00  0.00    +0.023 A 
ATOM      8  C   LIG    1        2.867  -3.187   1.179  0.00  0.00    +0.022 A 
ATOM      9  C   LIG    1        3.149  -3.798   2.479  0.00  0.00    +0.019 A 
ATOM     10  C   LIG    1        2.862  -3.169   3.634  0.00  0.00    +0.092 A 
ATOM     11  C   LIG    1        2.250  -1.831   3.636  0.00  0.00    +0.337 A 
ATOM     12  O   LIG    1        1.944  -1.160   4.619  0.00  0.00    -0.245 OA
ATOM     13  O   LIG    1        1.989  -1.260   2.393  0.00  0.00    -0.418 OA
ATOM     14  C   LIG    1        2.281  -1.911   1.198  0.00  0.00    +0.184 A 
ENDROOT
BRANCH   1  16
ATOM     15  C   LIG    1       -0.014  -0.004  -0.030  0.00  0.00    +0.277 C 
ATOM     16  O   LIG    1        1.406   0.003  -0.044  0.00  0.00    -0.488 OA
ENDBRANCH   1  16
TORSDOF 1
