REMARK  Name = DB00945
REMARK                            x       y       z     vdW  Elec       q    Type
REMARK                         _______ _______ _______ _____ _____    ______ ____
ROOT
ATOM      1  C   LIG    1        1.424   0.062  -0.059  0.00  0.00    +0.146 A 
ATOM      2  C   LIG    1        2.106  -0.003   1.162  0.00  0.00    +0.047 A 
ATOM      3  C   LIG    1        3.494  -0.105   1.198  0.00  0.00    +0.004 A 
ATOM      4  C   LIG    1        4.215  -0.153   0.010  0.00  0.00    +0.001 A 
ATOM      5  C   LIG    1        3.549  -0.104  -1.213  0.00  0.00    +0.018 A 
ATOM      6  C   LIG    1        2.148   0.002  -1.274  0.00  0.00    +0.101 A 
ENDROOT
BRANCH   6   7
ATOM      7  C   LIG    1        1.459   0.016  -2.624  0.00  0.00    +0.340 C 
ATOM      8  O   LIG    1        0.274  -0.282  -2.772  0.00  0.00    -0.245 OA
BRANCH   7   9
ATOM      9  O   LIG    1        2.253   0.398  -3.668  0.00  0.00    -0.477 OA
ATOM     10  H   LIG    1        1.778   0.403  -4.501  0.00  0.00    +0.295 HD
ENDBRANCH   7   9
ENDBRANCH   6   7
BRANCH   1  11
ATOM     11  O   LIG    1        0.047   0.155  -0.024  0.00  0.00    -0.425 OA
BRANCH  11  12
ATOM     12  C   LIG    1       -0.539   1.377   0.106  0.00  0.00    +0.309 C 
ATOM     13  C   LIG    1       -2.059   1.285   0.099  0.00  0.00    +0.136 C 
ATOM     14  O   LIG    1        0.033   2.464   0.214  0.00  0.00    -0.251 OA
ENDBRANCH  11  12
ENDBRANCH   1  11
TORSDOF 4
