REMARK  Name = DB00923
REMARK                            x       y       z     vdW  Elec       q    Type
REMARK                         _______ _______ _______ _____ _____    ______ ____
ROOT
ATOM      1  S   LIG    1        0.202  -2.173   1.939  0.00  0.00    -0.131 S 
ATOM      2  C   LIG    1        1.465  -3.145   2.833  0.00  0.00    +0.104 C 
ATOM      3  C   LIG    1        2.687  -3.511   1.969  0.00  0.00    -0.021 C 
ATOM      4  CA  LIG    1        3.068  -2.739   0.904  0.00  0.00    +0.123 C 
ATOM      5  N   LIG    1        2.428  -1.575   0.557  0.00  0.00    -0.249 N 
ATOM      6  C   LIG    1        2.070  -0.947  -0.644  0.00  0.00    +0.244 C 
ATOM      7  CA  LIG    1        1.076  -0.019   0.107  0.00  0.00    +0.191 C 
ATOM      8  O   LIG    1        2.373  -1.131  -1.822  0.00  0.00    -0.273 OA
ATOM      9  C   LIG    1        1.371  -0.906   1.350  0.00  0.00    +0.169 C 
ENDROOT
BRANCH   7  10
ATOM     10  N   LIG    1       -0.275  -0.063  -0.454  0.00  0.00    -0.301 N 
ATOM     11  H   LIG    1       -0.388  -0.569  -1.321  0.00  0.00    +0.150 HD
ATOM     12  C   LIG    1       -1.334   0.592   0.056  0.00  0.00    +0.218 C 
ATOM     13  O   LIG    1       -1.270   1.291   1.068  0.00  0.00    -0.275 OA
BRANCH  12  14
ATOM     14  C   LIG    1       -2.666   0.429  -0.693  0.00  0.00    +0.131 C 
BRANCH  14  15
ATOM     15  C   LIG    1       -3.256   1.774  -1.131  0.00  0.00    -0.034 A 
ATOM     16  C   LIG    1       -2.662   2.430  -2.218  0.00  0.00    +0.004 A 
ATOM     17  C   LIG    1       -3.140   3.662  -2.658  0.00  0.00    +0.000 A 
ATOM     18  C   LIG    1       -4.222   4.256  -2.015  0.00  0.00    +0.000 A 
ATOM     19  C   LIG    1       -4.826   3.616  -0.935  0.00  0.00    +0.005 A 
ATOM     20  C   LIG    1       -4.356   2.377  -0.481  0.00  0.00    -0.030 A 
BRANCH  20  21
ATOM     21  C   LIG    1       -5.080   1.729   0.696  0.00  0.00    +0.113 C 
BRANCH  21  22
ATOM     22  N   LIG    1       -4.327   1.872   1.927  0.00  0.00    -0.326 NA
ATOM     23  H   LIG    1       -4.779   1.347   2.661  0.00  0.00    +0.119 HD
ATOM     24  H   LIG    1       -4.351   2.837   2.223  0.00  0.00    +0.119 HD
ENDBRANCH  21  22
ENDBRANCH  20  21
ENDBRANCH  14  15
ENDBRANCH  12  14
ENDBRANCH   7  10
BRANCH   4  25
ATOM     25  C   LIG    1        4.204  -3.106   0.074  0.00  0.00    +0.351 C 
ATOM     26  OXT LIG    1        4.281  -4.150  -0.572  0.00  0.00    -0.244 OA
BRANCH  25  27
ATOM     27  O   LIG    1        5.183  -2.154   0.087  0.00  0.00    -0.476 OA
ATOM     28  H   LIG    1        5.931  -2.393  -0.465  0.00  0.00    +0.295 HD
ENDBRANCH  25  27
ENDBRANCH   4  25
BRANCH   3  29
ATOM     29  C   LIG    1        3.384  -4.800   2.427  0.00  0.00    +0.111 C 
BRANCH  29  30
ATOM     30  S   LIG    1        4.142  -4.672   4.079  0.00  0.00    -0.080 S 
BRANCH  30  31
ATOM     31  C   LIG    1        4.139  -6.368   4.582  0.00  0.00    +0.210 A 
ATOM     32  N   LIG    1        3.965  -7.405   3.795  0.00  0.00    -0.101 NA
ATOM     33  N   LIG    1        4.057  -8.530   4.606  0.00  0.00    -0.022 NA
ATOM     34  N   LIG    1        4.296  -8.152   5.911  0.00  0.00    -0.043 NA
ATOM     35  N   LIG    1        4.340  -6.813   5.872  0.00  0.00    -0.209 N 
BRANCH  35  36
ATOM     36  C   LIG    1        4.588  -6.049   7.098  0.00  0.00    +0.268 C 
BRANCH  36  37
ATOM     37  C   LIG    1        6.028  -6.081   7.641  0.00  0.00    +0.327 C 
ATOM     38  O   LIG    1        6.307  -5.679   8.768  0.00  0.00    -0.249 OA
BRANCH  37  39
ATOM     39  O   LIG    1        6.948  -6.541   6.741  0.00  0.00    -0.479 OA
ATOM     40  H   LIG    1        7.840  -6.534   7.095  0.00  0.00    +0.295 HD
ENDBRANCH  37  39
ENDBRANCH  36  37
ENDBRANCH  35  36
ENDBRANCH  30  31
ENDBRANCH  29  30
ENDBRANCH   3  29
TORSDOF 13
