REMARK  Name = DB00755
REMARK                            x       y       z     vdW  Elec       q    Type
REMARK                         _______ _______ _______ _____ _____    ______ ____
ROOT
ATOM      1  C   LIG    1       -0.041  -0.065  -0.332  0.00  0.00    -0.050 C 
ATOM      2  C   LIG    1       -0.622  -1.474  -0.344  0.00  0.00    +0.044 C 
ATOM      3  C   LIG    1       -0.797   1.050  -0.181  0.00  0.00    +0.003 C 
ENDROOT
BRANCH   1   5
ATOM      4  C   LIG    1        2.176   0.890   0.288  0.00  0.00    +0.004 C 
ATOM      5  C   LIG    1        1.408   0.053  -0.440  0.00  0.00    +0.003 C 
BRANCH   4   7
ATOM      6  C   LIG    1        4.190   2.389  -0.261  0.00  0.00    -0.010 C 
ATOM      7  C   LIG    1        3.630   0.999   0.160  0.00  0.00    -0.043 C 
ATOM      8  C   LIG    1        4.446  -0.066   0.435  0.00  0.00    -0.069 C 
ATOM      9  C   LIG    1        5.968  -0.013   0.287  0.00  0.00    +0.031 C 
ATOM     10  C   LIG    1        6.511   1.419   0.307  0.00  0.00    +0.005 C 
ATOM     11  C   LIG    1        3.944  -1.443   0.869  0.00  0.00    +0.039 C 
ATOM     12  C   LIG    1        5.698   2.301  -0.640  0.00  0.00    +0.011 C 
ATOM     13  C   LIG    1        3.436   2.887  -1.521  0.00  0.00    +0.016 C 
ATOM     14  C   LIG    1        4.026   3.351   0.943  0.00  0.00    +0.016 C 
ENDBRANCH   4   7
ENDBRANCH   1   5
BRANCH   3  15
ATOM     15  C   LIG    1       -2.244   1.110  -0.040  0.00  0.00    +0.001 C 
ATOM     16  C   LIG    1       -2.909   2.270   0.133  0.00  0.00    +0.003 C 
BRANCH  16  17
ATOM     17  C   LIG    1       -4.354   2.404   0.286  0.00  0.00    -0.044 C 
ATOM     18  C   LIG    1       -4.836   3.380   1.357  0.00  0.00    +0.044 C 
ATOM     19  C   LIG    1       -5.177   1.624  -0.467  0.00  0.00    +0.094 C 
BRANCH  19  20
ATOM     20  C   LIG    1       -6.624   1.628  -0.460  0.00  0.00    +0.330 C 
ATOM     21  O   LIG    1       -7.340   2.545  -0.061  0.00  0.00    -0.246 OA
BRANCH  20  22
ATOM     22  O   LIG    1       -7.121   0.485  -1.016  0.00  0.00    -0.478 OA
ATOM     23  H   LIG    1       -8.080   0.480  -1.037  0.00  0.00    +0.295 HD
ENDBRANCH  20  22
ENDBRANCH  19  20
ENDBRANCH  16  17
ENDBRANCH   3  15
TORSDOF 6
