REMARK  Name = DB00362
REMARK                            x       y       z     vdW  Elec       q    Type
REMARK                         _______ _______ _______ _____ _____    ______ ____
ROOT
ATOM      1  C   LIG    1        3.053   4.976   3.038  0.00  0.00    +0.114 C 
ATOM      2  N   LIG    1        1.803   4.203   3.120  0.00  0.00    -0.285 N 
ATOM      3  C   LIG    1        0.573   4.770   3.275  0.00  0.00    +0.239 C 
ATOM      4  O   LIG    1       -0.472   4.114   3.300  0.00  0.00    -0.273 OA
ATOM      5  C   LIG    1        0.457   6.308   3.461  0.00  0.00    +0.187 C 
ATOM      6  N   LIG    1       -0.858   6.800   3.041  0.00  0.00    -0.300 N 
ATOM      7  H   LIG    1       -1.496   7.021   3.791  0.00  0.00    +0.150 HD
ATOM      8  C   LIG    1       -1.285   6.898   1.769  0.00  0.00    +0.237 C 
ATOM      9  O   LIG    1       -0.572   6.648   0.795  0.00  0.00    -0.274 OA
ATOM     10  C   LIG    1       -2.739   7.379   1.522  0.00  0.00    +0.190 C 
ATOM     11  N   LIG    1       -3.385   6.523   0.513  0.00  0.00    -0.300 N 
ATOM     12  H   LIG    1       -3.638   7.000  -0.340  0.00  0.00    +0.150 HD
ATOM     13  C   LIG    1       -3.744   5.231   0.644  0.00  0.00    +0.234 C 
ATOM     14  O   LIG    1       -3.458   4.544   1.626  0.00  0.00    -0.274 OA
ATOM     15  C   LIG    1       -4.571   4.660  -0.531  0.00  0.00    +0.164 C 
ATOM     16  C   LIG    1       -5.914   5.412  -0.730  0.00  0.00    +0.065 C 
ATOM     17  C   LIG    1       -6.970   4.326  -0.917  0.00  0.00    +0.134 C 
ATOM     18  C   LIG    1       -6.398   3.192  -0.058  0.00  0.00    +0.140 C 
ATOM     19  N   LIG    1       -4.964   3.242  -0.367  0.00  0.00    -0.286 N 
ATOM     20  C   LIG    1       -4.317   2.155  -0.870  0.00  0.00    +0.239 C 
ATOM     21  O   LIG    1       -4.812   1.023  -0.844  0.00  0.00    -0.273 OA
ATOM     22  C   LIG    1       -2.913   2.319  -1.522  0.00  0.00    +0.187 C 
ATOM     23  N   LIG    1       -2.076   1.160  -1.200  0.00  0.00    -0.300 N 
ATOM     24  H   LIG    1       -2.535   0.264  -1.286  0.00  0.00    +0.150 HD
ATOM     25  C   LIG    1       -0.782   1.197  -0.845  0.00  0.00    +0.234 C 
ATOM     26  O   LIG    1       -0.145   2.242  -0.695  0.00  0.00    -0.274 OA
ATOM     27  C   LIG    1       -0.113  -0.190  -0.631  0.00  0.00    +0.162 C 
ATOM     28  C   LIG    1       -0.753  -1.007   0.543  0.00  0.00    +0.067 C 
ATOM     29  C   LIG    1       -0.226  -0.792   1.995  0.00  0.00    +0.163 C 
ATOM     30  C   LIG    1       -0.179   0.687   2.464  0.00  0.00    +0.231 C 
ATOM     31  N   LIG    1        0.507   0.881   3.747  0.00  0.00    -0.287 N 
ATOM     32  H   LIG    1        0.138   0.325   4.505  0.00  0.00    +0.151 HD
ATOM     33  C   LIG    1        1.365   1.861   4.098  0.00  0.00    +0.238 C 
ATOM     34  O   LIG    1        1.635   2.039   5.285  0.00  0.00    -0.274 OA
ATOM     35  C   LIG    1        2.055   2.744   3.011  0.00  0.00    +0.191 C 
ATOM     36  C   LIG    1        3.589   2.648   3.150  0.00  0.00    +0.148 C 
ATOM     37  C   LIG    1        4.101   3.964   2.566  0.00  0.00    +0.034 C 
ATOM     38  C   LIG    1        4.288   3.957   1.032  0.00  0.00    +0.012 C 
ENDROOT
BRANCH  27  39
ATOM     39  N   LIG    1        1.352  -0.127  -0.520  0.00  0.00    -0.300 N 
ATOM     40  H   LIG    1        1.719  -0.376   0.387  0.00  0.00    +0.150 HD
ATOM     41  C   LIG    1        2.223   0.249  -1.477  0.00  0.00    +0.245 C 
ATOM     42  O   LIG    1        1.876   0.590  -2.610  0.00  0.00    -0.270 OA
BRANCH  41  43
ATOM     43  C   LIG    1        3.680   0.261  -1.075  0.00  0.00    +0.037 A 
ATOM     44  C   LIG    1        4.164  -0.579  -0.063  0.00  0.00    +0.013 A 
ATOM     45  C   LIG    1        5.511  -0.555   0.289  0.00  0.00    +0.009 A 
ATOM     46  C   LIG    1        6.409   0.303  -0.356  0.00  0.00    -0.018 A 
ATOM     47  C   LIG    1        5.920   1.137  -1.370  0.00  0.00    +0.009 A 
ATOM     48  C   LIG    1        4.575   1.115  -1.728  0.00  0.00    +0.013 A 
BRANCH  46  49
ATOM     49  C   LIG    1        7.856   0.325   0.024  0.00  0.00    -0.018 A 
ATOM     50  C   LIG    1        8.506  -0.841   0.446  0.00  0.00    +0.009 A 
ATOM     51  C   LIG    1        9.855  -0.823   0.791  0.00  0.00    +0.009 A 
ATOM     52  C   LIG    1       10.599   0.361   0.726  0.00  0.00    -0.018 A 
ATOM     53  C   LIG    1        9.947   1.529   0.309  0.00  0.00    +0.009 A 
ATOM     54  C   LIG    1        8.598   1.511  -0.035  0.00  0.00    +0.009 A 
BRANCH  52  55
ATOM     55  C   LIG    1       12.051   0.378   1.087  0.00  0.00    -0.018 A 
ATOM     56  C   LIG    1       12.943   1.238   0.433  0.00  0.00    +0.012 A 
ATOM     57  C   LIG    1       14.296   1.250   0.760  0.00  0.00    +0.046 A 
ATOM     58  C   LIG    1       14.790   0.398   1.758  0.00  0.00    +0.121 A 
ATOM     59  C   LIG    1       13.906  -0.457   2.414  0.00  0.00    +0.046 A 
ATOM     60  C   LIG    1       12.554  -0.469   2.083  0.00  0.00    +0.012 A 
BRANCH  58  61
ATOM     61  O   LIG    1       16.114   0.336   2.149  0.00  0.00    -0.492 OA
BRANCH  61  62
ATOM     62  C   LIG    1       17.074   1.166   1.500  0.00  0.00    +0.229 C 
BRANCH  62  63
ATOM     63  C   LIG    1       18.460   0.866   2.090  0.00  0.00    +0.041 C 
BRANCH  63  64
ATOM     64  C   LIG    1       19.580   1.708   1.448  0.00  0.00    +0.003 C 
BRANCH  64  65
ATOM     65  C   LIG    1       20.977   1.471   2.054  0.00  0.00    -0.003 C 
ATOM     66  C   LIG    1       21.542   0.063   1.809  0.00  0.00    +0.004 C 
ENDBRANCH  64  65
ENDBRANCH  63  64
ENDBRANCH  62  63
ENDBRANCH  61  62
ENDBRANCH  58  61
ENDBRANCH  52  55
ENDBRANCH  46  49
ENDBRANCH  41  43
ENDBRANCH  27  39
BRANCH  17  67
ATOM     67  O   LIG    1       -7.016   3.922  -2.277  0.00  0.00    -0.390 OA
ATOM     68  H   LIG    1       -6.124   3.943  -2.632  0.00  0.00    +0.210 HD
ENDBRANCH  17  67
BRANCH  22  69
ATOM     69  C   LIG    1       -3.043   2.457  -3.079  0.00  0.00    +0.141 C 
ATOM     70  C   LIG    1       -3.645   1.249  -3.827  0.00  0.00    +0.040 C 
BRANCH  69  71
ATOM     71  O   LIG    1       -3.746   3.617  -3.483  0.00  0.00    -0.390 OA
ATOM     72  H   LIG    1       -3.228   4.386  -3.237  0.00  0.00    +0.210 HD
ENDBRANCH  69  71
ENDBRANCH  22  69
BRANCH  30  73
ATOM     73  O   LIG    1       -1.478   1.246   2.465  0.00  0.00    -0.372 OA
ATOM     74  H   LIG    1       -2.019   0.770   3.098  0.00  0.00    +0.212 HD
ENDBRANCH  30  73
BRANCH  29  75
ATOM     75  O   LIG    1        1.048  -1.404   2.120  0.00  0.00    -0.387 OA
ATOM     76  H   LIG    1        0.967  -2.329   1.877  0.00  0.00    +0.210 HD
ENDBRANCH  29  75
BRANCH   5  77
ATOM     77  C   LIG    1        0.710   6.632   4.963  0.00  0.00    +0.141 C 
ATOM     78  C   LIG    1        0.650   8.132   5.290  0.00  0.00    +0.040 C 
BRANCH  77  79
ATOM     79  O   LIG    1       -0.168   5.936   5.831  0.00  0.00    -0.390 OA
ATOM     80  H   LIG    1       -0.030   4.992   5.714  0.00  0.00    +0.210 HD
ENDBRANCH  77  79
ENDBRANCH   5  77
BRANCH  36  81
ATOM     81  O   LIG    1        4.168   1.480   2.599  0.00  0.00    -0.389 OA
ATOM     82  H   LIG    1        3.880   0.724   3.116  0.00  0.00    +0.210 HD
ENDBRANCH  36  81
BRANCH  10  83
ATOM     83  C   LIG    1       -3.604   7.598   2.818  0.00  0.00    +0.176 C 
BRANCH  83  84
ATOM     84  O   LIG    1       -4.998   7.618   2.533  0.00  0.00    -0.387 OA
ATOM     85  H   LIG    1       -5.149   8.219   1.800  0.00  0.00    +0.210 HD
ENDBRANCH  83  84
BRANCH  83  86
ATOM     86  C   LIG    1       -3.236   8.872   3.642  0.00  0.00    +0.175 C 
BRANCH  86  87
ATOM     87  C   LIG    1       -3.878   8.882   5.034  0.00  0.00    -0.016 A 
ATOM     88  C   LIG    1       -3.325   8.079   6.037  0.00  0.00    +0.010 A 
ATOM     89  C   LIG    1       -3.883   8.064   7.312  0.00  0.00    +0.046 A 
ATOM     90  C   LIG    1       -4.998   8.852   7.588  0.00  0.00    +0.117 A 
ATOM     91  C   LIG    1       -5.561   9.652   6.595  0.00  0.00    +0.046 A 
ATOM     92  C   LIG    1       -5.003   9.666   5.319  0.00  0.00    +0.010 A 
BRANCH  90  93
ATOM     93  O   LIG    1       -5.548   8.839   8.842  0.00  0.00    -0.507 OA
ATOM     94  H   LIG    1       -5.090   8.246   9.443  0.00  0.00    +0.292 HD
ENDBRANCH  90  93
ENDBRANCH  86  87
BRANCH  86  95
ATOM     95  O   LIG    1       -3.492  10.046   2.884  0.00  0.00    -0.385 OA
ATOM     96  H   LIG    1       -3.109  10.795   3.346  0.00  0.00    +0.210 HD
ENDBRANCH  86  95
ENDBRANCH  83  86
ENDBRANCH  10  83
TORSDOF 23
