REMARK  Name = DB00489
REMARK                            x       y       z     vdW  Elec       q    Type
REMARK                         _______ _______ _______ _____ _____    ______ ____
ROOT
ATOM      1  C   LIG    1       -1.335   4.165   0.107  0.00  0.00    +0.048 A 
ATOM      2  C   LIG    1       -1.274   3.574  -1.155  0.00  0.00    +0.025 A 
ATOM      3  C   LIG    1       -0.830   2.261  -1.289  0.00  0.00    +0.008 A 
ATOM      4  C   LIG    1       -0.439   1.533  -0.161  0.00  0.00    -0.018 A 
ATOM      5  C   LIG    1       -0.494   2.132   1.102  0.00  0.00    +0.008 A 
ATOM      6  C   LIG    1       -0.937   3.446   1.236  0.00  0.00    +0.025 A 
ENDROOT
BRANCH   1   7
ATOM      7  N   LIG    1       -1.764   5.492   0.213  0.00  0.00    -0.221 N 
ATOM      8  H   LIG    1       -1.796   5.921  -0.700  0.00  0.00    +0.173 HD
BRANCH   7   9
ATOM      9  S   LIG    1       -3.264   5.850   1.089  0.00  0.00    +0.040 S 
ATOM     10  C   LIG    1       -3.180   7.725   1.256  0.00  0.00    +0.218 C 
ATOM     11  O   LIG    1       -3.162   5.250   2.424  0.00  0.00    -0.155 OA
ATOM     12  O   LIG    1       -4.368   5.498   0.191  0.00  0.00    -0.155 OA
ENDBRANCH   7   9
ENDBRANCH   1   7
BRANCH   4  13
ATOM     13  C   LIG    1        0.061   0.097  -0.314  0.00  0.00    +0.158 C 
BRANCH  13  14
ATOM     14  O   LIG    1       -0.687  -0.806   0.481  0.00  0.00    -0.386 OA
ATOM     15  H   LIG    1       -0.209  -1.638   0.519  0.00  0.00    +0.210 HD
ENDBRANCH  13  14
BRANCH  13  16
ATOM     16  C   LIG    1        1.562  -0.022   0.040  0.00  0.00    +0.117 C 
BRANCH  16  17
ATOM     17  N   LIG    1        2.095  -1.328  -0.343  0.00  0.00    -0.311 NA
ATOM     18  H   LIG    1        1.878  -1.525  -1.310  0.00  0.00    +0.122 HD
BRANCH  17  19
ATOM     19  C   LIG    1        3.532  -1.469  -0.117  0.00  0.00    +0.048 C 
ATOM     20  C   LIG    1        3.880  -1.488   1.386  0.00  0.00    +0.023 C 
ATOM     21  C   LIG    1        3.986  -2.765  -0.811  0.00  0.00    +0.023 C 
ENDBRANCH  17  19
ENDBRANCH  16  17
ENDBRANCH  13  16
ENDBRANCH   4  13
TORSDOF 7
