REMARK  Name = DB00659
REMARK                            x       y       z     vdW  Elec       q    Type
REMARK                         _______ _______ _______ _____ _____    ______ ____
ROOT
ATOM      1  C   LIG    1       -0.005   0.085  -0.095  0.00  0.00    +0.044 C 
ENDROOT
BRANCH   1   2
ATOM      2  C   LIG    1        1.519  -0.091  -0.193  0.00  0.00    +0.199 C 
BRANCH   2   3
ATOM      3  S   LIG    1        1.991  -1.874   0.221  0.00  0.00    +0.080 S 
ATOM      4  O   LIG    1        1.709  -2.134   1.637  0.00  0.00    -0.147 OA
ATOM      5  O   LIG    1        1.496  -2.766  -0.833  0.00  0.00    -0.147 OA
BRANCH   3   6
ATOM      6  O   LIG    1        3.634  -1.720   0.043  0.00  0.00    -0.254 OA
ATOM      7  H   LIG    1        4.020  -1.237   0.799  0.00  0.00    +0.244 HD
ENDBRANCH   3   6
ENDBRANCH   2   3
ENDBRANCH   1   2
BRANCH   1   8
ATOM      8  C   LIG    1       -0.463   1.515  -0.440  0.00  0.00    +0.106 C 
BRANCH   8   9
ATOM      9  N   LIG    1       -1.912   1.698  -0.386  0.00  0.00    -0.315 N 
ATOM     10  H   LIG    1       -2.394   1.733  -1.273  0.00  0.00    +0.149 HD
ATOM     11  C   LIG    1       -2.631   1.821   0.743  0.00  0.00    +0.210 C 
ATOM     12  C   LIG    1       -4.137   1.996   0.576  0.00  0.00    +0.109 C 
ATOM     13  O   LIG    1       -2.142   1.800   1.873  0.00  0.00    -0.276 OA
ENDBRANCH   8   9
ENDBRANCH   1   8
TORSDOF 5
