REMARK  Name = DB00582
REMARK                            x       y       z     vdW  Elec       q    Type
REMARK                         _______ _______ _______ _____ _____    ______ ____
ROOT
ATOM      1  C   LIG    1       -0.094   0.157  -0.030  0.00  0.00    +0.121 C 
ENDROOT
BRANCH   1   9
ATOM      2  F   LIG    1       -1.892   1.322  -2.116  0.00  0.00    -0.205 F 
ATOM      3  C   LIG    1       -1.446   0.054  -2.267  0.00  0.00    +0.132 A 
ATOM      4  C   LIG    1       -1.853  -0.644  -3.404  0.00  0.00    +0.077 A 
ATOM      5  C   LIG    1       -1.421  -1.949  -3.624  0.00  0.00    +0.126 A 
ATOM      6  C   LIG    1       -0.574  -2.561  -2.706  0.00  0.00    +0.039 A 
ATOM      7  C   LIG    1       -0.163  -1.868  -1.569  0.00  0.00    +0.012 A 
ATOM      8  F   LIG    1       -1.821  -2.618  -4.729  0.00  0.00    -0.205 F 
ATOM      9  C   LIG    1       -0.592  -0.553  -1.320  0.00  0.00    +0.022 A 
ENDBRANCH   1   9
BRANCH   1  10
ATOM     10  C   LIG    1        1.462   0.398  -0.120  0.00  0.00    +0.076 C 
ATOM     11  C   LIG    1        1.894   1.242  -1.348  0.00  0.00    +0.017 C 
BRANCH  10  12
ATOM     12  C   LIG    1        2.099   0.930   1.176  0.00  0.00    +0.085 A 
ATOM     13  C   LIG    1        2.812   0.088   2.044  0.00  0.00    +0.163 A 
ATOM     14  C   LIG    1        3.350   0.664   3.197  0.00  0.00    +0.152 A 
ATOM     15  N   LIG    1        3.205   1.983   3.490  0.00  0.00    -0.241 NA
ATOM     16  C   LIG    1        2.499   2.718   2.592  0.00  0.00    +0.221 A 
ATOM     17  F   LIG    1        2.972  -1.232   1.792  0.00  0.00    -0.202 F 
ATOM     18  N   LIG    1        1.935   2.257   1.446  0.00  0.00    -0.237 NA
ENDBRANCH  10  12
ENDBRANCH   1  10
BRANCH   1  19
ATOM     19  O   LIG    1       -0.696   1.430   0.177  0.00  0.00    -0.381 OA
ATOM     20  H   LIG    1       -0.262   1.856   0.919  0.00  0.00    +0.211 HD
ENDBRANCH   1  19
BRANCH   1  21
ATOM     21  C   LIG    1       -0.476  -0.669   1.248  0.00  0.00    +0.185 C 
BRANCH  21  22
ATOM     22  N   LIG    1       -1.907  -0.966   1.357  0.00  0.00    -0.249 N 
ATOM     23  C   LIG    1       -2.896  -0.240   1.962  0.00  0.00    +0.219 A 
ATOM     24  N   LIG    1       -4.050  -0.838   1.812  0.00  0.00    -0.223 NA
ATOM     25  C   LIG    1       -3.711  -1.911   1.112  0.00  0.00    +0.244 A 
ATOM     26  N   LIG    1       -2.441  -2.056   0.798  0.00  0.00    -0.158 NA
ENDBRANCH  21  22
ENDBRANCH   1  21
TORSDOF 6
