REMARK  Name = DB00234
REMARK                            x       y       z     vdW  Elec       q    Type
REMARK                         _______ _______ _______ _____ _____    ______ ____
ROOT
ATOM      1  C   LIG    1       -0.561   1.302   0.116  0.00  0.00    +0.234 C 
ENDROOT
BRANCH   1   2
ATOM      2  C   LIG    1       -2.045   0.972  -0.168  0.00  0.00    +0.177 C 
ATOM      3  C   LIG    1       -2.240   0.292  -1.549  0.00  0.00    +0.116 C 
ATOM      4  N   LIG    1       -3.651  -0.018  -1.773  0.00  0.00    -0.311 NA
ATOM      5  H   LIG    1       -3.771  -0.502  -2.652  0.00  0.00    +0.122 HD
ATOM      6  C   LIG    1       -4.229  -0.799  -0.680  0.00  0.00    +0.109 C 
ATOM      7  C   LIG    1       -3.961  -0.139   0.689  0.00  0.00    +0.175 C 
ATOM      8  O   LIG    1       -2.569   0.115   0.846  0.00  0.00    -0.370 OA
ENDBRANCH   1   2
BRANCH   1   9
ATOM      9  C   LIG    1       -0.377   2.008   1.465  0.00  0.00    -0.005 A 
ATOM     10  C   LIG    1       -0.169   1.271   2.637  0.00  0.00    +0.007 A 
ATOM     11  C   LIG    1        0.002   1.927   3.853  0.00  0.00    +0.000 A 
ATOM     12  C   LIG    1       -0.034   3.319   3.897  0.00  0.00    +0.000 A 
ATOM     13  C   LIG    1       -0.240   4.061   2.736  0.00  0.00    +0.000 A 
ATOM     14  C   LIG    1       -0.412   3.405   1.520  0.00  0.00    +0.007 A 
ENDBRANCH   1   9
BRANCH   1  15
ATOM     15  O   LIG    1        0.194   0.084   0.048  0.00  0.00    -0.478 OA
BRANCH  15  16
ATOM     16  C   LIG    1        1.578   0.093  -0.022  0.00  0.00    +0.163 A 
ATOM     17  C   LIG    1        2.354   1.263  -0.081  0.00  0.00    +0.049 A 
ATOM     18  C   LIG    1        3.743   1.192  -0.151  0.00  0.00    +0.004 A 
ATOM     19  C   LIG    1        4.376  -0.047  -0.164  0.00  0.00    +0.004 A 
ATOM     20  C   LIG    1        3.619  -1.215  -0.108  0.00  0.00    +0.049 A 
ATOM     21  C   LIG    1        2.216  -1.158  -0.037  0.00  0.00    +0.162 A 
BRANCH  21  22
ATOM     22  O   LIG    1        1.404  -2.277   0.020  0.00  0.00    -0.489 OA
BRANCH  22  23
ATOM     23  C   LIG    1        1.988  -3.575   0.008  0.00  0.00    +0.226 C 
ATOM     24  C   LIG    1        0.868  -4.618   0.062  0.00  0.00    +0.048 C 
ENDBRANCH  22  23
ENDBRANCH  21  22
ENDBRANCH  15  16
ENDBRANCH   1  15
TORSDOF 6
