REMARK  Name = DB00118
REMARK                            x       y       z     vdW  Elec       q    Type
REMARK                         _______ _______ _______ _____ _____    ______ ____
ROOT
ATOM      1  C   LIG    1       -2.034   3.272   0.265  0.00  0.00    +0.253 C 
ATOM      2  C   LIG    1       -1.091   3.167   1.458  0.00  0.00    +0.195 C 
ATOM      3  C   LIG    1        0.225   2.922   0.720  0.00  0.00    +0.177 C 
ATOM      4  C   LIG    1       -0.186   2.043  -0.473  0.00  0.00    +0.161 C 
ATOM      5  O   LIG    1       -1.575   2.313  -0.640  0.00  0.00    -0.347 OA
ENDROOT
BRANCH   1   6
ATOM      6  N   LIG    1       -3.501   3.055   0.579  0.00  0.00    -0.286 N 
ATOM      7  C   LIG    1       -4.209   1.908   0.520  0.00  0.00    +0.203 A 
ATOM      8  N   LIG    1       -5.458   2.039   0.890  0.00  0.00    -0.231 NA
ATOM      9  C   LIG    1       -5.575   3.336   1.212  0.00  0.00    +0.147 A 
ATOM     10  C   LIG    1       -6.674   4.091   1.686  0.00  0.00    +0.147 A 
ATOM     11  N   LIG    1       -6.487   5.417   1.931  0.00  0.00    -0.219 NA
ATOM     12  C   LIG    1       -5.269   5.931   1.710  0.00  0.00    +0.225 A 
ATOM     13  N   LIG    1       -4.157   5.321   1.268  0.00  0.00    -0.216 NA
ATOM     14  C   LIG    1       -4.374   4.003   1.033  0.00  0.00    +0.167 A 
BRANCH  10  15
ATOM     15  N   LIG    1       -7.933   3.540   1.914  0.00  0.00    -0.341 N 
ATOM     16  H   LIG    1       -8.676   4.130   2.259  0.00  0.00    +0.144 HD
ATOM     17  H   LIG    1       -8.082   2.556   1.743  0.00  0.00    +0.144 HD
ENDBRANCH  10  15
ENDBRANCH   1   6
BRANCH   2  18
ATOM     18  O   LIG    1       -1.154   4.328   2.266  0.00  0.00    -0.385 OA
ATOM     19  H   LIG    1       -0.591   4.200   3.034  0.00  0.00    +0.210 HD
ENDBRANCH   2  18
BRANCH   3  20
ATOM     20  O   LIG    1        0.879   4.109   0.296  0.00  0.00    -0.386 OA
ATOM     21  H   LIG    1        0.275   4.612  -0.256  0.00  0.00    +0.210 HD
ENDBRANCH   3  20
BRANCH   4  22
ATOM     22  C   LIG    1       -0.060   0.519  -0.277  0.00  0.00    +0.093 C 
BRANCH  22  23
ATOM     23  S   LIG    1        1.640  -0.110  -0.102  0.00  0.00    -0.209 S 
ATOM     24  C   LIG    1        1.457  -1.782  -0.787  0.00  0.00    +0.073 C 
BRANCH  23  25
ATOM     25  C   LIG    1        1.699  -0.500   1.677  0.00  0.00    +0.061 C 
BRANCH  25  26
ATOM     26  C   LIG    1        3.051  -1.035   2.194  0.00  0.00    +0.040 C 
BRANCH  26  27
ATOM     27  CA  LIG    1        4.248  -0.049   2.084  0.00  0.00    +0.161 C 
BRANCH  27  28
ATOM     28  N   LIG    1        5.496  -0.703   2.521  0.00  0.00    -0.318 NA
ATOM     29  H1  LIG    1        5.417  -0.974   3.491  0.00  0.00    +0.119 HD
ATOM     30  H2  LIG    1        6.258  -0.040   2.492  0.00  0.00    +0.119 HD
ENDBRANCH  27  28
BRANCH  27  31
ATOM     31  C   LIG    1        4.000   1.302   2.845  0.00  0.00    +0.322 C 
ATOM     32  O   LIG    1        3.781   2.284   2.098  0.00  0.00    -0.249 OA
BRANCH  31  33
ATOM     33  OXT LIG    1        3.967   1.233   4.097  0.00  0.00    -0.480 OA
ATOM     34  HXT LIG    1        4.156   0.421   4.526  0.00  0.00    +0.295 HD
ENDBRANCH  31  33
ENDBRANCH  27  31
ENDBRANCH  26  27
ENDBRANCH  25  26
ENDBRANCH  23  25
ENDBRANCH  22  23
ENDBRANCH   4  22
TORSDOF 12
