REMARK  Name = DB00383
REMARK                            x       y       z     vdW  Elec       q    Type
REMARK                         _______ _______ _______ _____ _____    ______ ____
ROOT
ATOM      1  C   LIG    1        0.058  -0.181   0.039  0.00  0.00    +0.190 C 
ENDROOT
BRANCH   1   2
ATOM      2  C   LIG    1       -0.522  -0.895   1.297  0.00  0.00    -0.005 A 
ATOM      3  C   LIG    1        0.213  -1.827   2.056  0.00  0.00    +0.007 A 
ATOM      4  C   LIG    1       -0.362  -2.470   3.148  0.00  0.00    +0.000 A 
ATOM      5  C   LIG    1       -1.682  -2.201   3.493  0.00  0.00    +0.000 A 
ATOM      6  C   LIG    1       -2.434  -1.298   2.749  0.00  0.00    +0.000 A 
ATOM      7  C   LIG    1       -1.859  -0.656   1.656  0.00  0.00    +0.007 A 
ENDBRANCH   1   2
BRANCH   1   8
ATOM      8  C   LIG    1       -0.482  -0.885  -1.271  0.00  0.00    +0.036 C 
ATOM      9  C   LIG    1       -0.004  -0.232  -2.604  0.00  0.00    +0.007 C 
ATOM     10  C   LIG    1       -0.703  -0.846  -3.834  0.00  0.00    +0.000 C 
ATOM     11  C   LIG    1       -0.512  -2.374  -3.891  0.00  0.00    +0.000 C 
ATOM     12  C   LIG    1       -0.917  -3.059  -2.571  0.00  0.00    +0.000 C 
ATOM     13  C   LIG    1       -0.215  -2.417  -1.357  0.00  0.00    +0.007 C 
ENDBRANCH   1   8
BRANCH   1  14
ATOM     14  O   LIG    1       -0.411   1.165  -0.022  0.00  0.00    -0.373 OA
ATOM     15  H   LIG    1        0.051   1.676   0.647  0.00  0.00    +0.211 HD
ENDBRANCH   1  14
BRANCH   1  16
ATOM     16  C   LIG    1        1.616  -0.079   0.130  0.00  0.00    +0.345 C 
ATOM     17  O   LIG    1        2.365  -0.826  -0.504  0.00  0.00    -0.247 OA
BRANCH  16  18
ATOM     18  O   LIG    1        2.048   0.868   1.017  0.00  0.00    -0.450 OA
BRANCH  18  19
ATOM     19  C   LIG    1        3.440   1.140   1.226  0.00  0.00    +0.359 C 
BRANCH  19  20
ATOM     20  C   LIG    1        4.116   1.958   0.102  0.00  0.00    +0.320 C 
ATOM     21  N   LIG    1        3.349   2.707  -0.603  0.00  0.00    -0.084 NA
ATOM     22  C   LIG    1        3.911   3.576  -1.637  0.00  0.00    +0.294 C 
ATOM     23  C   LIG    1        5.451   3.758  -1.578  0.00  0.00    +0.093 C 
ATOM     24  C   LIG    1        6.170   2.445  -1.211  0.00  0.00    +0.229 C 
ATOM     25  N   LIG    1        5.505   1.829  -0.055  0.00  0.00    -0.224 N 
ATOM     26  C   LIG    1        6.301   0.842   0.671  0.00  0.00    +0.276 C 
ENDBRANCH  19  20
ENDBRANCH  18  19
ENDBRANCH  16  18
ENDBRANCH   1  16
TORSDOF 7
