REMARK  Name = DB00629
REMARK                            x       y       z     vdW  Elec       q    Type
REMARK                         _______ _______ _______ _____ _____    ______ ____
ROOT
ATOM      1  C   LIG    1       -0.509   0.811  -0.244  0.00  0.00    +0.163 C 
ATOM      2  N   LIG    1        0.215   0.522   0.777  0.00  0.00    -0.078 NA
ENDROOT
BRANCH   1  10
ATOM      3 CL   LIG    1       -1.265   3.771   0.243  0.00  0.00    -0.083 Cl
ATOM      4  C   LIG    1       -2.372   2.442   0.101  0.00  0.00    +0.051 A 
ATOM      5  C   LIG    1       -3.734   2.727   0.212  0.00  0.00    +0.021 A 
ATOM      6  C   LIG    1       -4.678   1.711   0.104  0.00  0.00    +0.003 A 
ATOM      7  C   LIG    1       -4.263   0.402  -0.118  0.00  0.00    +0.021 A 
ATOM      8  C   LIG    1       -2.906   0.098  -0.231  0.00  0.00    +0.051 A 
ATOM      9 CL   LIG    1       -2.479  -1.561  -0.510  0.00  0.00    -0.083 Cl
ATOM     10  C   LIG    1       -1.937   1.118  -0.121  0.00  0.00    +0.033 A 
ENDBRANCH   1  10
BRANCH   2  11
ATOM     11  N   LIG    1        1.485   0.254   0.573  0.00  0.00    +0.044 NA
ATOM     12  C   LIG    1        1.860  -0.891   0.113  0.00  0.00    +0.404 C 
BRANCH  12  13
ATOM     13  N   LIG    1        1.043  -2.015  -0.175  0.00  0.00    -0.287 N 
ATOM     14  H   LIG    1        1.441  -2.932  -0.033  0.00  0.00    +0.255 HD
ATOM     15  H   LIG    1        0.085  -1.985   0.143  0.00  0.00    +0.255 HD
ENDBRANCH  12  13
BRANCH  12  16
ATOM     16  N   LIG    1        3.218  -1.173  -0.142  0.00  0.00    -0.287 N 
ATOM     17  H   LIG    1        3.535  -2.121  -0.003  0.00  0.00    +0.255 HD
ATOM     18  H   LIG    1        3.901  -0.511   0.197  0.00  0.00    +0.255 HD
ENDBRANCH  12  16
ENDBRANCH   2  11
TORSDOF 4
