REMARK  Name = DB00619
REMARK                            x       y       z     vdW  Elec       q    Type
REMARK                         _______ _______ _______ _____ _____    ______ ____
ROOT
ATOM      1  C   LIG    1        1.734   0.007   0.226  0.00  0.00    +0.035 A 
ATOM      2  C   LIG    1        2.435  -1.197   0.290  0.00  0.00    +0.024 A 
ATOM      3  C   LIG    1        3.820  -1.201   0.439  0.00  0.00    +0.007 A 
ATOM      4  C   LIG    1        4.531   0.000   0.523  0.00  0.00    -0.029 A 
ATOM      5  C   LIG    1        6.047  -0.052   0.678  0.00  0.00    +0.045 C 
ATOM      6  C   LIG    1        3.839   1.224   0.461  0.00  0.00    +0.038 A 
ATOM      7  C   LIG    1        2.442   1.213   0.340  0.00  0.00    +0.047 A 
ENDROOT
BRANCH   1  10
ATOM      8  O   LIG    1       -0.204   1.980  -0.765  0.00  0.00    -0.270 OA
ATOM      9  C   LIG    1       -0.531   0.862  -0.361  0.00  0.00    +0.248 C 
ATOM     10  N   LIG    1        0.336  -0.078   0.084  0.00  0.00    -0.281 N 
ATOM     11  H   LIG    1       -0.057  -0.977   0.318  0.00  0.00    +0.155 HD
BRANCH   9  12
ATOM     12  C   LIG    1       -1.992   0.472  -0.322  0.00  0.00    +0.037 A 
ATOM     13  C   LIG    1       -2.395  -0.871  -0.401  0.00  0.00    +0.013 A 
ATOM     14  C   LIG    1       -3.746  -1.206  -0.364  0.00  0.00    +0.005 A 
ATOM     15  C   LIG    1       -4.711  -0.205  -0.248  0.00  0.00    -0.033 A 
ATOM     16  C   LIG    1       -4.322   1.133  -0.174  0.00  0.00    +0.005 A 
ATOM     17  C   LIG    1       -2.972   1.469  -0.216  0.00  0.00    +0.013 A 
BRANCH  15  18
ATOM     18  C   LIG    1       -6.189  -0.573  -0.195  0.00  0.00    +0.119 C 
BRANCH  18  19
ATOM     19  N   LIG    1       -6.719  -0.975  -1.502  0.00  0.00    -0.296 NA
ATOM     20  C   LIG    1       -6.857   0.181  -2.403  0.00  0.00    +0.100 C 
ATOM     21  C   LIG    1       -7.417  -0.269  -3.774  0.00  0.00    +0.099 C 
ATOM     22  N   LIG    1       -8.735  -0.891  -3.596  0.00  0.00    -0.303 NA
ATOM     23  C   LIG    1       -9.277  -1.306  -4.885  0.00  0.00    +0.105 C 
ATOM     24  C   LIG    1       -8.603  -2.047  -2.702  0.00  0.00    +0.099 C 
ATOM     25  C   LIG    1       -8.041  -1.594  -1.333  0.00  0.00    +0.100 C 
ENDBRANCH  18  19
ENDBRANCH  15  18
ENDBRANCH   9  12
ENDBRANCH   1  10
BRANCH   6  26
ATOM     26  N   LIG    1        4.548   2.439   0.546  0.00  0.00    -0.283 N 
ATOM     27  H   LIG    1        5.361   2.412   1.143  0.00  0.00    +0.155 HD
BRANCH  26  28
ATOM     28  C   LIG    1        4.297   3.695  -0.030  0.00  0.00    +0.220 A 
ATOM     29  N   LIG    1        5.119   4.701   0.361  0.00  0.00    -0.223 NA
ATOM     30  C   LIG    1        4.901   5.919  -0.200  0.00  0.00    +0.116 A 
ATOM     31  C   LIG    1        3.886   6.146  -1.132  0.00  0.00    +0.048 A 
ATOM     32  C   LIG    1        3.074   5.056  -1.485  0.00  0.00    +0.077 A 
ATOM     33  N   LIG    1        3.295   3.827  -0.941  0.00  0.00    -0.214 NA
BRANCH  32  34
ATOM     34  C   LIG    1        1.943   5.159  -2.463  0.00  0.00    +0.019 A 
ATOM     35  C   LIG    1        1.388   4.024  -3.083  0.00  0.00    +0.120 A 
ATOM     36  N   LIG    1        0.359   4.067  -3.967  0.00  0.00    -0.263 NA
ATOM     37  C   LIG    1       -0.165   5.280  -4.266  0.00  0.00    +0.111 A 
ATOM     38  C   LIG    1        0.308   6.465  -3.707  0.00  0.00    +0.020 A 
ATOM     39  C   LIG    1        1.368   6.396  -2.801  0.00  0.00    +0.013 A 
ENDBRANCH  32  34
ENDBRANCH  26  28
ENDBRANCH   6  26
TORSDOF 7
