REMARK  Name = DB00697
REMARK                            x       y       z     vdW  Elec       q    Type
REMARK                         _______ _______ _______ _____ _____    ______ ____
ROOT
ATOM      1 CL   LIG    1       -2.471   0.283  -0.670  0.00  0.00    -0.080 Cl
ATOM      2  C   LIG    1       -1.854  -1.292  -0.295  0.00  0.00    +0.080 A 
ATOM      3  C   LIG    1       -2.661  -2.394  -0.587  0.00  0.00    +0.025 A 
ATOM      4  C   LIG    1       -2.245  -3.699  -0.329  0.00  0.00    +0.032 A 
ATOM      5  C   LIG    1       -0.981  -3.875   0.246  0.00  0.00    +0.103 A 
ATOM      6  C   LIG    1       -0.154  -2.771   0.549  0.00  0.00    +0.138 A 
ATOM      7  N   LIG    1        1.029  -3.105   1.124  0.00  0.00    -0.187 NA
ATOM      8  S   LIG    1        1.027  -4.772   1.211  0.00  0.00    +0.117 S 
ATOM      9  N   LIG    1       -0.471  -5.091   0.548  0.00  0.00    -0.191 NA
ATOM     10  C   LIG    1       -0.580  -1.447   0.279  0.00  0.00    +0.138 A 
ENDROOT
BRANCH  10  11
ATOM     11  N   LIG    1        0.233  -0.327   0.532  0.00  0.00    -0.203 N 
ATOM     12  H   LIG    1       -0.288   0.498   0.790  0.00  0.00    +0.251 HD
BRANCH  11  13
ATOM     13  C   LIG    1        1.550  -0.067   0.067  0.00  0.00    +0.369 C 
ATOM     14  N   LIG    1        2.271  -0.753  -0.727  0.00  0.00    -0.114 NA
ATOM     15  C   LIG    1        3.556  -0.113  -0.831  0.00  0.00    +0.277 C 
ATOM     16  C   LIG    1        3.515   1.100   0.082  0.00  0.00    +0.225 C 
ATOM     17  N   LIG    1        2.148   1.129   0.527  0.00  0.00    -0.235 N 
ATOM     18  H   LIG    1        1.954   1.643   1.374  0.00  0.00    +0.245 HD
ENDBRANCH  11  13
ENDBRANCH  10  11
TORSDOF 2
