REMARK  Name = DB00727
REMARK                            x       y       z     vdW  Elec       q    Type
REMARK                         _______ _______ _______ _____ _____    ______ ____
ROOT
ATOM      1  C   LIG    1        0.057  -0.064  -0.114  0.00  0.00    +0.288 C 
ENDROOT
BRANCH   1   2
ATOM      2  O   LIG    1       -0.325  -0.835   1.035  0.00  0.00    -0.344 OA
BRANCH   2   3
ATOM      3  N   LIG    1       -1.600  -1.486   0.956  0.00  0.00    +0.171 N 
ATOM      4  O   LIG    1       -1.860  -2.106   1.958  0.00  0.00    -0.094 OA
BRANCH   3   5
ATOM      5  O   LIG    1       -2.247  -1.348  -0.058  0.00  0.00    -0.370 OA
ATOM      6  H   LIG    1       -1.909  -0.829  -0.762  0.00  0.00    +0.332 HD
ENDBRANCH   3   5
ENDBRANCH   2   3
ENDBRANCH   1   2
BRANCH   1   7
ATOM      7  C   LIG    1       -0.649   1.316  -0.131  0.00  0.00    +0.318 C 
BRANCH   7   8
ATOM      8  O   LIG    1       -0.157   2.191   0.895  0.00  0.00    -0.350 OA
BRANCH   8   9
ATOM      9  N   LIG    1       -0.796   2.075   2.172  0.00  0.00    +0.171 N 
ATOM     10  O   LIG    1       -1.749   1.334   2.266  0.00  0.00    -0.094 OA
BRANCH   9  11
ATOM     11  O   LIG    1       -0.280   2.776   3.007  0.00  0.00    -0.370 OA
ATOM     12  H   LIG    1        0.462   3.303   2.783  0.00  0.00    +0.332 HD
ENDBRANCH   9  11
ENDBRANCH   8   9
ENDBRANCH   7   8
ENDBRANCH   1   7
BRANCH   1  13
ATOM     13  C   LIG    1        1.591   0.051  -0.073  0.00  0.00    +0.318 C 
BRANCH  13  14
ATOM     14  O   LIG    1        2.045   0.810  -1.200  0.00  0.00    -0.350 OA
BRANCH  14  15
ATOM     15  N   LIG    1        3.461   1.010  -1.254  0.00  0.00    +0.171 N 
ATOM     16  O   LIG    1        4.136   0.521  -0.374  0.00  0.00    -0.094 OA
BRANCH  15  17
ATOM     17  O   LIG    1        3.796   1.664  -2.211  0.00  0.00    -0.370 OA
ATOM     18  H   LIG    1        3.150   1.977  -2.813  0.00  0.00    +0.332 HD
ENDBRANCH  15  17
ENDBRANCH  14  15
ENDBRANCH  13  14
ENDBRANCH   1  13
TORSDOF 11
