REMARK  Name = DB00743
REMARK                            x       y       z     vdW  Elec       q    Type
REMARK                         _______ _______ _______ _____ _____    ______ ____
ROOT
ATOM      1  C   LIG    1        1.283   0.266  -0.804  0.00  0.00    +0.101 C 
ENDROOT
BRANCH   1   2
ATOM      2  N   LIG    1        2.131  -0.937  -0.810  0.00  0.00    -0.277 NA
BRANCH   2   3
ATOM      3  C   LIG    1        2.694  -1.225   0.547  0.00  0.00    +0.192 C 
BRANCH   3   4
ATOM      4  C   LIG    1        2.630  -2.753   0.753  0.00  0.00    +0.324 C 
ATOM      5  O   LIG    1        1.715  -3.287   1.376  0.00  0.00    -0.249 OA
BRANCH   4   6
ATOM      6  O   LIG    1        3.667  -3.414   0.157  0.00  0.00    -0.479 OA
ATOM      7  H   LIG    1        3.611  -4.364   0.286  0.00  0.00    +0.295 HD
ENDBRANCH   4   6
ENDBRANCH   3   4
BRANCH   3   8
ATOM      8  C   LIG    1        4.077  -0.607   0.894  0.00  0.00    +0.190 C 
BRANCH   8   9
ATOM      9  O   LIG    1        4.273  -0.718   2.297  0.00  0.00    -0.373 OA
BRANCH   9  10
ATOM     10  C   LIG    1        5.588  -0.389   2.726  0.00  0.00    +0.195 C 
BRANCH  10  14
ATOM     11  C   LIG    1        5.588   0.314   6.970  0.00  0.00    +0.000 A 
ATOM     12  C   LIG    1        4.666   0.973   6.160  0.00  0.00    +0.000 A 
ATOM     13  C   LIG    1        4.667   0.741   4.787  0.00  0.00    +0.006 A 
ATOM     14  C   LIG    1        5.587  -0.150   4.228  0.00  0.00    -0.022 A 
ATOM     15  C   LIG    1        6.513  -0.804   5.046  0.00  0.00    +0.006 A 
ATOM     16  C   LIG    1        6.512  -0.573   6.420  0.00  0.00    +0.000 A 
ENDBRANCH  10  14
ENDBRANCH   9  10
ENDBRANCH   8   9
ENDBRANCH   3   8
ENDBRANCH   2   3
BRANCH   2  17
ATOM     17  C   LIG    1        3.152  -0.874  -1.874  0.00  0.00    +0.206 C 
BRANCH  17  18
ATOM     18  C   LIG    1        2.541  -1.191  -3.249  0.00  0.00    +0.319 C 
ATOM     19  O   LIG    1        2.683  -0.456  -4.224  0.00  0.00    -0.250 OA
BRANCH  18  20
ATOM     20  O   LIG    1        1.874  -2.383  -3.267  0.00  0.00    -0.480 OA
ATOM     21  H   LIG    1        1.503  -2.582  -4.129  0.00  0.00    +0.295 HD
ENDBRANCH  18  20
ENDBRANCH  17  18
ENDBRANCH   2  17
ENDBRANCH   1   2
BRANCH   1  22
ATOM     22  C   LIG    1       -0.077   0.005  -0.109  0.00  0.00    +0.100 C 
BRANCH  22  23
ATOM     23  N   LIG    1       -0.745   1.234   0.343  0.00  0.00    -0.290 NA
BRANCH  23  24
ATOM     24  C   LIG    1       -2.119   0.902   0.776  0.00  0.00    +0.205 C 
BRANCH  24  25
ATOM     25  C   LIG    1       -3.091   2.108   0.892  0.00  0.00    +0.319 C 
ATOM     26  O   LIG    1       -2.864   3.169   0.263  0.00  0.00    -0.250 OA
BRANCH  25  27
ATOM     27  O   LIG    1       -4.112   1.918   1.591  0.00  0.00    -0.480 OA
ATOM     28  H   LIG    1       -4.228   1.103   2.039  0.00  0.00    +0.295 HD
ENDBRANCH  25  27
ENDBRANCH  24  25
ENDBRANCH  23  24
BRANCH  23  29
ATOM     29  C   LIG    1        0.015   1.917   1.409  0.00  0.00    +0.100 C 
BRANCH  29  30
ATOM     30  C   LIG    1        0.583   3.256   0.887  0.00  0.00    +0.101 C 
BRANCH  30  31
ATOM     31  N   LIG    1        1.706   3.814   1.653  0.00  0.00    -0.281 NA
BRANCH  31  32
ATOM     32  C   LIG    1        1.355   4.465   2.939  0.00  0.00    +0.206 C 
BRANCH  32  33
ATOM     33  C   LIG    1        1.155   3.589   4.211  0.00  0.00    +0.319 C 
ATOM     34  O   LIG    1        1.398   2.361   4.211  0.00  0.00    -0.250 OA
BRANCH  33  35
ATOM     35  O   LIG    1        0.757   4.206   5.225  0.00  0.00    -0.480 OA
ATOM     36  H   LIG    1        0.588   5.127   5.177  0.00  0.00    +0.295 HD
ENDBRANCH  33  35
ENDBRANCH  32  33
ENDBRANCH  31  32
BRANCH  31  37
ATOM     37  C   LIG    1        2.970   3.056   1.549  0.00  0.00    +0.206 C 
BRANCH  37  38
ATOM     38  C   LIG    1        4.256   3.877   1.823  0.00  0.00    +0.319 C 
ATOM     39  O   LIG    1        5.233   3.241   2.277  0.00  0.00    -0.250 OA
BRANCH  38  40
ATOM     40  O   LIG    1        4.298   5.095   1.522  0.00  0.00    -0.480 OA
ATOM     41  H   LIG    1        3.534   5.520   1.185  0.00  0.00    +0.295 HD
ENDBRANCH  38  40
ENDBRANCH  37  38
ENDBRANCH  31  37
ENDBRANCH  30  31
ENDBRANCH  29  30
ENDBRANCH  23  29
ENDBRANCH  22  23
ENDBRANCH   1  22
TORSDOF 25
