REMARK  Name = DB00549
REMARK                            x       y       z     vdW  Elec       q    Type
REMARK                         _______ _______ _______ _____ _____    ______ ____
ROOT
ATOM      1  C   LIG    1       -0.038  -0.237  -0.272  0.00  0.00    -0.001 A 
ATOM      2  C   LIG    1       -0.787  -1.425  -0.183  0.00  0.00    +0.124 A 
ATOM      3  C   LIG    1       -2.186  -1.340  -0.056  0.00  0.00    +0.059 A 
ATOM      4  C   LIG    1       -2.846  -0.105  -0.002  0.00  0.00    +0.042 A 
ATOM      5  C   LIG    1       -2.079   1.064  -0.083  0.00  0.00    +0.013 A 
ATOM      6  C   LIG    1       -0.696   0.996  -0.215  0.00  0.00    +0.008 A 
ENDROOT
BRANCH   4   7
ATOM      7  C   LIG    1       -4.351  -0.049   0.140  0.00  0.00    +0.263 C 
ATOM      8  O   LIG    1       -5.042  -1.050  -0.055  0.00  0.00    -0.269 OA
ATOM      9  N   LIG    1       -4.918   1.184   0.543  0.00  0.00    -0.181 N 
ATOM     10  H   LIG    1       -4.305   2.002   0.602  0.00  0.00    +0.177 HD
BRANCH   9  11
ATOM     11  S   LIG    1       -6.641   1.551   0.632  0.00  0.00    +0.075 S 
ATOM     12  O   LIG    1       -6.994   2.249  -0.609  0.00  0.00    -0.150 OA
ATOM     13  O   LIG    1       -7.367   0.337   1.024  0.00  0.00    -0.150 OA
BRANCH  11  14
ATOM     14  C   LIG    1       -6.785   2.729   1.990  0.00  0.00    +0.111 A 
ATOM     15  C   LIG    1       -6.529   2.367   3.329  0.00  0.00    -0.024 A 
ATOM     16  C   LIG    1       -6.102   0.960   3.729  0.00  0.00    +0.046 C 
ATOM     17  C   LIG    1       -6.662   3.329   4.338  0.00  0.00    +0.005 A 
ATOM     18  C   LIG    1       -7.046   4.633   4.032  0.00  0.00    +0.000 A 
ATOM     19  C   LIG    1       -7.303   4.989   2.711  0.00  0.00    +0.002 A 
ATOM     20  C   LIG    1       -7.175   4.042   1.697  0.00  0.00    +0.029 A 
ENDBRANCH  11  14
ENDBRANCH   9  11
ENDBRANCH   4   7
BRANCH   2  21
ATOM     21  O   LIG    1       -0.104  -2.630  -0.225  0.00  0.00    -0.495 OA
ATOM     22  C   LIG    1       -0.821  -3.856  -0.122  0.00  0.00    +0.277 C 
ENDBRANCH   2  21
BRANCH   1  23
ATOM     23  C   LIG    1        1.491  -0.266  -0.393  0.00  0.00    +0.076 C 
BRANCH  23  28
ATOM     24  C   LIG    1        3.299   4.573  -2.009  0.00  0.00    +0.025 A 
ATOM     25  C   LIG    1        2.838   4.249  -0.733  0.00  0.00    +0.037 A 
ATOM     26  C   LIG    1        2.402   2.945  -0.453  0.00  0.00    +0.033 A 
ATOM     27  C   LIG    1        2.425   1.973  -1.468  0.00  0.00    +0.005 A 
ATOM     28  C   LIG    1        2.045   0.586  -1.522  0.00  0.00    -0.018 A 
ATOM     29  C   LIG    1        2.334   0.179  -2.810  0.00  0.00    +0.090 A 
ATOM     30  N   LIG    1        2.834   1.218  -3.559  0.00  0.00    -0.349 N 
ATOM     31  C   LIG    1        3.238   1.129  -4.953  0.00  0.00    +0.149 C 
ATOM     32  C   LIG    1        2.908   2.344  -2.761  0.00  0.00    +0.049 A 
ATOM     33  C   LIG    1        3.349   3.642  -3.044  0.00  0.00    +0.028 A 
BRANCH  25  34
ATOM     34  N   LIG    1        2.828   5.299   0.201  0.00  0.00    -0.251 N 
ATOM     35  H   LIG    1        3.074   6.202  -0.176  0.00  0.00    +0.158 HD
ATOM     36  C   LIG    1        2.545   5.275   1.564  0.00  0.00    +0.405 C 
ATOM     37  O   LIG    1        2.258   4.295   2.254  0.00  0.00    -0.226 OA
BRANCH  36  38
ATOM     38  O   LIG    1        2.640   6.538   2.039  0.00  0.00    -0.447 OA
BRANCH  38  39
ATOM     39  C   LIG    1        2.434   6.843   3.421  0.00  0.00    +0.178 C 
ATOM     40  C   LIG    1        3.652   6.417   4.277  0.00  0.00    +0.045 C 
ATOM     41  C   LIG    1        4.070   7.654   5.077  0.00  0.00    +0.004 C 
ATOM     42  C   LIG    1        3.662   8.825   4.189  0.00  0.00    +0.004 C 
ATOM     43  C   LIG    1        2.333   8.374   3.578  0.00  0.00    +0.045 C 
ENDBRANCH  38  39
ENDBRANCH  36  38
ENDBRANCH  25  34
ENDBRANCH  23  28
ENDBRANCH   1  23
TORSDOF 9
