REMARK  Name = DB00877
REMARK                            x       y       z     vdW  Elec       q    Type
REMARK                         _______ _______ _______ _____ _____    ______ ____
ROOT
ATOM      1  C   LIG    1       -0.315  -0.361   5.657  0.00  0.00    +0.034 C 
ATOM      2  C   LIG    1        1.056  -1.039   5.868  0.00  0.00    +0.004 C 
ATOM      3  C   LIG    1        1.010  -2.539   5.533  0.00  0.00    +0.019 C 
ATOM      4  C   LIG    1        0.411  -2.775   4.135  0.00  0.00    +0.109 C 
ATOM      5  N   LIG    1       -0.954  -2.190   4.139  0.00  0.00    -0.282 N 
ATOM      6  C   LIG    1       -2.113  -2.914   4.108  0.00  0.00    +0.288 C 
ATOM      7  C   LIG    1       -1.957  -4.485   4.104  0.00  0.00    +0.276 C 
ATOM      8  C   LIG    1       -2.159  -5.262   2.726  0.00  0.00    +0.240 C 
ATOM      9  C   LIG    1       -1.688  -6.749   2.777  0.00  0.00    +0.054 C 
ATOM     10  C   LIG    1       -0.165  -6.952   2.969  0.00  0.00    +0.013 C 
ATOM     11  C   LIG    1       -2.202  -7.525   1.549  0.00  0.00    +0.011 C 
ATOM     12  C   LIG    1       -3.706  -7.326   1.347  0.00  0.00    +0.032 C 
ATOM     13  C   LIG    1       -4.070  -5.827   1.341  0.00  0.00    +0.125 C 
ATOM     14  C   LIG    1       -5.587  -5.528   1.281  0.00  0.00    +0.067 C 
ATOM     15  C   LIG    1       -6.435  -6.152   0.142  0.00  0.00    +0.146 C 
ATOM     16  C   LIG    1       -6.018  -5.781  -1.293  0.00  0.00    -0.044 C 
ATOM     17  C   LIG    1       -6.666  -4.793  -1.954  0.00  0.00    +0.001 C 
ATOM     18  C   LIG    1       -6.453  -4.385  -3.335  0.00  0.00    +0.000 C 
ATOM     19  C   LIG    1       -7.108  -3.360  -3.907  0.00  0.00    -0.000 C 
ATOM     20  C   LIG    1       -6.926  -2.994  -5.298  0.00  0.00    -0.004 C 
ATOM     21  C   LIG    1       -7.475  -1.897  -5.851  0.00  0.00    -0.024 C 
ATOM     22  C   LIG    1       -7.324  -1.484  -7.307  0.00  0.00    +0.009 C 
ATOM     23  C   LIG    1       -8.705  -1.340  -7.973  0.00  0.00    +0.012 C 
ATOM     24  C   LIG    1       -6.470  -0.201  -7.505  0.00  0.00    +0.018 C 
ATOM     25  C   LIG    1       -4.928  -0.384  -7.422  0.00  0.00    +0.055 C 
ATOM     26  C   LIG    1       -4.156   0.747  -8.133  0.00  0.00    +0.015 C 
ATOM     27  C   LIG    1       -4.407  -0.613  -5.990  0.00  0.00    +0.167 C 
ATOM     28  O   LIG    1       -4.064  -1.738  -5.625  0.00  0.00    -0.294 OA
ATOM     29  C   LIG    1       -4.340   0.595  -5.028  0.00  0.00    +0.216 C 
ATOM     30  C   LIG    1       -4.848   0.311  -3.580  0.00  0.00    +0.176 C 
ATOM     31  C   LIG    1       -4.550   1.433  -2.581  0.00  0.00    -0.045 C 
ATOM     32  C   LIG    1       -5.111   2.807  -2.949  0.00  0.00    +0.041 C 
ATOM     33  C   LIG    1       -3.808   1.184  -1.479  0.00  0.00    -0.015 C 
ATOM     34  C   LIG    1       -3.353   2.167  -0.407  0.00  0.00    +0.075 C 
ATOM     35  C   LIG    1       -3.883   1.790   0.991  0.00  0.00    +0.020 C 
ATOM     36  C   LIG    1       -1.821   2.330  -0.510  0.00  0.00    +0.143 C 
ATOM     37  O   LIG    1       -1.323   2.902  -1.480  0.00  0.00    -0.297 OA
ATOM     38  C   LIG    1       -0.912   1.776   0.595  0.00  0.00    +0.119 C 
ATOM     39  C   LIG    1       -0.844   0.220   0.646  0.00  0.00    +0.186 C 
ATOM     40  O   LIG    1       -1.180  -0.264   1.955  0.00  0.00    -0.459 OA
ATOM     41  C   LIG    1       -0.476   0.035   3.083  0.00  0.00    +0.328 C 
ATOM     42  O   LIG    1        0.469   0.823   3.155  0.00  0.00    -0.249 OA
ATOM     43  C   LIG    1       -4.933  -6.656  -1.925  0.00  0.00    +0.042 C 
ATOM     44  O   LIG    1       -3.553  -5.195   2.525  0.00  0.00    -0.339 OA
ATOM     45  O   LIG    1       -1.698  -5.052   5.167  0.00  0.00    -0.281 OA
ATOM     46  O   LIG    1       -3.254  -2.447   4.100  0.00  0.00    -0.267 OA
ATOM     47  C   LIG    1       -1.030  -0.713   4.315  0.00  0.00    +0.185 C 
ENDROOT
BRANCH   8  48
ATOM     48  O   LIG    1       -1.454  -4.611   1.735  0.00  0.00    -0.358 OA
ATOM     49  H   LIG    1       -0.674  -5.136   1.541  0.00  0.00    +0.213 HD
ENDBRANCH   8  48
BRANCH  15  50
ATOM     50  O   LIG    1       -6.536  -7.562   0.348  0.00  0.00    -0.375 OA
ATOM     51  C   LIG    1       -7.615  -8.207  -0.321  0.00  0.00    +0.194 C 
ENDBRANCH  15  50
BRANCH  29  52
ATOM     52  O   LIG    1       -3.043   1.211  -5.069  0.00  0.00    -0.369 OA
ATOM     53  C   LIG    1       -1.932   0.490  -4.535  0.00  0.00    +0.195 C 
ENDBRANCH  29  52
BRANCH  30  54
ATOM     54  O   LIG    1       -6.251   0.114  -3.597  0.00  0.00    -0.384 OA
ATOM     55  H   LIG    1       -6.534  -0.131  -2.713  0.00  0.00    +0.210 HD
ENDBRANCH  30  54
BRANCH  39  56
ATOM     56  C   LIG    1        0.474  -0.415   0.098  0.00  0.00    +0.027 C 
ATOM     57  C   LIG    1        0.766   0.018  -1.356  0.00  0.00    +0.011 C 
BRANCH  56  58
ATOM     58  C   LIG    1        0.450  -1.967   0.228  0.00  0.00    +0.010 C 
BRANCH  58  59
ATOM     59  C   LIG    1        1.754  -2.737  -0.110  0.00  0.00    -0.008 C 
ATOM     60  C   LIG    1        2.962  -2.306   0.758  0.00  0.00    +0.037 C 
ATOM     61  C   LIG    1        4.253  -3.045   0.325  0.00  0.00    +0.147 C 
ATOM     62  C   LIG    1        4.065  -4.583   0.410  0.00  0.00    +0.143 C 
ATOM     63  C   LIG    1        2.783  -5.069  -0.308  0.00  0.00    +0.034 C 
ATOM     64  C   LIG    1        1.543  -4.253   0.103  0.00  0.00    +0.006 C 
BRANCH  61  65
ATOM     65  O   LIG    1        5.371  -2.675   1.133  0.00  0.00    -0.377 OA
ATOM     66  C   LIG    1        5.893  -1.371   0.911  0.00  0.00    +0.194 C 
ENDBRANCH  61  65
BRANCH  62  67
ATOM     67  O   LIG    1        5.187  -5.265  -0.117  0.00  0.00    -0.389 OA
ATOM     68  H   LIG    1        5.979  -4.787   0.141  0.00  0.00    +0.210 HD
ENDBRANCH  62  67
ENDBRANCH  58  59
ENDBRANCH  56  58
ENDBRANCH  39  56
TORSDOF 9
