REMARK  Name = DB00760
REMARK                            x       y       z     vdW  Elec       q    Type
REMARK                         _______ _______ _______ _____ _____    ______ ____
ROOT
ATOM      1  C   LIG    1       -2.540  -0.787  -0.105  0.00  0.00    +0.104 C 
ATOM      2  C   LIG    1       -3.337  -0.599  -1.427  0.00  0.00    +0.125 C 
ATOM      3  C   LIG    1       -3.225   0.921  -1.122  0.00  0.00    +0.228 C 
ATOM      4  O   LIG    1       -3.696   1.951  -1.602  0.00  0.00    -0.275 OA
ATOM      5  N   LIG    1       -2.311   0.669  -0.095  0.00  0.00    -0.260 N 
ATOM      6  C   LIG    1       -1.009   1.029  -0.025  0.00  0.00    +0.131 C 
ATOM      7  C   LIG    1       -0.226  -0.073   0.045  0.00  0.00    +0.019 C 
ATOM      8  C   LIG    1       -1.091  -1.328  -0.071  0.00  0.00    +0.046 C 
ATOM      9  C   LIG    1       -0.701  -2.236  -1.253  0.00  0.00    +0.015 C 
ENDROOT
BRANCH   2  10
ATOM     10  C   LIG    1       -4.801  -1.100  -1.427  0.00  0.00    +0.125 C 
ATOM     11  C   LIG    1       -5.619  -0.643  -2.649  0.00  0.00    +0.038 C 
BRANCH  10  12
ATOM     12  O   LIG    1       -4.782  -2.514  -1.421  0.00  0.00    -0.391 OA
ATOM     13  H   LIG    1       -4.289  -2.811  -0.654  0.00  0.00    +0.210 HD
ENDBRANCH  10  12
ENDBRANCH   2  10
BRANCH   6  14
ATOM     14  C   LIG    1       -0.602   2.421   0.050  0.00  0.00    +0.352 C 
ATOM     15  O   LIG    1       -1.279   3.303   0.577  0.00  0.00    -0.244 OA
BRANCH  14  16
ATOM     16  O   LIG    1        0.591   2.667  -0.567  0.00  0.00    -0.476 OA
ATOM     17  H   LIG    1        0.840   3.593  -0.524  0.00  0.00    +0.295 HD
ENDBRANCH  14  16
ENDBRANCH   6  14
BRANCH   7  18
ATOM     18  S   LIG    1        1.553  -0.194   0.187  0.00  0.00    -0.122 S 
BRANCH  18  19
ATOM     19  C   LIG    1        1.749  -0.987   1.811  0.00  0.00    +0.067 C 
ATOM     20  C   LIG    1        3.200  -1.117   2.256  0.00  0.00    +0.044 C 
ATOM     21  C   LIG    1        3.036  -1.215   3.783  0.00  0.00    +0.142 C 
ATOM     22  N   LIG    1        1.949  -0.301   4.120  0.00  0.00    -0.305 NA
ATOM     23  H   LIG    1        2.328   0.629   4.241  0.00  0.00    +0.123 HD
ATOM     24  C   LIG    1        1.036  -0.300   2.983  0.00  0.00    +0.096 C 
BRANCH  21  25
ATOM     25  C   LIG    1        4.316  -0.881   4.597  0.00  0.00    +0.232 C 
ATOM     26  N   LIG    1        4.371  -1.177   5.925  0.00  0.00    -0.306 N 
ATOM     27  C   LIG    1        3.292  -1.798   6.699  0.00  0.00    +0.131 C 
ATOM     28  C   LIG    1        5.560  -0.899   6.737  0.00  0.00    +0.131 C 
ATOM     29  O   LIG    1        5.265  -0.348   4.015  0.00  0.00    -0.274 OA
ENDBRANCH  21  25
ENDBRANCH  18  19
ENDBRANCH   7  18
TORSDOF 7
