REMARK  Name = DB00438
REMARK                            x       y       z     vdW  Elec       q    Type
REMARK                         _______ _______ _______ _____ _____    ______ ____
ROOT
ATOM      1  N   LIG    1        1.003  -1.633  -3.335  0.00  0.00    -0.296 N 
ATOM      2  H   LIG    1        1.472  -0.910  -3.861  0.00  0.00    +0.150 HD
ATOM      3  C   LIG    1        1.044  -1.550  -1.992  0.00  0.00    +0.268 C 
ATOM      4  O   LIG    1        0.447  -2.316  -1.232  0.00  0.00    -0.268 OA
ENDROOT
BRANCH   1  11
ATOM      5  S   LIG    1        2.196  -1.643  -6.253  0.00  0.00    -0.131 S 
ATOM      6  C   LIG    1        3.022  -2.803  -7.402  0.00  0.00    +0.105 C 
ATOM      7  C   LIG    1        3.538  -4.083  -6.716  0.00  0.00    -0.017 C 
ATOM      8  CA  LIG    1        2.938  -4.581  -5.593  0.00  0.00    +0.123 C 
ATOM      9  N   LIG    1        1.839  -4.001  -5.018  0.00  0.00    -0.249 N 
ATOM     10  C   LIG    1        1.059  -4.127  -3.868  0.00  0.00    +0.244 C 
ATOM     11  CA  LIG    1        0.429  -2.717  -4.143  0.00  0.00    +0.191 C 
ATOM     12  O   LIG    1        0.958  -4.982  -2.989  0.00  0.00    -0.273 OA
ATOM     13  C   LIG    1        1.051  -2.878  -5.561  0.00  0.00    +0.169 C 
BRANCH   8  14
ATOM     14  C   LIG    1        3.509  -5.844  -4.883  0.00  0.00    +0.351 C 
ATOM     15  OXT LIG    1        4.429  -5.614  -4.064  0.00  0.00    -0.244 OA
BRANCH  14  16
ATOM     16  O   LIG    1        2.988  -6.926  -5.238  0.00  0.00    -0.476 OA
ATOM     17  H   LIG    1        2.762  -7.064  -6.137  0.00  0.00    +0.295 HD
ENDBRANCH  14  16
ENDBRANCH   8  14
BRANCH   7  18
ATOM     18  C   LIG    1        4.784  -4.686  -7.382  0.00  0.00    +0.118 C 
BRANCH  18  19
ATOM     19  N   LIG    1        4.493  -5.259  -8.716  0.00  0.00    -0.289 NA
ATOM     20  C   LIG    1        4.713  -4.510  -9.826  0.00  0.00    +0.078 C 
ATOM     21  C   LIG    1        4.449  -5.040 -11.092  0.00  0.00    +0.016 C 
ATOM     22  C   LIG    1        3.962  -6.345 -11.200  0.00  0.00    +0.003 C 
ATOM     23  C   LIG    1        3.747  -7.096 -10.043  0.00  0.00    +0.016 C 
ATOM     24  C   LIG    1        4.022  -6.529  -8.796  0.00  0.00    +0.078 C 
ENDBRANCH  18  19
ENDBRANCH   7  18
ENDBRANCH   1  11
BRANCH   3  25
ATOM     25  C   LIG    1        1.903  -0.454  -1.508  0.00  0.00    +0.190 C 
ATOM     26  N   LIG    1        1.425   0.503  -0.791  0.00  0.00    -0.077 NA
BRANCH  25  27
ATOM     27  C   LIG    1        3.350  -0.461  -1.851  0.00  0.00    +0.107 A 
ATOM     28  C   LIG    1        4.223   0.608  -1.608  0.00  0.00    +0.078 A 
ATOM     29  S   LIG    1        5.822   0.194  -2.156  0.00  0.00    -0.060 S 
ATOM     30  C   LIG    1        5.196  -1.347  -2.636  0.00  0.00    +0.156 A 
ATOM     31  N   LIG    1        3.923  -1.524  -2.406  0.00  0.00    -0.223 NA
BRANCH  30  32
ATOM     32  N   LIG    1        6.013  -2.277  -3.209  0.00  0.00    -0.338 N 
ATOM     33  H   LIG    1        6.997  -2.103  -3.358  0.00  0.00    +0.144 HD
ATOM     34  H   LIG    1        5.663  -3.184  -3.485  0.00  0.00    +0.144 HD
ENDBRANCH  30  32
ENDBRANCH  25  27
BRANCH  26  35
ATOM     35  O   LIG    1        0.024   0.446  -0.551  0.00  0.00    -0.376 OA
BRANCH  35  36
ATOM     36  C   LIG    1       -0.437   1.532   0.275  0.00  0.00    +0.228 C 
ATOM     37  C   LIG    1       -0.154   2.902  -0.399  0.00  0.00    +0.070 C 
ATOM     38  C   LIG    1        0.201   1.440   1.688  0.00  0.00    +0.070 C 
BRANCH  36  39
ATOM     39  C   LIG    1       -1.978   1.375   0.418  0.00  0.00    +0.351 C 
ATOM     40  O   LIG    1       -2.654   2.110   1.138  0.00  0.00    -0.246 OA
BRANCH  39  41
ATOM     41  O   LIG    1       -2.509   0.360  -0.330  0.00  0.00    -0.478 OA
ATOM     42  H   LIG    1       -3.459   0.287  -0.222  0.00  0.00    +0.295 HD
ENDBRANCH  39  41
ENDBRANCH  36  39
ENDBRANCH  35  36
ENDBRANCH  26  35
ENDBRANCH   3  25
TORSDOF 12
