REMARK  Name = DB00985
REMARK                            x       y       z     vdW  Elec       q    Type
REMARK                         _______ _______ _______ _____ _____    ______ ____
ROOT
ATOM      1  C   LIG    1       -0.640   1.270  -0.099  0.00  0.00    +0.178 C 
ENDROOT
BRANCH   1   2
ATOM      2  C   LIG    1       -0.415   1.823  -1.509  0.00  0.00    -0.015 A 
ATOM      3  C   LIG    1       -0.740   1.046  -2.626  0.00  0.00    +0.006 A 
ATOM      4  C   LIG    1       -0.517   1.541  -3.908  0.00  0.00    +0.000 A 
ATOM      5  C   LIG    1        0.032   2.811  -4.070  0.00  0.00    +0.000 A 
ATOM      6  C   LIG    1        0.364   3.588  -2.963  0.00  0.00    +0.000 A 
ATOM      7  C   LIG    1        0.142   3.093  -1.681  0.00  0.00    +0.006 A 
ENDBRANCH   1   2
BRANCH   1   8
ATOM      8  C   LIG    1       -2.127   1.173   0.255  0.00  0.00    -0.015 A 
ATOM      9  C   LIG    1       -2.781  -0.063   0.340  0.00  0.00    +0.006 A 
ATOM     10  C   LIG    1       -4.131  -0.118   0.675  0.00  0.00    +0.000 A 
ATOM     11  C   LIG    1       -4.829   1.060   0.930  0.00  0.00    +0.000 A 
ATOM     12  C   LIG    1       -4.187   2.294   0.855  0.00  0.00    +0.000 A 
ATOM     13  C   LIG    1       -2.837   2.349   0.519  0.00  0.00    +0.006 A 
ENDBRANCH   1   8
BRANCH   1  14
ATOM     14  O   LIG    1       -0.004  -0.004   0.054  0.00  0.00    -0.366 OA
BRANCH  14  15
ATOM     15  C   LIG    1        1.420   0.004   0.035  0.00  0.00    +0.176 C 
BRANCH  15  16
ATOM     16  C   LIG    1        1.916  -1.439   0.252  0.00  0.00    +0.112 C 
BRANCH  16  17
ATOM     17  N   LIG    1        3.362  -1.524   0.486  0.00  0.00    -0.306 NA
ATOM     18  C   LIG    1        3.719  -2.887   0.869  0.00  0.00    +0.104 C 
ATOM     19  C   LIG    1        4.139  -1.138  -0.690  0.00  0.00    +0.104 C 
ENDBRANCH  16  17
ENDBRANCH  15  16
ENDBRANCH  14  15
ENDBRANCH   1  14
TORSDOF 6
