REMARK  Name = DB00373
REMARK                            x       y       z     vdW  Elec       q    Type
REMARK                         _______ _______ _______ _____ _____    ______ ____
ROOT
ATOM      1  O   LIG    1       -0.753   1.178  -0.223  0.00  0.00    -0.471 OA
ENDROOT
BRANCH   1   2
ATOM      2  C   LIG    1       -2.107   1.310  -0.282  0.00  0.00    +0.265 A 
ATOM      3  N   LIG    1       -2.951   0.291  -0.274  0.00  0.00    -0.153 NA
ATOM      4  S   LIG    1       -4.491   0.919  -0.355  0.00  0.00    +0.121 S 
ATOM      5  N   LIG    1       -4.083   2.532  -0.396  0.00  0.00    -0.172 NA
ATOM      6  C   LIG    1       -2.765   2.590  -0.348  0.00  0.00    +0.194 A 
BRANCH   6   7
ATOM      7  N   LIG    1       -2.103   3.781  -0.359  0.00  0.00    -0.306 N 
ATOM      8  C   LIG    1       -2.244   4.677   0.796  0.00  0.00    +0.135 C 
ATOM      9  C   LIG    1       -1.116   5.732   0.806  0.00  0.00    +0.178 C 
ATOM     10  O   LIG    1       -1.142   6.475  -0.408  0.00  0.00    -0.377 OA
ATOM     11  C   LIG    1       -1.010   5.650  -1.562  0.00  0.00    +0.178 C 
ATOM     12  C   LIG    1       -2.137   4.595  -1.581  0.00  0.00    +0.135 C 
ENDBRANCH   6   7
ENDBRANCH   1   2
BRANCH   1  13
ATOM     13  C   LIG    1       -0.191  -0.125  -0.066  0.00  0.00    +0.263 C 
BRANCH  13  14
ATOM     14  C   LIG    1        1.339   0.002   0.045  0.00  0.00    +0.166 C 
BRANCH  14  15
ATOM     15  O   LIG    1        1.897  -1.301   0.018  0.00  0.00    -0.387 OA
ATOM     16  H   LIG    1        1.625  -1.767   0.811  0.00  0.00    +0.210 HD
ENDBRANCH  14  15
BRANCH  14  17
ATOM     17  C   LIG    1        1.768   0.733   1.338  0.00  0.00    +0.116 C 
BRANCH  17  18
ATOM     18  N   LIG    1        3.208   0.997   1.342  0.00  0.00    -0.309 NA
ATOM     19  H   LIG    1        3.478   1.484   0.500  0.00  0.00    +0.123 HD
BRANCH  18  21
ATOM     20  C   LIG    1        5.271   1.865   2.212  0.00  0.00    +0.027 C 
ATOM     21  C   LIG    1        3.770   1.675   2.518  0.00  0.00    +0.011 C 
ATOM     22  C   LIG    1        3.108   3.058   2.728  0.00  0.00    +0.027 C 
ATOM     23  C   LIG    1        3.608   0.789   3.776  0.00  0.00    +0.027 C 
ENDBRANCH  18  21
ENDBRANCH  17  18
ENDBRANCH  14  17
ENDBRANCH  13  14
ENDBRANCH   1  13
TORSDOF 8
