REMARK  Name = DB00189
REMARK                            x       y       z     vdW  Elec       q    Type
REMARK                         _______ _______ _______ _____ _____    ______ ____
ROOT
ATOM      1  C   LIG    1        0.012   0.020  -0.003  0.00  0.00    +0.146 C 
ENDROOT
BRANCH   1   2
ATOM      2  C   LIG    1       -0.429  -0.667  -1.300  0.00  0.00    +0.032 C 
ATOM      3  C   LIG    1       -1.035  -0.108  -2.364  0.00  0.00    +0.079 C 
ATOM      4 CL   LIG    1       -1.458  -1.051  -3.795  0.00  0.00    -0.092 Cl
ENDBRANCH   1   2
BRANCH   1   5
ATOM      5  C   LIG    1       -0.609  -0.692   1.136  0.00  0.00    -0.067 C 
ATOM      6  C   LIG    1       -1.118  -1.271   2.083  0.00  0.00    +0.007 C 
ENDBRANCH   1   5
BRANCH   1   7
ATOM      7  C   LIG    1        1.566   0.033   0.096  0.00  0.00    +0.049 C 
ATOM      8  C   LIG    1        2.177   0.720   1.336  0.00  0.00    +0.008 C 
ENDBRANCH   1   7
BRANCH   1   9
ATOM      9  O   LIG    1       -0.405   1.376  -0.029  0.00  0.00    -0.373 OA
ATOM     10  H   LIG    1       -1.361   1.396  -0.110  0.00  0.00    +0.212 HD
ENDBRANCH   1   9
TORSDOF 4
