REMARK  Name = DB00804
REMARK                            x       y       z     vdW  Elec       q    Type
REMARK                         _______ _______ _______ _____ _____    ______ ____
ROOT
ATOM      1  C   LIG    1        2.791  -1.836   3.539  0.00  0.00    +0.071 C 
ATOM      2  C   LIG    1        4.273  -1.379   3.792  0.00  0.00    +0.018 C 
ATOM      3  C   LIG    1        5.142  -2.505   4.396  0.00  0.00    +0.001 C 
ATOM      4  C   LIG    1        4.555  -3.023   5.725  0.00  0.00    +0.000 C 
ATOM      5  C   LIG    1        3.051  -3.352   5.627  0.00  0.00    +0.001 C 
ATOM      6  C   LIG    1        2.259  -2.195   4.974  0.00  0.00    +0.018 C 
ENDROOT
BRANCH   1   7
ATOM      7  C   LIG    1        2.656  -3.048   2.519  0.00  0.00    +0.006 C 
ATOM      8  C   LIG    1        1.212  -3.603   2.325  0.00  0.00    +0.004 C 
ATOM      9  C   LIG    1        1.180  -4.865   1.440  0.00  0.00    +0.000 C 
ATOM     10  C   LIG    1        1.827  -4.608   0.067  0.00  0.00    +0.000 C 
ATOM     11  C   LIG    1        3.241  -4.011   0.201  0.00  0.00    +0.000 C 
ATOM     12  C   LIG    1        3.250  -2.764   1.109  0.00  0.00    +0.004 C 
ENDBRANCH   1   7
BRANCH   1  13
ATOM     13  C   LIG    1        1.950  -0.612   3.049  0.00  0.00    +0.314 C 
ATOM     14  O   LIG    1        0.721  -0.597   3.170  0.00  0.00    -0.250 OA
BRANCH  13  15
ATOM     15  O   LIG    1        2.636   0.212   2.211  0.00  0.00    -0.463 OA
BRANCH  15  16
ATOM     16  C   LIG    1        2.017   1.326   1.570  0.00  0.00    +0.247 C 
BRANCH  16  17
ATOM     17  C   LIG    1        1.687   1.048   0.083  0.00  0.00    +0.125 C 
BRANCH  17  18
ATOM     18  N   LIG    1        0.673   0.006  -0.159  0.00  0.00    -0.300 NA
BRANCH  18  19
ATOM     19  C   LIG    1        0.582  -0.306  -1.596  0.00  0.00    +0.081 C 
ATOM     20  C   LIG    1        1.833  -0.990  -2.179  0.00  0.00    +0.020 C 
ENDBRANCH  18  19
BRANCH  18  21
ATOM     21  C   LIG    1       -0.643   0.433   0.347  0.00  0.00    +0.081 C 
ATOM     22  C   LIG    1       -1.663  -0.717   0.436  0.00  0.00    +0.020 C 
ENDBRANCH  18  21
ENDBRANCH  17  18
ENDBRANCH  16  17
ENDBRANCH  15  16
ENDBRANCH  13  15
ENDBRANCH   1  13
TORSDOF 8
