REMARK  Name = DB00654
REMARK                            x       y       z     vdW  Elec       q    Type
REMARK                         _______ _______ _______ _____ _____    ______ ____
ROOT
ATOM      1  C   LIG    1       -0.824  -1.592  -1.235  0.00  0.00    +0.121 C 
ATOM      2  C   LIG    1       -1.965  -2.093  -0.347  0.00  0.00    +0.063 C 
ATOM      3  C   LIG    1       -1.499  -1.955   1.110  0.00  0.00    +0.120 C 
ATOM      4  C   LIG    1       -0.387  -0.869   1.089  0.00  0.00    +0.024 C 
ATOM      5  C   LIG    1       -0.219  -0.440  -0.396  0.00  0.00    +0.027 C 
ENDROOT
BRANCH   3   6
ATOM      6  O   LIG    1       -0.975  -3.172   1.610  0.00  0.00    -0.391 OA
ATOM      7  H   LIG    1       -1.708  -3.737   1.868  0.00  0.00    +0.210 HD
ENDBRANCH   3   6
BRANCH   1   8
ATOM      8  O   LIG    1        0.090  -2.657  -1.434  0.00  0.00    -0.391 OA
ATOM      9  H   LIG    1        0.761  -2.368  -2.057  0.00  0.00    +0.210 HD
ENDBRANCH   1   8
BRANCH   4  10
ATOM     10  C   LIG    1       -0.686   0.264   2.107  0.00  0.00    +0.009 C 
BRANCH  10  11
ATOM     11  C   LIG    1        0.371   1.385   2.199  0.00  0.00    +0.032 C 
BRANCH  11  12
ATOM     12  C   LIG    1        0.129   2.390   3.346  0.00  0.00    +0.115 C 
BRANCH  12  13
ATOM     13  O   LIG    1        0.266   1.731   4.593  0.00  0.00    -0.392 OA
ATOM     14  H   LIG    1        1.164   1.400   4.666  0.00  0.00    +0.210 HD
ENDBRANCH  12  13
BRANCH  12  15
ATOM     15  C   LIG    1        1.096   3.596   3.281  0.00  0.00    +0.036 C 
BRANCH  15  16
ATOM     16  C   LIG    1        0.914   4.655   4.393  0.00  0.00    +0.037 C 
BRANCH  16  17
ATOM     17  C   LIG    1       -0.444   5.343   4.369  0.00  0.00    -0.047 A 
ATOM     18  C   LIG    1       -0.664   6.419   3.506  0.00  0.00    +0.003 A 
ATOM     19  C   LIG    1       -1.908   7.046   3.480  0.00  0.00    +0.000 A 
ATOM     20  C   LIG    1       -2.926   6.595   4.316  0.00  0.00    +0.000 A 
ATOM     21  C   LIG    1       -2.713   5.523   5.180  0.00  0.00    +0.000 A 
ATOM     22  C   LIG    1       -1.469   4.896   5.208  0.00  0.00    +0.003 A 
ENDBRANCH  16  17
ENDBRANCH  15  16
ENDBRANCH  12  15
ENDBRANCH  11  12
ENDBRANCH  10  11
ENDBRANCH   4  10
BRANCH   5  23
ATOM     23  C   LIG    1        1.231  -0.049  -0.790  0.00  0.00    +0.033 C 
BRANCH  23  24
ATOM     24  C   LIG    1        1.363   0.487  -2.207  0.00  0.00    -0.031 C 
ATOM     25  C   LIG    1        2.050  -0.059  -3.229  0.00  0.00    -0.031 C 
BRANCH  25  26
ATOM     26  C   LIG    1        2.838  -1.360  -3.219  0.00  0.00    +0.027 C 
BRANCH  26  27
ATOM     27  C   LIG    1        4.362  -1.176  -3.310  0.00  0.00    +0.015 C 
BRANCH  27  28
ATOM     28  C   LIG    1        4.966  -0.496  -2.063  0.00  0.00    +0.121 C 
BRANCH  28  29
ATOM     29  C   LIG    1        6.489  -0.383  -2.127  0.00  0.00    +0.307 C 
ATOM     30  O   LIG    1        7.211  -1.033  -1.369  0.00  0.00    -0.251 OA
BRANCH  29  31
ATOM     31  O   LIG    1        6.906   0.485  -3.080  0.00  0.00    -0.462 OA
BRANCH  31  32
ATOM     32  C   LIG    1        8.292   0.714  -3.337  0.00  0.00    +0.170 C 
ATOM     33  C   LIG    1        8.895  -0.433  -4.173  0.00  0.00    +0.052 C 
ATOM     34  C   LIG    1        8.416   2.067  -4.051  0.00  0.00    +0.052 C 
ENDBRANCH  31  32
ENDBRANCH  29  31
ENDBRANCH  28  29
ENDBRANCH  27  28
ENDBRANCH  26  27
ENDBRANCH  25  26
ENDBRANCH  23  24
ENDBRANCH   5  23
TORSDOF 17
