REMARK  Name = DB00657
REMARK                            x       y       z     vdW  Elec       q    Type
REMARK                         _______ _______ _______ _____ _____    ______ ____
ROOT
ATOM      1  C   LIG    1        1.482   0.065   0.091  0.00  0.00    +0.024 C 
ATOM      2  C   LIG    1        1.932   0.885   1.340  0.00  0.00    +0.028 C 
ATOM      3  C   LIG    1        2.085   0.626  -1.247  0.00  0.00    +0.010 C 
ATOM      4  C   LIG    1        3.628   0.763  -1.223  0.00  0.00    +0.005 C 
ATOM      5  C   LIG    1        4.102  -0.697  -1.308  0.00  0.00    +0.004 C 
ATOM      6  C   LIG    1        2.770  -1.481  -1.322  0.00  0.00    -0.003 C 
ATOM      7  C   LIG    1        1.928  -0.555  -2.201  0.00  0.00    +0.009 C 
ATOM      8  C   LIG    1        2.010  -1.450   0.050  0.00  0.00    -0.014 C 
ATOM      9  C   LIG    1        0.888  -2.535   0.010  0.00  0.00    +0.013 C 
ATOM     10  C   LIG    1        2.923  -1.864   1.241  0.00  0.00    +0.013 C 
ENDROOT
BRANCH   1  11
ATOM     11  N   LIG    1        0.004   0.122   0.092  0.00  0.00    -0.313 NA
ATOM     12  H   LIG    1       -0.363  -0.297   0.934  0.00  0.00    +0.122 HD
ATOM     13  C   LIG    1       -0.654   1.400  -0.168  0.00  0.00    +0.101 C 
ENDBRANCH   1  11
TORSDOF 1
