REMARK  Name = DB00475
REMARK                            x       y       z     vdW  Elec       q    Type
REMARK                         _______ _______ _______ _____ _____    ______ ____
ROOT
ATOM      1  N   LIG    1       -1.539  -1.629   0.983  0.00  0.00    -0.205 N 
ATOM      2  C   LIG    1       -0.695  -1.274  -0.212  0.00  0.00    +0.288 C 
ATOM      3  C   LIG    1       -0.005   0.066   0.007  0.00  0.00    +0.310 C 
ATOM      4  N   LIG    1       -0.656   1.164   0.052  0.00  0.00    -0.044 NA
ATOM      5  C   LIG    1       -2.062   1.247  -0.034  0.00  0.00    +0.185 A 
ATOM      6  C   LIG    1       -2.567   2.427  -0.600  0.00  0.00    +0.057 A 
ATOM      7  C   LIG    1       -3.929   2.695  -0.681  0.00  0.00    +0.024 A 
ATOM      8  C   LIG    1       -4.837   1.787  -0.160  0.00  0.00    +0.042 A 
ATOM      9 CL   LIG    1       -6.531   2.105  -0.253  0.00  0.00    -0.084 Cl
ATOM     10  C   LIG    1       -4.376   0.626   0.449  0.00  0.00    +0.034 A 
ATOM     11  C   LIG    1       -3.001   0.334   0.541  0.00  0.00    +0.054 A 
ATOM     12  C   LIG    1       -2.641  -0.912   1.265  0.00  0.00    +0.094 C 
ENDROOT
BRANCH  12  13
ATOM     13  C   LIG    1       -3.484  -1.351   2.380  0.00  0.00    +0.002 A 
ATOM     14  C   LIG    1       -3.481  -0.629   3.578  0.00  0.00    +0.010 A 
ATOM     15  C   LIG    1       -4.286  -1.040   4.637  0.00  0.00    +0.001 A 
ATOM     16  C   LIG    1       -5.090  -2.169   4.497  0.00  0.00    +0.000 A 
ATOM     17  C   LIG    1       -5.096  -2.894   3.306  0.00  0.00    +0.001 A 
ATOM     18  C   LIG    1       -4.293  -2.485   2.245  0.00  0.00    +0.010 A 
ENDBRANCH  12  13
BRANCH   3  19
ATOM     19  N   LIG    1        1.375   0.091   0.146  0.00  0.00    -0.238 N 
ATOM     20  H   LIG    1        1.894  -0.775   0.114  0.00  0.00    +0.291 HD
ATOM     21  C   LIG    1        2.177   1.291   0.352  0.00  0.00    +0.273 C 
ENDBRANCH   3  19
BRANCH   1  22
ATOM     22  O   LIG    1       -1.211  -2.673   1.615  0.00  0.00    -0.430 OA
ATOM     23  H   LIG    1       -1.703  -2.940   2.367  0.00  0.00    +0.325 HD
ENDBRANCH   1  22
TORSDOF 3
