REMARK  Name = DB00210
REMARK                            x       y       z     vdW  Elec       q    Type
REMARK                         _______ _______ _______ _____ _____    ______ ____
ROOT
ATOM      1  C   LIG    1        1.398   0.081  -0.073  0.00  0.00    +0.124 A 
ATOM      2  C   LIG    1        2.140   1.273  -0.100  0.00  0.00    +0.046 A 
ATOM      3  C   LIG    1        3.529   1.256  -0.076  0.00  0.00    +0.012 A 
ATOM      4  C   LIG    1        4.225   0.050  -0.023  0.00  0.00    -0.017 A 
ATOM      5  C   LIG    1        3.487  -1.139   0.001  0.00  0.00    +0.016 A 
ATOM      6  C   LIG    1        2.079  -1.160  -0.023  0.00  0.00    +0.001 A 
ENDROOT
BRANCH   4   7
ATOM      7  C   LIG    1        5.716   0.029   0.009  0.00  0.00    -0.017 A 
ATOM      8  C   LIG    1        6.424   0.938   0.802  0.00  0.00    +0.009 A 
ATOM      9  C   LIG    1        7.815   0.933   0.850  0.00  0.00    +0.009 A 
ATOM     10  C   LIG    1        8.553  -0.002   0.087  0.00  0.00    -0.017 A 
ATOM     11  C   LIG    1        9.970  -0.035   0.112  0.00  0.00    +0.023 A 
ATOM     12  C   LIG    1       10.685  -0.972  -0.648  0.00  0.00    +0.059 A 
ATOM     13  C   LIG    1        9.977  -1.882  -1.441  0.00  0.00    +0.015 A 
ATOM     14  C   LIG    1        8.586  -1.873  -1.488  0.00  0.00    +0.009 A 
ATOM     15  C   LIG    1        7.849  -0.936  -0.727  0.00  0.00    -0.017 A 
ATOM     16  C   LIG    1        6.433  -0.902  -0.751  0.00  0.00    +0.017 A 
BRANCH  12  17
ATOM     17  C   LIG    1       12.196  -1.014  -0.619  0.00  0.00    +0.337 C 
ATOM     18  O   LIG    1       12.843  -1.859  -1.237  0.00  0.00    -0.245 OA
BRANCH  17  19
ATOM     19  O   LIG    1       12.789  -0.045   0.141  0.00  0.00    -0.477 OA
ATOM     20  H   LIG    1       13.746  -0.112   0.128  0.00  0.00    +0.295 HD
ENDBRANCH  17  19
ENDBRANCH  12  17
ENDBRANCH   4   7
BRANCH   6  21
ATOM     21  C   LIG    1        1.306  -2.520   0.010  0.00  0.00    -0.000 C 
ATOM     22  C   LIG    1        0.391  -2.608   1.275  0.00  0.00    +0.015 C 
ATOM     23  C   LIG    1       -0.427  -3.926   1.327  0.00  0.00    -0.010 C 
ATOM     24  C   LIG    1       -1.277  -4.024   0.030  0.00  0.00    +0.007 C 
ATOM     25  C   LIG    1       -0.398  -4.011  -1.251  0.00  0.00    -0.010 C 
ATOM     26  C   LIG    1        0.593  -5.199  -1.168  0.00  0.00    +0.007 C 
ATOM     27  C   LIG    1        1.485  -5.119   0.096  0.00  0.00    -0.010 C 
ATOM     28  C   LIG    1        0.566  -5.116   1.343  0.00  0.00    +0.007 C 
ATOM     29  C   LIG    1        0.420  -2.692  -1.268  0.00  0.00    +0.015 C 
ATOM     30  C   LIG    1        2.252  -3.772   0.061  0.00  0.00    +0.015 C 
ENDBRANCH   6  21
BRANCH   1  31
ATOM     31  O   LIG    1        0.014   0.083  -0.093  0.00  0.00    -0.495 OA
ATOM     32  C   LIG    1       -0.705   1.312  -0.115  0.00  0.00    +0.277 C 
ENDBRANCH   1  31
TORSDOF 5
