REMARK  Name = DB00529
REMARK                            x       y       z     vdW  Elec       q    Type
REMARK                         _______ _______ _______ _____ _____    ______ ____
ROOT
ATOM      1  P   LIG    1        0.042   0.086   0.158  0.00  0.00    +0.434 P 
ATOM      2  O   LIG    1       -0.682   1.385   0.206  0.00  0.00    -0.247 OA
ENDROOT
BRANCH   1   3
ATOM      3  C   LIG    1       -0.432  -0.937  -1.287  0.00  0.00    +0.418 C 
ATOM      4  O   LIG    1       -1.301  -1.806  -1.251  0.00  0.00    -0.237 OA
BRANCH   3   5
ATOM      5  O   LIG    1        0.285  -0.574  -2.389  0.00  0.00    -0.472 OA
ATOM      6  H   LIG    1        0.048  -1.088  -3.164  0.00  0.00    +0.296 HD
ENDBRANCH   3   5
ENDBRANCH   1   3
BRANCH   1   7
ATOM      7  O   LIG    1       -0.216  -0.932   1.399  0.00  0.00    -0.316 OA
ATOM      8  H   LIG    1       -1.149  -1.152   1.585  0.00  0.00    +0.220 HD
ENDBRANCH   1   7
BRANCH   1   9
ATOM      9  O   LIG    1        1.661   0.160   0.027  0.00  0.00    -0.316 OA
ATOM     10  H   LIG    1        2.005   0.706  -0.706  0.00  0.00    +0.220 HD
ENDBRANCH   1   9
TORSDOF 4
