REMARK  Name = DB00848
REMARK                            x       y       z     vdW  Elec       q    Type
REMARK                         _______ _______ _______ _____ _____    ______ ____
ROOT
ATOM      1  S   LIG    1       -1.853   2.992   2.386  0.00  0.00    -0.089 S 
ATOM      2  C   LIG    1       -2.742   1.749   3.369  0.00  0.00    +0.096 C 
ATOM      3  C   LIG    1       -2.070   0.393   3.147  0.00  0.00    +0.118 C 
ATOM      4  N   LIG    1       -1.345   0.497   1.901  0.00  0.00    -0.307 N 
ATOM      5  C   LIG    1       -0.507  -0.475   1.251  0.00  0.00    +0.138 C 
ATOM      6  C   LIG    1        0.172   0.417   0.190  0.00  0.00    +0.155 C 
ATOM      7  N   LIG    1       -0.147   1.802   0.506  0.00  0.00    -0.254 NA
ATOM      8  C   LIG    1       -0.990   1.732   1.446  0.00  0.00    +0.153 C 
ENDROOT
BRANCH   6   9
ATOM      9  C   LIG    1        1.681   0.182   0.044  0.00  0.00    -0.022 A 
ATOM     10  C   LIG    1        2.610   0.854   0.852  0.00  0.00    +0.006 A 
ATOM     11  C   LIG    1        3.973   0.608   0.707  0.00  0.00    +0.000 A 
ATOM     12  C   LIG    1        4.410  -0.313  -0.241  0.00  0.00    +0.000 A 
ATOM     13  C   LIG    1        3.497  -0.992  -1.044  0.00  0.00    +0.000 A 
ATOM     14  C   LIG    1        2.134  -0.747  -0.898  0.00  0.00    +0.006 A 
ENDBRANCH   6   9
TORSDOF 1
