REMARK  Name = DB00345
REMARK                            x       y       z     vdW  Elec       q    Type
REMARK                         _______ _______ _______ _____ _____    ______ ____
ROOT
ATOM      1  O   LIG    1       -0.329   2.043  -0.037  0.00  0.00    -0.270 OA
ATOM      2  C   LIG    1       -0.737   0.879  -0.041  0.00  0.00    +0.245 C 
ATOM      3  N   LIG    1        0.101  -0.179  -0.056  0.00  0.00    -0.301 N 
ATOM      4  H   LIG    1       -0.302  -1.102  -0.121  0.00  0.00    +0.150 HD
ENDROOT
BRANCH   2   5
ATOM      5  C   LIG    1       -2.222   0.575  -0.026  0.00  0.00    +0.037 A 
ATOM      6  C   LIG    1       -2.705  -0.742   0.060  0.00  0.00    +0.015 A 
ATOM      7  C   LIG    1       -4.074  -0.996   0.077  0.00  0.00    +0.023 A 
ATOM      8  C   LIG    1       -4.976   0.063   0.011  0.00  0.00    +0.025 A 
ATOM      9  C   LIG    1       -4.515   1.375  -0.075  0.00  0.00    +0.023 A 
ATOM     10  C   LIG    1       -3.146   1.628  -0.093  0.00  0.00    +0.015 A 
BRANCH   8  11
ATOM     11  N   LIG    1       -6.346  -0.190   0.030  0.00  0.00    -0.358 N 
ATOM     12  H   LIG    1       -6.994   0.583  -0.012  0.00  0.00    +0.142 HD
ATOM     13  H   LIG    1       -6.675  -1.143   0.100  0.00  0.00    +0.142 HD
ENDBRANCH   8  11
ENDBRANCH   2   5
BRANCH   3  14
ATOM     14  C   LIG    1        1.570  -0.119  -0.047  0.00  0.00    +0.225 C 
BRANCH  14  15
ATOM     15  C   LIG    1        2.102   0.212   1.362  0.00  0.00    +0.322 C 
ATOM     16  O   LIG    1        2.959   1.046   1.562  0.00  0.00    -0.249 OA
BRANCH  15  17
ATOM     17  O   LIG    1        1.523  -0.574   2.318  0.00  0.00    -0.480 OA
ATOM     18  H   LIG    1        1.854  -0.382   3.198  0.00  0.00    +0.295 HD
ENDBRANCH  15  17
ENDBRANCH  14  15
ENDBRANCH   3  14
TORSDOF 5
