REMARK  Name = DB00798
REMARK                            x       y       z     vdW  Elec       q    Type
REMARK                         _______ _______ _______ _____ _____    ______ ____
ROOT
ATOM      1  C   LIG    1       -0.021   0.250  -0.380  0.00  0.00    +0.169 C 
ATOM      2  C   LIG    1       -0.244  -0.637   0.874  0.00  0.00    +0.084 C 
ATOM      3  C   LIG    1       -1.743  -0.815   1.170  0.00  0.00    +0.042 C 
ATOM      4  C   LIG    1       -2.489  -1.448  -0.018  0.00  0.00    +0.084 C 
ATOM      5  C   LIG    1       -2.327  -0.567  -1.285  0.00  0.00    +0.169 C 
ATOM      6  C   LIG    1       -0.838  -0.257  -1.608  0.00  0.00    +0.175 C 
ENDROOT
BRANCH   2   7
ATOM      7  N   LIG    1        0.476  -0.167   2.046  0.00  0.00    -0.325 NA
ATOM      8  H   LIG    1        1.461  -0.102   1.830  0.00  0.00    +0.119 HD
ATOM      9  H   LIG    1        0.386  -0.838   2.795  0.00  0.00    +0.119 HD
ENDBRANCH   2   7
BRANCH   4  10
ATOM     10  N   LIG    1       -3.872  -1.739   0.322  0.00  0.00    -0.325 NA
ATOM     11  H   LIG    1       -4.348  -0.880   0.559  0.00  0.00    +0.119 HD
ATOM     12  H   LIG    1       -3.901  -2.317   1.149  0.00  0.00    +0.119 HD
ENDBRANCH   4  10
BRANCH   6  13
ATOM     13  O   LIG    1       -0.802   0.687  -2.660  0.00  0.00    -0.387 OA
ATOM     14  H   LIG    1       -1.224   1.496  -2.360  0.00  0.00    +0.210 HD
ENDBRANCH   6  13
BRANCH   5  15
ATOM     15  O   LIG    1       -2.911  -1.240  -2.409  0.00  0.00    -0.341 OA
BRANCH  15  16
ATOM     16  C   LIG    1       -4.180  -0.803  -2.818  0.00  0.00    +0.281 C 
ATOM     17  O   LIG    1       -4.103   0.431  -3.491  0.00  0.00    -0.346 OA
ATOM     18  C   LIG    1       -3.482   0.382  -4.781  0.00  0.00    +0.199 C 
ATOM     19  C   LIG    1       -4.117  -0.633  -5.755  0.00  0.00    +0.104 C 
ATOM     20  C   LIG    1       -3.346  -0.622  -7.094  0.00  0.00    +0.045 C 
ATOM     21  C   LIG    1       -4.154  -2.028  -5.064  0.00  0.00    +0.121 C 
ATOM     22  C   LIG    1       -4.838  -1.903  -3.676  0.00  0.00    +0.190 C 
BRANCH  21  23
ATOM     23  N   LIG    1       -4.748  -3.097  -5.877  0.00  0.00    -0.311 NA
ATOM     24  H   LIG    1       -5.326  -3.685  -5.292  0.00  0.00    +0.122 HD
ATOM     25  C   LIG    1       -3.768  -3.903  -6.592  0.00  0.00    +0.101 C 
ENDBRANCH  21  23
BRANCH  19  26
ATOM     26  O   LIG    1       -5.430  -0.183  -6.058  0.00  0.00    -0.385 OA
ATOM     27  H   LIG    1       -5.786  -0.743  -6.751  0.00  0.00    +0.210 HD
ENDBRANCH  19  26
BRANCH  22  28
ATOM     28  O   LIG    1       -4.854  -3.130  -2.963  0.00  0.00    -0.385 OA
ATOM     29  H   LIG    1       -5.363  -3.008  -2.158  0.00  0.00    +0.210 HD
ENDBRANCH  22  28
ENDBRANCH  15  16
ENDBRANCH   5  15
BRANCH   1  30
ATOM     30  O   LIG    1        1.399   0.270  -0.600  0.00  0.00    -0.342 OA
BRANCH  30  31
ATOM     31  C   LIG    1        1.965   1.298  -1.371  0.00  0.00    +0.268 C 
ATOM     32  C   LIG    1        3.492   1.133  -1.377  0.00  0.00    +0.107 C 
ATOM     33  C   LIG    1        4.051   1.420   0.025  0.00  0.00    +0.026 C 
ATOM     34  C   LIG    1        3.557   2.768   0.563  0.00  0.00    +0.035 C 
ATOM     35  C   LIG    1        2.024   2.931   0.407  0.00  0.00    +0.138 C 
ATOM     36  O   LIG    1        1.618   2.588  -0.928  0.00  0.00    -0.345 OA
BRANCH  32  37
ATOM     37  N   LIG    1        3.949  -0.129  -1.932  0.00  0.00    -0.323 NA
ATOM     38  H   LIG    1        3.686  -0.885  -1.317  0.00  0.00    +0.119 HD
ATOM     39  H   LIG    1        4.958  -0.133  -1.988  0.00  0.00    +0.119 HD
ENDBRANCH  32  37
BRANCH  35  40
ATOM     40  C   LIG    1        1.500   4.351   0.784  0.00  0.00    +0.079 C 
ATOM     41  C   LIG    1        1.994   4.831   2.166  0.00  0.00    +0.026 C 
BRANCH  40  42
ATOM     42  N   LIG    1        0.037   4.427   0.841  0.00  0.00    -0.314 NA
ATOM     43  H   LIG    1       -0.258   5.218   1.395  0.00  0.00    +0.122 HD
ATOM     44  C   LIG    1       -0.637   4.422  -0.450  0.00  0.00    +0.101 C 
ENDBRANCH  40  42
ENDBRANCH  35  40
ENDBRANCH  30  31
ENDBRANCH   1  30
TORSDOF 13
