REMARK  Name = DB00119
REMARK                            x       y       z     vdW  Elec       q    Type
REMARK                         _______ _______ _______ _____ _____    ______ ____
ROOT
ATOM      1  C   LIG    1       -0.614  -1.412   0.153  0.00  0.00    +0.372 C 
ATOM      2  O   LIG    1       -0.075  -2.357  -0.422  0.00  0.00    -0.242 OA
ENDROOT
BRANCH   1   3
ATOM      3  C   LIG    1        0.114  -0.039   0.407  0.00  0.00    +0.236 C 
ATOM      4  C   LIG    1        1.544   0.031  -0.127  0.00  0.00    +0.099 C 
ATOM      5  O   LIG    1       -0.429   0.900   0.990  0.00  0.00    -0.285 OA
ENDBRANCH   1   3
BRANCH   1   6
ATOM      6  O   LIG    1       -1.888  -1.403   0.645  0.00  0.00    -0.475 OA
ATOM      7  H   LIG    1       -2.344  -2.235   0.497  0.00  0.00    +0.295 HD
ENDBRANCH   1   6
TORSDOF 2
