REMARK  Name = DB00349
REMARK                            x       y       z     vdW  Elec       q    Type
REMARK                         _______ _______ _______ _____ _____    ______ ____
ROOT
ATOM      1 CL   LIG    1       -0.091  -4.583   2.517  0.00  0.00    -0.083 Cl
ATOM      2  C   LIG    1       -0.741  -3.438   1.401  0.00  0.00    +0.043 A 
ATOM      3  C   LIG    1       -1.792  -3.793   0.569  0.00  0.00    +0.022 A 
ATOM      4  C   LIG    1       -2.313  -2.859  -0.319  0.00  0.00    +0.027 A 
ATOM      5  C   LIG    1       -1.831  -1.539  -0.386  0.00  0.00    +0.058 A 
ATOM      6  C   LIG    1       -0.698  -1.204   0.414  0.00  0.00    +0.064 A 
ATOM      7  N   LIG    1       -0.052   0.054   0.294  0.00  0.00    -0.238 N 
ATOM      8  C   LIG    1       -0.653   1.280   0.376  0.00  0.00    +0.233 C 
ATOM      9  C   LIG    1       -2.187   1.233   0.273  0.00  0.00    +0.192 C 
ATOM     10  C   LIG    1       -2.662   0.693  -1.092  0.00  0.00    +0.228 C 
ATOM     11  O   LIG    1       -3.255   1.445  -1.871  0.00  0.00    -0.275 OA
ATOM     12  O   LIG    1       -0.070   2.363   0.477  0.00  0.00    -0.274 OA
ATOM     13  N   LIG    1       -2.372  -0.624  -1.333  0.00  0.00    -0.272 N 
ATOM     14  C   LIG    1       -2.846  -1.136  -2.630  0.00  0.00    +0.138 C 
ATOM     15  C   LIG    1       -0.202  -2.160   1.318  0.00  0.00    +0.045 A 
ENDROOT
BRANCH   7  16
ATOM     16  C   LIG    1        1.335   0.039   0.037  0.00  0.00    +0.041 A 
ATOM     17  C   LIG    1        1.787  -0.240  -1.258  0.00  0.00    +0.024 A 
ATOM     18  C   LIG    1        3.154  -0.273  -1.519  0.00  0.00    +0.002 A 
ATOM     19  C   LIG    1        4.061  -0.033  -0.489  0.00  0.00    +0.000 A 
ATOM     20  C   LIG    1        3.616   0.240   0.803  0.00  0.00    +0.002 A 
ATOM     21  C   LIG    1        2.251   0.275   1.071  0.00  0.00    +0.024 A 
ENDBRANCH   7  16
TORSDOF 1
