REMARK  Name = DB00830
REMARK                            x       y       z     vdW  Elec       q    Type
REMARK                         _______ _______ _______ _____ _____    ______ ____
ROOT
ATOM      1  O   LIG    1       -1.983  -0.731   1.158  0.00  0.00    -0.369 OA
ATOM      2  C   LIG    1       -2.475   0.596   1.289  0.00  0.00    +0.176 C 
ATOM      3  C   LIG    1       -1.968   1.457   0.118  0.00  0.00    +0.109 C 
ATOM      4  N   LIG    1       -0.512   1.412   0.012  0.00  0.00    -0.309 NA
ATOM      5  H   LIG    1       -0.217   1.911  -0.815  0.00  0.00    +0.122 HD
ATOM      6  C   LIG    1        0.030   0.050  -0.003  0.00  0.00    +0.084 C 
ATOM      7  C   LIG    1        1.570   0.066  -0.009  0.00  0.00    +0.027 C 
ATOM      8  C   LIG    1       -0.558  -0.805   1.165  0.00  0.00    +0.165 C 
ENDROOT
BRANCH   8   9
ATOM      9  C   LIG    1       -0.123  -2.269   1.106  0.00  0.00    -0.017 A 
ATOM     10  C   LIG    1       -0.597  -3.100   0.085  0.00  0.00    +0.006 A 
ATOM     11  C   LIG    1       -0.196  -4.432   0.026  0.00  0.00    +0.000 A 
ATOM     12  C   LIG    1        0.677  -4.932   0.989  0.00  0.00    +0.000 A 
ATOM     13  C   LIG    1        1.153  -4.113   2.010  0.00  0.00    +0.000 A 
ATOM     14  C   LIG    1        0.753  -2.780   2.069  0.00  0.00    +0.006 A 
ENDBRANCH   8   9
TORSDOF 1
