REMARK  Name = DB00535
REMARK                            x       y       z     vdW  Elec       q    Type
REMARK                         _______ _______ _______ _____ _____    ______ ____
ROOT
ATOM      1  N   LIG    1       -0.637  -1.093   0.152  0.00  0.00    -0.296 N 
ATOM      2  H   LIG    1       -0.252  -1.652   0.899  0.00  0.00    +0.150 HD
ATOM      3  C   LIG    1        0.158  -0.196  -0.460  0.00  0.00    +0.268 C 
ATOM      4  O   LIG    1       -0.218   0.547  -1.369  0.00  0.00    -0.268 OA
ENDROOT
BRANCH   1  11
ATOM      5  S   LIG    1       -1.092  -2.929  -2.471  0.00  0.00    -0.131 S 
ATOM      6  CG2 LIG    1       -2.149  -4.299  -3.059  0.00  0.00    +0.108 C 
ATOM      7  CB  LIG    1       -2.723  -5.179  -1.922  0.00  0.00    -0.010 C 
ATOM      8  CA  LIG    1       -2.967  -4.624  -0.688  0.00  0.00    +0.126 C 
ATOM      9  N   LIG    1       -2.742  -3.297  -0.405  0.00  0.00    -0.249 N 
ATOM     10  C   LIG    1       -2.667  -2.447   0.707  0.00  0.00    +0.244 C 
ATOM     11  CA  LIG    1       -2.048  -1.320  -0.170  0.00  0.00    +0.191 C 
ATOM     12  O   LIG    1       -2.938  -2.571   1.900  0.00  0.00    -0.273 OA
ATOM     13  C   LIG    1       -2.371  -2.249  -1.376  0.00  0.00    +0.169 C 
BRANCH   7  14
ATOM     14  CG1 LIG    1       -2.930  -6.609  -2.213  0.00  0.00    -0.001 C 
ATOM     15  CD1 LIG    1       -2.925  -7.176  -3.433  0.00  0.00    +0.009 C 
ENDBRANCH   7  14
BRANCH   8  16
ATOM     16  C   LIG    1       -3.507  -5.415   0.410  0.00  0.00    +0.352 C 
ATOM     17  OXT LIG    1       -2.906  -5.644   1.459  0.00  0.00    -0.244 OA
BRANCH  16  18
ATOM     18  O   LIG    1       -4.784  -5.833   0.164  0.00  0.00    -0.476 OA
ATOM     19  H   LIG    1       -5.149  -6.335   0.895  0.00  0.00    +0.295 HD
ENDBRANCH  16  18
ENDBRANCH   8  16
ENDBRANCH   1  11
BRANCH   3  20
ATOM     20  C   LIG    1        1.538  -0.168   0.072  0.00  0.00    +0.190 C 
ATOM     21  N   LIG    1        2.028   0.878   0.651  0.00  0.00    -0.080 NA
BRANCH  20  22
ATOM     22  C   LIG    1        2.392  -1.378  -0.060  0.00  0.00    +0.107 A 
ATOM     23  C   LIG    1        3.636  -1.536   0.567  0.00  0.00    +0.078 A 
ATOM     24  S   LIG    1        4.316  -3.081   0.147  0.00  0.00    -0.060 S 
ATOM     25  C   LIG    1        2.912  -3.367  -0.823  0.00  0.00    +0.156 A 
ATOM     26  N   LIG    1        2.032  -2.401  -0.827  0.00  0.00    -0.223 NA
BRANCH  25  27
ATOM     27  N   LIG    1        2.782  -4.535  -1.515  0.00  0.00    -0.338 N 
ATOM     28  H   LIG    1        3.487  -5.256  -1.478  0.00  0.00    +0.144 HD
ATOM     29  H   LIG    1        1.970  -4.719  -2.087  0.00  0.00    +0.144 HD
ENDBRANCH  25  27
ENDBRANCH  20  22
BRANCH  21  30
ATOM     30  O   LIG    1        1.190   2.009   0.811  0.00  0.00    -0.409 OA
ATOM     31  H   LIG    1        1.775   2.633   1.248  0.00  0.00    +0.328 HD
ENDBRANCH  21  30
ENDBRANCH   3  20
TORSDOF 8
