REMARK  Name = DB00455
REMARK                            x       y       z     vdW  Elec       q    Type
REMARK                         _______ _______ _______ _____ _____    ______ ____
ROOT
ATOM      1 CL   LIG    1       -7.878   7.900   1.242  0.00  0.00    -0.084 Cl
ATOM      2  C   LIG    1       -7.200   6.321   1.402  0.00  0.00    +0.041 A 
ATOM      3  C   LIG    1       -7.423   5.362   0.416  0.00  0.00    +0.020 A 
ATOM      4  C   LIG    1       -6.875   4.088   0.550  0.00  0.00    +0.010 A 
ATOM      5  C   LIG    1       -6.095   3.764   1.666  0.00  0.00    -0.013 A 
ATOM      6  C   LIG    1       -5.869   4.727   2.664  0.00  0.00    -0.038 A 
ATOM      7  C   LIG    1       -5.037   4.339   3.880  0.00  0.00    +0.040 C 
ATOM      8  C   LIG    1       -5.650   3.261   4.802  0.00  0.00    +0.042 C 
ATOM      9  C   LIG    1       -6.235   1.964   4.223  0.00  0.00    -0.021 A 
ATOM     10  C   LIG    1       -6.900   1.085   5.090  0.00  0.00    +0.007 A 
ATOM     11  C   LIG    1       -7.459  -0.102   4.620  0.00  0.00    +0.020 A 
ATOM     12  C   LIG    1       -7.343  -0.392   3.265  0.00  0.00    +0.111 A 
ATOM     13  N   LIG    1       -6.704   0.426   2.397  0.00  0.00    -0.255 NA
ATOM     14  C   LIG    1       -6.136   1.574   2.866  0.00  0.00    +0.075 A 
ATOM     15  C   LIG    1       -5.518   2.411   1.811  0.00  0.00    +0.007 C 
ATOM     16  C   LIG    1       -4.490   1.986   1.024  0.00  0.00    -0.057 C 
ATOM     17  C   LIG    1       -3.820   2.812  -0.075  0.00  0.00    +0.050 C 
ATOM     18  C   LIG    1       -2.332   3.051   0.259  0.00  0.00    +0.115 C 
ATOM     19  N   LIG    1       -1.663   1.763   0.536  0.00  0.00    -0.267 N 
ATOM     20  C   LIG    1       -0.445   1.485  -0.115  0.00  0.00    +0.403 C 
ATOM     21  O   LIG    1        0.115   2.231  -0.925  0.00  0.00    -0.226 OA
ATOM     22  C   LIG    1       -2.298   0.809   1.476  0.00  0.00    +0.115 C 
ATOM     23  C   LIG    1       -3.791   0.629   1.124  0.00  0.00    +0.050 C 
ATOM     24  C   LIG    1       -6.429   6.001   2.520  0.00  0.00    +0.024 A 
ENDROOT
BRANCH  20  25
ATOM     25  O   LIG    1        0.075   0.286   0.260  0.00  0.00    -0.451 OA
BRANCH  25  26
ATOM     26  C   LIG    1        1.308  -0.183  -0.272  0.00  0.00    +0.230 C 
ATOM     27  C   LIG    1        1.631  -1.554   0.331  0.00  0.00    +0.048 C 
ENDBRANCH  25  26
ENDBRANCH  20  25
TORSDOF 2
