REMARK  Name = DB00256
REMARK                            x       y       z     vdW  Elec       q    Type
REMARK                         _______ _______ _______ _____ _____    ______ ____
ROOT
ATOM      1  C   UNK    1       -4.591  -4.737   5.719  0.00  0.00    +0.004 A 
ATOM      2  C   UNK    1       -3.800  -3.688   5.279  0.00  0.00    +0.007 A 
ATOM      3  C   UNK    1       -3.737  -3.315   3.923  0.00  0.00    -0.001 A 
ATOM      4  C   UNK    1       -2.828  -2.158   3.459  0.00  0.00    +0.096 C 
ATOM      5  C   UNK    1       -2.527  -1.132   4.590  0.00  0.00    +0.047 C 
ATOM      6  C   UNK    1       -3.511  -1.448   2.241  0.00  0.00    +0.062 C 
ATOM      7  C   UNK    1       -2.714  -0.220   1.724  0.00  0.00    +0.020 C 
ATOM      8  C   UNK    1       -3.152   0.279   0.328  0.00  0.00    +0.061 C 
ATOM      9  C   UNK    1       -2.440   1.622  -0.044  0.00  0.00    +0.129 C 
ATOM     10  C   UNK    1       -0.950   1.277  -0.244  0.00  0.00    +0.127 C 
ATOM     11  C   UNK    1       -0.469   0.097  -0.737  0.00  0.00    +0.121 C 
ATOM     12  C   UNK    1       -1.424  -0.968  -1.167  0.00  0.00    +0.211 C 
ATOM     13  O   UNK    1       -1.046  -1.920  -1.857  0.00  0.00    -0.288 OA
ATOM     14  C   UNK    1       -2.921  -0.833  -0.747  0.00  0.00    +0.190 C 
ATOM     15  C   UNK    1       -3.482  -2.180  -0.207  0.00  0.00    +0.141 C 
ATOM     16  C   UNK    1       -3.777  -2.456   1.101  0.00  0.00    +0.047 C 
ATOM     17  C   UNK    1       -4.448  -3.732   1.491  0.00  0.00    +0.197 C 
ATOM     18  O   UNK    1       -4.981  -4.479   0.666  0.00  0.00    -0.287 OA
ATOM     19  C   UNK    1       -4.501  -4.053   2.979  0.00  0.00    +0.069 A 
ATOM     20  C   UNK    1       -5.304  -5.127   3.454  0.00  0.00    +0.128 A 
ATOM     21  C   UNK    1       -5.343  -5.453   4.807  0.00  0.00    +0.046 A 
ENDROOT
BRANCH  11  22
ATOM     22  C   UNK    1        0.975  -0.098  -0.830  0.00  0.00    +0.252 C 
ATOM     23  O   UNK    1        1.724   0.750  -1.321  0.00  0.00    -0.270 OA
ATOM     24  N   UNK    1        1.424  -1.272  -0.339  0.00  0.00    -0.299 N 
ATOM     25  H   UNK    1        0.755  -1.891   0.097  0.00  0.00    +0.150 HD
BRANCH  24  26
ATOM     26  C   UNK    1        2.823  -1.696  -0.274  0.00  0.00    +0.189 C 
BRANCH  26  27
ATOM     27  N   UNK    1        3.349  -2.227  -1.524  0.00  0.00    -0.301 NA
ATOM     28  H   UNK    1        4.348  -2.098  -1.603  0.00  0.00    +0.123 HD
BRANCH  27  29
ATOM     29  C   UNK    1        2.919  -3.594  -1.790  0.00  0.00    +0.082 C 
BRANCH  29  30
ATOM     30  C   UNK    1        3.499  -4.106  -3.124  0.00  0.00    +0.015 C 
BRANCH  30  31
ATOM     31  C   UNK    1        5.040  -4.102  -3.242  0.00  0.00    +0.003 C 
BRANCH  31  32
ATOM     32  C   UNK    1        5.757  -4.973  -2.189  0.00  0.00    +0.030 C 
BRANCH  32  33
ATOM     33  C   UNK    1        7.296  -5.005  -2.364  0.00  0.00    +0.161 C 
BRANCH  33  34
ATOM     34  N   UNK    1        7.737  -5.681  -3.596  0.00  0.00    -0.318 NA
ATOM     35  H   UNK    1        8.725  -5.539  -3.753  0.00  0.00    +0.119 HD
ATOM     36  H   UNK    1        7.256  -5.314  -4.404  0.00  0.00    +0.119 HD
ENDBRANCH  33  34
BRANCH  33  37
ATOM     37  C   UNK    1        8.009  -5.700  -1.189  0.00  0.00    +0.322 C 
ATOM     38  O   UNK    1        8.934  -5.162  -0.583  0.00  0.00    -0.249 OA
BRANCH  37  39
ATOM     39  O   UNK    1        7.508  -6.944  -0.924  0.00  0.00    -0.480 OA
ATOM     40  H   UNK    1        7.962  -7.371  -0.195  0.00  0.00    +0.295 HD
ENDBRANCH  37  39
ENDBRANCH  33  37
ENDBRANCH  32  33
ENDBRANCH  31  32
ENDBRANCH  30  31
ENDBRANCH  29  30
ENDBRANCH  27  29
ENDBRANCH  26  27
ENDBRANCH  24  26
ENDBRANCH  11  22
BRANCH   9  41
ATOM     41  N   UNK    1       -3.024   2.370  -1.185  0.00  0.00    -0.299 NA
ATOM     42  C   UNK    1       -2.242   3.537  -1.603  0.00  0.00    +0.105 C 
ATOM     43  C   UNK    1       -4.379   2.841  -0.888  0.00  0.00    +0.105 C 
ENDBRANCH   9  41
BRANCH   4  44
ATOM     44  O   UNK    1       -1.553  -2.657   3.083  0.00  0.00    -0.384 OA
ATOM     45  H   UNK    1       -1.108  -2.977   3.870  0.00  0.00    +0.211 HD
ENDBRANCH   4  44
BRANCH  10  46
ATOM     46  O   UNK    1       -0.187   2.294   0.258  0.00  0.00    -0.509 OA
ATOM     47  H   UNK    1       -0.756   3.016   0.534  0.00  0.00    +0.292 HD
ENDBRANCH  10  46
BRANCH  14  48
ATOM     48  O   UNK    1       -3.639  -0.465  -1.922  0.00  0.00    -0.373 OA
ATOM     49  H   UNK    1       -3.383   0.428  -2.166  0.00  0.00    +0.211 HD
ENDBRANCH  14  48
BRANCH  15  50
ATOM     50  O   UNK    1       -3.653  -3.062  -1.242  0.00  0.00    -0.507 OA
ATOM     51  H   UNK    1       -3.385  -2.644  -2.063  0.00  0.00    +0.292 HD
ENDBRANCH  15  50
BRANCH  20  52
ATOM     52  O   UNK    1       -6.097  -5.903   2.644  0.00  0.00    -0.506 OA
ATOM     53  H   UNK    1       -6.575  -6.581   3.126  0.00  0.00    +0.292 HD
ENDBRANCH  20  52
TORSDOF 17
