REMARK  Name = DB00902
REMARK                            x       y       z     vdW  Elec       q    Type
REMARK                         _______ _______ _______ _____ _____    ______ ____
ROOT
ATOM      1  S   LIG    1        4.181   3.550   0.002  0.00  0.00    -0.086 S 
ATOM      2  C   LIG    1        3.183   3.020  -1.342  0.00  0.00    +0.034 A 
ATOM      3  C   LIG    1        3.297   3.711  -2.551  0.00  0.00    +0.017 A 
ATOM      4  C   LIG    1        2.552   3.324  -3.659  0.00  0.00    +0.001 A 
ATOM      5  C   LIG    1        1.694   2.236  -3.561  0.00  0.00    +0.002 A 
ATOM      6  C   LIG    1        1.597   1.533  -2.362  0.00  0.00    +0.024 A 
ATOM      7  C   LIG    1        2.368   1.870  -1.234  0.00  0.00    +0.048 A 
ATOM      8  N   LIG    1        2.202   1.221   0.011  0.00  0.00    -0.298 N 
ATOM      9  C   LIG    1        2.308   1.931   1.232  0.00  0.00    +0.048 A 
ATOM     10  C   LIG    1        1.484   1.650   2.341  0.00  0.00    +0.024 A 
ATOM     11  C   LIG    1        1.531   2.411   3.507  0.00  0.00    +0.002 A 
ATOM     12  C   LIG    1        2.388   3.501   3.591  0.00  0.00    +0.001 A 
ATOM     13  C   LIG    1        3.183   3.833   2.500  0.00  0.00    +0.017 A 
ATOM     14  C   LIG    1        3.121   3.084   1.321  0.00  0.00    +0.034 A 
ENDROOT
BRANCH   8  15
ATOM     15  C   LIG    1        1.623  -0.144   0.035  0.00  0.00    +0.116 C 
BRANCH  15  16
ATOM     16  C   LIG    1        0.066  -0.257   0.141  0.00  0.00    +0.022 C 
ATOM     17  C   LIG    1       -0.632  -0.827  -1.111  0.00  0.00    +0.089 C 
ATOM     18  N   LIG    1       -1.775  -1.591  -0.634  0.00  0.00    -0.305 NA
ATOM     19  C   LIG    1       -2.317  -2.494  -1.641  0.00  0.00    +0.104 C 
ATOM     20  C   LIG    1       -1.240  -2.287   0.522  0.00  0.00    +0.084 C 
ATOM     21  C   LIG    1       -0.401  -1.234   1.244  0.00  0.00    +0.021 C 
ENDBRANCH  15  16
ENDBRANCH   8  15
TORSDOF 2
