REMARK  Name = DB00671
REMARK                            x       y       z     vdW  Elec       q    Type
REMARK                         _______ _______ _______ _____ _____    ______ ____
ROOT
ATOM      1  N   LIG    1       -0.662  -0.995  -0.315  0.00  0.00    -0.296 N 
ATOM      2  H   LIG    1       -0.280  -1.483   0.482  0.00  0.00    +0.150 HD
ATOM      3  C   LIG    1        0.144  -0.179  -1.019  0.00  0.00    +0.268 C 
ATOM      4  O   LIG    1       -0.225   0.473  -1.998  0.00  0.00    -0.268 OA
ENDROOT
BRANCH   1  12
ATOM      5  S   LIG    1       -1.108  -3.154  -2.672  0.00  0.00    -0.131 S 
ATOM      6  CG2 LIG    1       -2.156  -4.598  -3.063  0.00  0.00    +0.108 C 
ATOM      7  CB  LIG    1       -2.722  -5.315  -1.814  0.00  0.00    -0.010 C 
ATOM      8  CA  LIG    1       -2.981  -4.593  -0.673  0.00  0.00    +0.126 C 
ATOM      9  N   LIG    1       -2.767  -3.237  -0.580  0.00  0.00    -0.249 N 
ATOM     10  C   LIG    1       -2.713  -2.235   0.399  0.00  0.00    +0.244 C 
ATOM     11  O   LIG    1       -3.008  -2.187   1.592  0.00  0.00    -0.273 OA
ATOM     12  CA  LIG    1       -2.073  -1.247  -0.618  0.00  0.00    +0.191 C 
ATOM     13  C   LIG    1       -2.392  -2.333  -1.686  0.00  0.00    +0.169 C 
BRANCH   7  14
ATOM     14  CG1 LIG    1       -2.909  -6.775  -1.898  0.00  0.00    -0.001 C 
ATOM     15  CD1 LIG    1       -2.883  -7.513  -3.022  0.00  0.00    +0.009 C 
ENDBRANCH   7  14
BRANCH   8  16
ATOM     16  C   LIG    1       -3.519  -5.226   0.524  0.00  0.00    +0.352 C 
ATOM     17  OXT LIG    1       -2.927  -5.289   1.600  0.00  0.00    -0.244 OA
BRANCH  16  18
ATOM     18  O   LIG    1       -4.787  -5.694   0.331  0.00  0.00    -0.476 OA
ATOM     19  H   LIG    1       -5.153  -6.091   1.124  0.00  0.00    +0.295 HD
ENDBRANCH  16  18
ENDBRANCH   8  16
ENDBRANCH   1  12
BRANCH   3  20
ATOM     20  C   LIG    1        1.524  -0.119  -0.499  0.00  0.00    +0.190 C 
ATOM     21  N   LIG    1        2.024   0.988  -0.068  0.00  0.00    -0.077 NA
BRANCH  20  22
ATOM     22  C   LIG    1        2.356  -1.349  -0.470  0.00  0.00    +0.107 A 
ATOM     23  N   LIG    1        1.977  -2.455  -1.100  0.00  0.00    -0.223 NA
ATOM     24  C   LIG    1        2.841  -3.427  -0.971  0.00  0.00    +0.156 A 
ATOM     25  S   LIG    1        4.251  -3.043  -0.044  0.00  0.00    -0.060 S 
ATOM     26  C   LIG    1        3.597  -1.446   0.174  0.00  0.00    +0.078 A 
BRANCH  24  27
ATOM     27  N   LIG    1        2.692  -4.672  -1.510  0.00  0.00    -0.338 N 
ATOM     28  H   LIG    1        3.391  -5.391  -1.389  0.00  0.00    +0.144 HD
ATOM     29  H   LIG    1        1.876  -4.915  -2.054  0.00  0.00    +0.144 HD
ENDBRANCH  24  27
ENDBRANCH  20  22
BRANCH  21  30
ATOM     30  O   LIG    1        1.157   2.107  -0.099  0.00  0.00    -0.382 OA
BRANCH  30  31
ATOM     31  C   LIG    1        1.845   3.245   0.408  0.00  0.00    +0.382 C 
BRANCH  31  32
ATOM     32  C   LIG    1        0.974   4.503   0.269  0.00  0.00    +0.345 C 
ATOM     33  O   LIG    1        1.332   5.593   0.708  0.00  0.00    -0.247 OA
BRANCH  32  34
ATOM     34  O   LIG    1       -0.206   4.289  -0.385  0.00  0.00    -0.478 OA
ATOM     35  H   LIG    1       -0.731   5.088  -0.465  0.00  0.00    +0.295 HD
ENDBRANCH  32  34
ENDBRANCH  31  32
ENDBRANCH  30  31
ENDBRANCH  21  30
ENDBRANCH   3  20
TORSDOF 11
