REMARK  Name = DB00165
REMARK                            x       y       z     vdW  Elec       q    Type
REMARK                         _______ _______ _______ _____ _____    ______ ____
ROOT
ATOM      1  C   LIG    1       -0.708   1.150   0.040  0.00  0.00    +0.117 A 
ATOM      2  N   LIG    1       -2.060   1.217   0.016  0.00  0.00    -0.256 NA
ATOM      3  C   LIG    1       -2.756   0.055  -0.017  0.00  0.00    +0.080 A 
ATOM      4  C   LIG    1       -4.269   0.230  -0.033  0.00  0.00    +0.069 C 
ATOM      5  C   LIG    1       -2.131  -1.202  -0.030  0.00  0.00    +0.143 A 
ATOM      6  C   LIG    1       -0.724  -1.261  -0.012  0.00  0.00    +0.028 A 
ATOM      7  C   LIG    1        0.006  -0.053   0.030  0.00  0.00    +0.005 A 
ENDROOT
BRANCH   5   8
ATOM      8  O   LIG    1       -2.881  -2.353  -0.056  0.00  0.00    -0.505 OA
ATOM      9  H   LIG    1       -2.347  -3.145   0.044  0.00  0.00    +0.292 HD
ENDBRANCH   5   8
BRANCH   6  10
ATOM     10  C   LIG    1       -0.024  -2.624  -0.037  0.00  0.00    +0.195 C 
BRANCH  10  11
ATOM     11  O   LIG    1       -0.103  -3.297   1.202  0.00  0.00    -0.390 OA
ATOM     12  H   LIG    1        0.443  -4.085   1.158  0.00  0.00    +0.210 HD
ENDBRANCH  10  11
ENDBRANCH   6  10
BRANCH   7  13
ATOM     13  C   LIG    1        1.532   0.001   0.067  0.00  0.00    +0.193 C 
BRANCH  13  14
ATOM     14  O   LIG    1        2.070  -0.518   1.265  0.00  0.00    -0.390 OA
ATOM     15  H   LIG    1        3.025  -0.417   1.241  0.00  0.00    +0.210 HD
ENDBRANCH  13  14
ENDBRANCH   7  13
TORSDOF 5
