REMARK  Name = DB00789
REMARK                            x       y       z     vdW  Elec       q    Type
REMARK                         _______ _______ _______ _____ _____    ______ ____
ROOT
ATOM      1  N   LIG    1        1.082  -0.194  -0.574  0.00  0.00    -0.290 NA
ENDROOT
BRANCH   1   2
ATOM      2  C   LIG    1       -0.217  -0.381  -1.243  0.00  0.00    +0.100 C 
BRANCH   2   3
ATOM      3  C   LIG    1       -1.353   0.564  -0.785  0.00  0.00    +0.101 C 
BRANCH   3   4
ATOM      4  N   LIG    1       -1.062   2.003  -0.866  0.00  0.00    -0.281 NA
BRANCH   4   5
ATOM      5  C   LIG    1       -0.293   2.560  -1.989  0.00  0.00    +0.206 C 
BRANCH   5   6
ATOM      6  C   LIG    1       -1.160   2.736  -3.241  0.00  0.00    +0.319 C 
ATOM      7  O   LIG    1       -1.481   1.804  -3.976  0.00  0.00    -0.250 OA
BRANCH   6   8
ATOM      8  O   LIG    1       -1.510   4.040  -3.433  0.00  0.00    -0.480 OA
ATOM      9  H   LIG    1       -2.073   4.154  -4.202  0.00  0.00    +0.295 HD
ENDBRANCH   6   8
ENDBRANCH   5   6
ENDBRANCH   4   5
BRANCH   4  10
ATOM     10  C   LIG    1       -1.833   2.926  -0.013  0.00  0.00    +0.206 C 
BRANCH  10  11
ATOM     11  C   LIG    1       -3.318   3.179  -0.398  0.00  0.00    +0.319 C 
ATOM     12  O   LIG    1       -3.898   4.071   0.262  0.00  0.00    -0.250 OA
BRANCH  11  13
ATOM     13  O   LIG    1       -3.879   2.515  -1.301  0.00  0.00    -0.480 OA
ATOM     14  H   LIG    1       -3.400   1.857  -1.766  0.00  0.00    +0.295 HD
ENDBRANCH  11  13
ENDBRANCH  10  11
ENDBRANCH   4  10
ENDBRANCH   3   4
ENDBRANCH   2   3
ENDBRANCH   1   2
BRANCH   1  15
ATOM     15  C   LIG    1        1.108  -0.690   0.818  0.00  0.00    +0.205 C 
BRANCH  15  16
ATOM     16  C   LIG    1        0.652   0.348   1.872  0.00  0.00    +0.319 C 
ATOM     17  O   LIG    1       -0.037  -0.086   2.823  0.00  0.00    -0.250 OA
BRANCH  16  18
ATOM     18  O   LIG    1        1.044   1.535   1.771  0.00  0.00    -0.480 OA
ATOM     19  H   LIG    1        0.774   2.173   2.402  0.00  0.00    +0.295 HD
ENDBRANCH  16  18
ENDBRANCH  15  16
ENDBRANCH   1  15
BRANCH   1  20
ATOM     20  C   LIG    1        2.209  -0.714  -1.365  0.00  0.00    +0.100 C 
BRANCH  20  21
ATOM     21  C   LIG    1        2.358  -2.257  -1.519  0.00  0.00    +0.101 C 
BRANCH  21  22
ATOM     22  N   LIG    1        1.230  -2.963  -2.159  0.00  0.00    -0.281 NA
BRANCH  22  23
ATOM     23  C   LIG    1        1.492  -4.418  -2.024  0.00  0.00    +0.206 C 
BRANCH  23  24
ATOM     24  C   LIG    1        1.191  -5.028  -0.627  0.00  0.00    +0.319 C 
ATOM     25  O   LIG    1        1.686  -6.158  -0.412  0.00  0.00    -0.250 OA
BRANCH  24  26
ATOM     26  O   LIG    1        0.465  -4.416   0.192  0.00  0.00    -0.480 OA
ATOM     27  H   LIG    1        0.289  -4.791   1.033  0.00  0.00    +0.295 HD
ENDBRANCH  24  26
ENDBRANCH  23  24
ENDBRANCH  22  23
BRANCH  22  28
ATOM     28  C   LIG    1        1.171  -2.599  -3.589  0.00  0.00    +0.206 C 
BRANCH  28  29
ATOM     29  C   LIG    1       -0.172  -2.983  -4.242  0.00  0.00    +0.319 C 
ATOM     30  O   LIG    1       -1.159  -3.398  -3.635  0.00  0.00    -0.250 OA
BRANCH  29  31
ATOM     31  O   LIG    1       -0.127  -2.774  -5.590  0.00  0.00    -0.480 OA
ATOM     32  H   LIG    1       -0.957  -2.995  -6.018  0.00  0.00    +0.295 HD
ENDBRANCH  29  31
ENDBRANCH  28  29
ENDBRANCH  22  28
ENDBRANCH  21  22
ENDBRANCH  20  21
ENDBRANCH   1  20
TORSDOF 21
