REMARK  Name = DB00253
REMARK                            x       y       z     vdW  Elec       q    Type
REMARK                         _______ _______ _______ _____ _____    ______ ____
ROOT
ATOM      1  C   LIG    1       -1.213  -1.033   3.687  0.00  0.00    +0.119 C 
ATOM      2  C   LIG    1       -0.511  -0.197   2.578  0.00  0.00    +0.039 C 
ATOM      3  C   LIG    1       -0.430  -0.918   1.202  0.00  0.00    -0.017 C 
ATOM      4  C   LIG    1        0.515  -2.166   1.244  0.00  0.00    +0.012 C 
ATOM      5  C   LIG    1       -0.097   0.017  -0.001  0.00  0.00    +0.061 C 
ATOM      6  C   LIG    1       -0.708  -0.694  -1.240  0.00  0.00    +0.012 C 
ATOM      7  C   LIG    1       -1.829  -1.599  -0.691  0.00  0.00    +0.005 C 
ATOM      8  C   LIG    1       -1.886  -1.258   0.805  0.00  0.00    -0.001 C 
ATOM      9  C   LIG    1       -2.581  -2.220   1.807  0.00  0.00    -0.000 C 
ATOM     10  C   LIG    1       -3.994  -2.618   1.313  0.00  0.00    +0.011 C 
ATOM     11  C   LIG    1       -4.808  -3.448   2.330  0.00  0.00    +0.013 C 
ATOM     12  C   LIG    1       -6.199  -3.812   1.767  0.00  0.00    +0.012 C 
ATOM     13  C   LIG    1       -4.830  -2.650   3.652  0.00  0.00    -0.057 C 
ATOM     14  C   LIG    1       -5.951  -2.071   4.157  0.00  0.00    +0.046 C 
ATOM     15  C   LIG    1       -5.983  -1.178   5.305  0.00  0.00    +0.156 C 
ATOM     16  C   LIG    1       -4.625  -0.635   5.751  0.00  0.00    +0.080 C 
ATOM     17  C   LIG    1       -3.562  -1.743   5.674  0.00  0.00    +0.019 C 
ATOM     18  O   LIG    1       -7.041  -0.793   5.798  0.00  0.00    -0.293 OA
ATOM     19  C   LIG    1       -3.417  -2.441   4.277  0.00  0.00    -0.005 C 
ATOM     20  C   LIG    1       -2.765  -3.830   4.555  0.00  0.00    +0.016 C 
ATOM     21  C   LIG    1       -2.627  -1.555   3.231  0.00  0.00    +0.031 C 
ENDROOT
BRANCH   5  22
ATOM     22  C   LIG    1        1.404   0.361  -0.152  0.00  0.00    +0.134 C 
ATOM     23  C   LIG    1        1.942   1.510   0.695  0.00  0.00    +0.086 C 
ATOM     24  O   LIG    1        2.141  -0.222  -0.947  0.00  0.00    -0.297 OA
ENDBRANCH   5  22
BRANCH   1  25
ATOM     25  O   LIG    1       -0.352  -2.044   4.169  0.00  0.00    -0.391 OA
ATOM     26  H   LIG    1       -0.782  -2.485   4.905  0.00  0.00    +0.210 HD
ENDBRANCH   1  25
TORSDOF 2
