REMARK  Name = DB00869
REMARK                            x       y       z     vdW  Elec       q    Type
REMARK                         _______ _______ _______ _____ _____    ______ ____
ROOT
ATOM      1  C   LIG    1       -1.119  -0.079  -2.661  0.00  0.00    +0.132 A 
ATOM      2  S   LIG    1       -1.768  -1.181  -3.832  0.00  0.00    -0.050 S 
ATOM      3  C   LIG    1       -1.686  -2.471  -2.681  0.00  0.00    +0.144 A 
ATOM      4  C   LIG    1       -1.173  -2.047  -1.462  0.00  0.00    +0.043 A 
ATOM      5  S   LIG    1       -0.925   1.685  -3.027  0.00  0.00    +0.006 S 
ATOM      6  O   LIG    1       -2.255   2.305  -3.027  0.00  0.00    -0.169 OA
ATOM      7  O   LIG    1       -0.082   1.845  -4.216  0.00  0.00    -0.169 OA
ATOM      8  C   LIG    1        0.033   2.233  -1.490  0.00  0.00    +0.135 C 
ATOM      9  C   LIG    1       -0.568   1.518  -0.265  0.00  0.00    +0.049 C 
ATOM     10  C   LIG    1       -0.220   0.011  -0.200  0.00  0.00    +0.088 C 
ATOM     11  C   LIG    1       -0.038   3.766  -1.393  0.00  0.00    +0.032 C 
ATOM     12  C   LIG    1       -0.832  -0.684  -1.426  0.00  0.00    +0.004 A 
ENDROOT
BRANCH   3  13
ATOM     13  S   LIG    1       -2.184  -4.165  -3.069  0.00  0.00    +0.062 S 
ATOM     14  O   LIG    1       -2.854  -4.146  -4.374  0.00  0.00    -0.153 OA
ATOM     15  O   LIG    1       -2.824  -4.709  -1.867  0.00  0.00    -0.153 OA
BRANCH  13  16
ATOM     16  N   LIG    1       -0.611  -4.914  -3.253  0.00  0.00    -0.203 NA
ATOM     17  H   LIG    1       -0.062  -4.984  -2.392  0.00  0.00    +0.144 HD
ATOM     18  H   LIG    1       -0.075  -4.598  -4.065  0.00  0.00    +0.144 HD
ENDBRANCH  13  16
ENDBRANCH   3  13
BRANCH  10  19
ATOM     19  N   LIG    1        1.215  -0.174   0.028  0.00  0.00    -0.309 NA
ATOM     20  H   LIG    1        1.480   0.313   0.873  0.00  0.00    +0.122 HD
BRANCH  19  21
ATOM     21  C   LIG    1        1.621  -1.567   0.162  0.00  0.00    +0.078 C 
ATOM     22  C   LIG    1        3.105  -1.632   0.537  0.00  0.00    +0.020 C 
ENDBRANCH  19  21
ENDBRANCH  10  19
TORSDOF 4
