REMARK  Name = DB00827
REMARK                            x       y       z     vdW  Elec       q    Type
REMARK                         _______ _______ _______ _____ _____    ______ ____
ROOT
ATOM      1  O   LIG    1       -0.630  -4.924   0.049  0.00  0.00    -0.453 OA
ATOM      2  C   LIG    1       -1.827  -5.623  -0.168  0.00  0.00    +0.466 C 
ATOM      3  O   LIG    1       -2.886  -4.721   0.009  0.00  0.00    -0.453 OA
ATOM      4  C   LIG    1       -2.321  -3.485   0.000  0.00  0.00    +0.167 A 
ATOM      5  C   LIG    1       -2.946  -2.245   0.005  0.00  0.00    +0.063 A 
ATOM      6  C   LIG    1       -2.138  -1.090   0.027  0.00  0.00    +0.053 A 
ATOM      7  C   LIG    1       -2.776   0.269   0.038  0.00  0.00    +0.222 A 
ATOM      8  C   LIG    1       -1.825   1.395   0.090  0.00  0.00    +0.215 A 
ATOM      9  N   LIG    1       -0.542   1.277   0.107  0.00  0.00    -0.160 NA
ATOM     10  N   LIG    1        0.040  -0.042   0.064  0.00  0.00    -0.263 N 
ATOM     11  O   LIG    1       -3.999   0.431   0.010  0.00  0.00    -0.285 OA
ATOM     12  C   LIG    1       -0.721  -1.221   0.045  0.00  0.00    +0.075 A 
ATOM     13  C   LIG    1       -0.129  -2.499   0.051  0.00  0.00    +0.077 A 
ATOM     14  C   LIG    1       -0.964  -3.607   0.022  0.00  0.00    +0.168 A 
ENDROOT
BRANCH   8  15
ATOM     15  C   LIG    1       -2.258   2.778   0.152  0.00  0.00    +0.361 C 
ATOM     16  O   LIG    1       -2.871   3.269   1.099  0.00  0.00    -0.243 OA
BRANCH  15  17
ATOM     17  O   LIG    1       -1.933   3.455  -0.992  0.00  0.00    -0.476 OA
ATOM     18  H   LIG    1       -2.228   4.368  -0.971  0.00  0.00    +0.295 HD
ENDBRANCH  15  17
ENDBRANCH   8  15
BRANCH  10  19
ATOM     19  C   LIG    1        1.501   0.047   0.107  0.00  0.00    +0.141 C 
ATOM     20  C   LIG    1        2.008   0.077   1.558  0.00  0.00    +0.029 C 
ENDBRANCH  10  19
TORSDOF 3
