REMARK  Name = DB00204
REMARK                            x       y       z     vdW  Elec       q    Type
REMARK                         _______ _______ _______ _____ _____    ______ ____
ROOT
ATOM      1  N   LIG    1        1.412   0.577   0.365  0.00  0.00    -0.302 NA
ATOM      2  C   LIG    1        0.338  -0.125  -0.339  0.00  0.00    +0.105 C 
ENDROOT
BRANCH   1   3
ATOM      3  C   LIG    1        1.174   2.022   0.463  0.00  0.00    +0.089 C 
BRANCH   3   4
ATOM      4  C   LIG    1       -0.018   2.410   1.369  0.00  0.00    +0.050 C 
BRANCH   4   8
ATOM      5  C   LIG    1        0.257   0.880   5.400  0.00  0.00    +0.048 A 
ATOM      6  C   LIG    1        1.045   1.966   5.001  0.00  0.00    +0.025 A 
ATOM      7  C   LIG    1        0.953   2.458   3.702  0.00  0.00    +0.005 A 
ATOM      8  C   LIG    1        0.076   1.867   2.791  0.00  0.00    -0.046 A 
ATOM      9  C   LIG    1       -0.710   0.783   3.184  0.00  0.00    +0.005 A 
ATOM     10  C   LIG    1       -0.617   0.291   4.483  0.00  0.00    +0.025 A 
BRANCH   5  11
ATOM     11  N   LIG    1        0.306   0.329   6.691  0.00  0.00    -0.221 N 
ATOM     12  H   LIG    1       -0.211  -0.522   6.854  0.00  0.00    +0.173 HD
BRANCH  11  13
ATOM     13  S   LIG    1        1.084   1.087   8.100  0.00  0.00    +0.040 S 
ATOM     14  C   LIG    1        2.914   0.724   7.807  0.00  0.00    +0.218 C 
ATOM     15  O   LIG    1        0.646   0.322   9.271  0.00  0.00    -0.155 OA
ATOM     16  O   LIG    1        0.853   2.534   8.024  0.00  0.00    -0.155 OA
ENDBRANCH  11  13
ENDBRANCH   5  11
ENDBRANCH   4   8
ENDBRANCH   3   4
ENDBRANCH   1   3
BRANCH   1  17
ATOM     17  C   LIG    1        2.738   0.239  -0.172  0.00  0.00    +0.125 C 
BRANCH  17  18
ATOM     18  C   LIG    1        3.033   0.674  -1.627  0.00  0.00    +0.244 C 
BRANCH  18  19
ATOM     19  O   LIG    1        3.192   2.090  -1.705  0.00  0.00    -0.491 OA
BRANCH  19  20
ATOM     20  C   LIG    1        3.454   2.680  -2.926  0.00  0.00    +0.121 A 
ATOM     21  C   LIG    1        3.589   1.977  -4.133  0.00  0.00    +0.047 A 
ATOM     22  C   LIG    1        3.856   2.660  -5.317  0.00  0.00    +0.028 A 
ATOM     23  C   LIG    1        3.990   4.053  -5.311  0.00  0.00    +0.048 A 
ATOM     24  C   LIG    1        3.859   4.751  -4.110  0.00  0.00    +0.028 A 
ATOM     25  C   LIG    1        3.591   4.068  -2.928  0.00  0.00    +0.047 A 
BRANCH  23  26
ATOM     26  N   LIG    1        4.266   4.786  -6.474  0.00  0.00    -0.221 N 
ATOM     27  H   LIG    1        4.397   5.782  -6.372  0.00  0.00    +0.173 HD
BRANCH  26  28
ATOM     28  S   LIG    1        3.954   4.173  -8.110  0.00  0.00    +0.040 S 
ATOM     29  C   LIG    1        4.313   5.682  -9.179  0.00  0.00    +0.218 C 
ATOM     30  O   LIG    1        2.524   3.855  -8.180  0.00  0.00    -0.155 OA
ATOM     31  O   LIG    1        4.960   3.139  -8.378  0.00  0.00    -0.155 OA
ENDBRANCH  26  28
ENDBRANCH  23  26
ENDBRANCH  19  20
ENDBRANCH  18  19
ENDBRANCH  17  18
ENDBRANCH   1  17
TORSDOF 11
