REMARK  Name = DB00831
REMARK                            x       y       z     vdW  Elec       q    Type
REMARK                         _______ _______ _______ _____ _____    ______ ____
ROOT
ATOM      1  S   LIG    1        6.221  -2.555  -0.159  0.00  0.00    -0.086 S 
ATOM      2  C   LIG    1        5.293  -1.588  -1.295  0.00  0.00    +0.034 A 
ATOM      3  C   LIG    1        5.940  -1.134  -2.447  0.00  0.00    +0.017 A 
ATOM      4  C   LIG    1        5.253  -0.384  -3.394  0.00  0.00    +0.001 A 
ATOM      5  C   LIG    1        3.910  -0.089  -3.194  0.00  0.00    +0.002 A 
ATOM      6  C   LIG    1        3.257  -0.559  -2.057  0.00  0.00    +0.024 A 
ATOM      7  C   LIG    1        3.912  -1.359  -1.097  0.00  0.00    +0.048 A 
ATOM      8  N   LIG    1        3.284  -1.770   0.103  0.00  0.00    -0.298 N 
ATOM      9  C   LIG    1        3.997  -1.846   1.321  0.00  0.00    +0.048 A 
ATOM     10  C   LIG    1        3.420  -1.487   2.556  0.00  0.00    +0.037 A 
ATOM     11  C   LIG    1        4.149  -1.479   3.750  0.00  0.00    +0.057 A 
ATOM     12  C   LIG    1        5.504  -1.810   3.718  0.00  0.00    +0.013 A 
ATOM     13  C   LIG    1        6.113  -2.128   2.510  0.00  0.00    +0.017 A 
ATOM     14  C   LIG    1        5.384  -2.113   1.321  0.00  0.00    +0.034 A 
ENDROOT
BRANCH  11  15
ATOM     15  C   LIG    1        3.454  -1.101   5.058  0.00  0.00    +0.417 C 
ATOM     16  F   LIG    1        2.828   0.068   4.919  0.00  0.00    -0.166 F 
ATOM     17  F   LIG    1        2.551  -2.034   5.362  0.00  0.00    -0.166 F 
ATOM     18  F   LIG    1        4.308  -0.995   6.078  0.00  0.00    -0.166 F 
ENDBRANCH  11  15
BRANCH   8  19
ATOM     19  C   LIG    1        1.806  -1.774   0.136  0.00  0.00    +0.112 C 
BRANCH  19  20
ATOM     20  C   LIG    1        1.147  -0.385   0.353  0.00  0.00    +0.035 C 
BRANCH  20  21
ATOM     21  C   LIG    1       -0.271  -0.267  -0.244  0.00  0.00    +0.086 C 
BRANCH  21  22
ATOM     22  N   LIG    1       -0.704   1.124  -0.411  0.00  0.00    -0.300 NA
ATOM     23  C   LIG    1       -1.968   1.167  -1.158  0.00  0.00    +0.100 C 
ATOM     24  C   LIG    1       -2.403   2.634  -1.392  0.00  0.00    +0.099 C 
ATOM     25  N   LIG    1       -2.592   3.312  -0.105  0.00  0.00    -0.303 NA
ATOM     26  C   LIG    1       -3.015   4.691  -0.319  0.00  0.00    +0.105 C 
ATOM     27  C   LIG    1       -1.333   3.276   0.648  0.00  0.00    +0.099 C 
ATOM     28  C   LIG    1       -0.889   1.810   0.878  0.00  0.00    +0.100 C 
ENDBRANCH  21  22
ENDBRANCH  20  21
ENDBRANCH  19  20
ENDBRANCH   8  19
TORSDOF 5
