REMARK  Name = DB00138
REMARK                            x       y       z     vdW  Elec       q    Type
REMARK                         _______ _______ _______ _____ _____    ______ ____
ROOT
ATOM      1  SG  CYS A  1        0.036  -0.236   1.351  0.00  0.00    -0.091 S 
ENDROOT
BRANCH   1   2
ATOM      2  CB  CYS A  1        0.306   1.195   0.258  0.00  0.00    +0.111 C 
BRANCH   2   3
ATOM      3  CA  CYS A  1       -0.942   1.923  -0.291  0.00  0.00    +0.171 C 
BRANCH   3   4
ATOM      4  N   CYS A  1       -1.869   2.373   0.762  0.00  0.00    -0.318 NA
ATOM      5  H1  CYS A  1       -2.561   3.002   0.379  0.00  0.00    +0.119 HD
ATOM      6  H2  CYS A  1       -1.376   2.903   1.466  0.00  0.00    +0.119 HD
ENDBRANCH   3   4
BRANCH   3   7
ATOM      7  C   CYS A  1       -1.726   1.055  -1.298  0.00  0.00    +0.323 C 
ATOM      8  O   CYS A  1       -2.556   0.208  -0.966  0.00  0.00    -0.249 OA
BRANCH   7   9
ATOM      9  OXT CYS A  1       -1.355   1.333  -2.581  0.00  0.00    -0.480 OA
ATOM     10  HXT CYS A  1       -1.827   0.793  -3.220  0.00  0.00    +0.295 HD
ENDBRANCH   7   9
ENDBRANCH   3   7
ENDBRANCH   2   3
ENDBRANCH   1   2
BRANCH   1  11
ATOM     11  SG  CYS A  1        1.907  -0.963   1.722  0.00  0.00    -0.091 S 
BRANCH  11  12
ATOM     12  CB  CYS A  1        2.163  -2.263   0.475  0.00  0.00    +0.111 C 
BRANCH  12  13
ATOM     13  CA  CYS A  1        2.303  -1.816  -0.998  0.00  0.00    +0.171 C 
BRANCH  13  14
ATOM     14  N   CYS A  1        2.329  -2.964  -1.919  0.00  0.00    -0.318 NA
ATOM     15  H1  CYS A  1        3.174  -3.506  -1.804  0.00  0.00    +0.119 HD
ATOM     16  H2  CYS A  1        2.293  -2.664  -2.882  0.00  0.00    +0.119 HD
ENDBRANCH  13  14
BRANCH  13  17
ATOM     17  C   CYS A  1        3.598  -1.018  -1.249  0.00  0.00    +0.323 C 
ATOM     18  O   CYS A  1        4.722  -1.506  -1.125  0.00  0.00    -0.249 OA
BRANCH  17  19
ATOM     19  OXT CYS A  1        3.332   0.271  -1.609  0.00  0.00    -0.480 OA
ATOM     20  HXT CYS A  1        4.133   0.778  -1.761  0.00  0.00    +0.295 HD
ENDBRANCH  17  19
ENDBRANCH  13  17
ENDBRANCH  12  13
ENDBRANCH  11  12
ENDBRANCH   1  11
TORSDOF 11
