REMARK  Name = DB00834
REMARK                            x       y       z     vdW  Elec       q    Type
REMARK                         _______ _______ _______ _____ _____    ______ ____
ROOT
ATOM      1  C   LIG    1       -1.207  -2.631  -0.113  0.00  0.00    +0.043 C 
ATOM      2  C   LIG    1       -1.126  -4.148  -0.412  0.00  0.00    +0.083 C 
ATOM      3  C   LIG    1       -2.106  -4.594  -1.506  0.00  0.00    +0.157 C 
ATOM      4  O   LIG    1       -2.606  -5.716  -1.524  0.00  0.00    -0.293 OA
ATOM      5  C   LIG    1       -2.305  -3.640  -2.590  0.00  0.00    +0.050 C 
ATOM      6  C   LIG    1       -1.875  -2.356  -2.566  0.00  0.00    -0.041 C 
ATOM      7  C   LIG    1       -2.154  -1.435  -3.744  0.00  0.00    +0.036 C 
ATOM      8  C   LIG    1       -0.868  -0.669  -4.061  0.00  0.00    +0.013 C 
ATOM      9  C   LIG    1       -0.315   0.137  -2.856  0.00  0.00    +0.020 C 
ATOM     10  C   LIG    1       -0.474  -0.623  -1.506  0.00  0.00    -0.055 C 
ATOM     11  C   LIG    1        0.157   0.115  -0.295  0.00  0.00    +0.046 C 
ATOM     12  C   LIG    1       -0.379   1.585  -0.257  0.00  0.00    +0.023 C 
ATOM     13  C   LIG    1       -0.212   2.385  -1.586  0.00  0.00    +0.012 C 
ATOM     14  C   LIG    1        1.311   2.621  -1.874  0.00  0.00    +0.015 C 
ATOM     15  C   LIG    1       -0.982   3.760  -1.721  0.00  0.00    +0.132 C 
ATOM     16  C   LIG    1       -1.143   3.907  -3.266  0.00  0.00    +0.049 C 
ATOM     17  C   LIG    1       -1.020   2.498  -3.884  0.00  0.00    +0.008 C 
ATOM     18  C   LIG    1       -0.933   1.550  -2.681  0.00  0.00    +0.006 C 
ATOM     19  C   LIG    1       -1.152  -1.803  -1.409  0.00  0.00    -0.044 C 
ENDROOT
BRANCH  11  20
ATOM     20  C   LIG    1        1.675  -0.047  -0.092  0.00  0.00    -0.040 A 
ATOM     21  C   LIG    1        2.285   0.547   1.016  0.00  0.00    +0.006 A 
ATOM     22  C   LIG    1        3.653   0.407   1.233  0.00  0.00    +0.023 A 
ATOM     23  C   LIG    1        4.456  -0.339   0.354  0.00  0.00    +0.029 A 
ATOM     24  C   LIG    1        3.829  -0.945  -0.747  0.00  0.00    +0.023 A 
ATOM     25  C   LIG    1        2.461  -0.808  -0.964  0.00  0.00    +0.006 A 
BRANCH  23  26
ATOM     26  N   LIG    1        5.855  -0.487   0.579  0.00  0.00    -0.336 N 
ATOM     27  C   LIG    1        6.712  -1.032  -0.474  0.00  0.00    +0.129 C 
ATOM     28  C   LIG    1        6.518   0.295   1.624  0.00  0.00    +0.129 C 
ENDBRANCH  23  26
ENDBRANCH  11  20
BRANCH  15  29
ATOM     29  C   LIG    1       -2.310   3.810  -1.057  0.00  0.00    -0.067 C 
ATOM     30  C   LIG    1       -3.399   3.842  -0.503  0.00  0.00    -0.103 C 
ATOM     31  C   LIG    1       -4.701   3.888   0.177  0.00  0.00    +0.106 C 
ENDBRANCH  15  29
BRANCH  15  32
ATOM     32  O   LIG    1       -0.270   4.865  -1.188  0.00  0.00    -0.376 OA
ATOM     33  H   LIG    1       -0.077   4.682  -0.266  0.00  0.00    +0.211 HD
ENDBRANCH  15  32
TORSDOF 4
