REMARK  Name = DB00391
REMARK                            x       y       z     vdW  Elec       q    Type
REMARK                         _______ _______ _______ _____ _____    ______ ____
ROOT
ATOM      1  C   LIG    1        3.731  -1.353   0.038  0.00  0.00    +0.106 A 
ATOM      2  C   LIG    1        4.397  -0.141   0.196  0.00  0.00    +0.032 A 
ATOM      3  C   LIG    1        3.693   1.058   0.120  0.00  0.00    +0.048 A 
ATOM      4  C   LIG    1        2.305   1.071  -0.112  0.00  0.00    +0.132 A 
ATOM      5  C   LIG    1        1.630  -0.159  -0.267  0.00  0.00    +0.080 A 
ATOM      6  C   LIG    1        2.355  -1.359  -0.192  0.00  0.00    +0.045 A 
ENDROOT
BRANCH   5   7
ATOM      7  C   LIG    1        0.144  -0.210  -0.532  0.00  0.00    +0.248 C 
ATOM      8  N   LIG    1       -0.531  -1.156   0.147  0.00  0.00    -0.310 N 
ATOM      9  H   LIG    1       -0.025  -1.729   0.807  0.00  0.00    +0.149 HD
ATOM     10  O   LIG    1       -0.390   0.569  -1.325  0.00  0.00    -0.270 OA
BRANCH   8  11
ATOM     11  C   LIG    1       -1.960  -1.441   0.005  0.00  0.00    +0.123 C 
BRANCH  11  12
ATOM     12  C   LIG    1       -2.321  -2.257  -1.263  0.00  0.00    +0.074 C 
ATOM     13  C   LIG    1       -1.416  -3.481  -1.503  0.00  0.00    +0.022 C 
ATOM     14  C   LIG    1       -2.308  -4.477  -2.245  0.00  0.00    +0.017 C 
ATOM     15  C   LIG    1       -3.635  -3.740  -2.415  0.00  0.00    +0.085 C 
ATOM     16  N   LIG    1       -3.690  -2.766  -1.329  0.00  0.00    -0.298 NA
BRANCH  16  17
ATOM     17  C   LIG    1       -4.694  -1.720  -1.547  0.00  0.00    +0.081 C 
ATOM     18  C   LIG    1       -6.126  -2.261  -1.407  0.00  0.00    +0.020 C 
ENDBRANCH  16  17
ENDBRANCH  11  12
ENDBRANCH   8  11
ENDBRANCH   5   7
BRANCH   1  19
ATOM     19  S   LIG    1        4.648  -2.886   0.136  0.00  0.00    +0.056 S 
ATOM     20  O   LIG    1        3.743  -3.981  -0.233  0.00  0.00    -0.153 OA
ATOM     21  O   LIG    1        5.911  -2.676  -0.580  0.00  0.00    -0.153 OA
BRANCH  19  22
ATOM     22  N   LIG    1        5.028  -3.060   1.838  0.00  0.00    -0.204 NA
ATOM     23  H   LIG    1        5.668  -2.351   2.206  0.00  0.00    +0.144 HD
ATOM     24  H   LIG    1        4.217  -3.227   2.439  0.00  0.00    +0.144 HD
ENDBRANCH  19  22
ENDBRANCH   1  19
BRANCH   4  25
ATOM     25  O   LIG    1        1.569   2.244  -0.178  0.00  0.00    -0.494 OA
ATOM     26  C   LIG    1        2.219   3.501  -0.026  0.00  0.00    +0.277 C 
ENDBRANCH   4  25
TORSDOF 7
