REMARK  Name = DB00781
REMARK                            x       y       z     vdW  Elec       q    Type
REMARK                         _______ _______ _______ _____ _____    ______ ____
ROOT
ATOM      1  N   LIG    1       -2.668  -0.489   4.109  0.00  0.00    -0.300 N 
ATOM      2  H   LIG    1       -2.142  -0.909   4.861  0.00  0.00    +0.150 HD
ATOM      3  C   LIG    1       -2.784  -1.153   2.946  0.00  0.00    +0.234 C 
ATOM      4  O   LIG    1       -3.414  -0.735   1.972  0.00  0.00    -0.274 OA
ATOM      5  C   LIG    1       -2.056  -2.508   2.878  0.00  0.00    +0.160 C 
ATOM      6  N   LIG    1       -2.590  -3.297   1.769  0.00  0.00    -0.302 N 
ATOM      7  H   LIG    1       -2.480  -2.880   0.857  0.00  0.00    +0.150 HD
ATOM      8  C   LIG    1       -3.311  -4.427   1.874  0.00  0.00    +0.234 C 
ATOM      9  O   LIG    1       -3.525  -5.024   2.929  0.00  0.00    -0.274 OA
ATOM     10  C   LIG    1       -3.948  -4.953   0.569  0.00  0.00    +0.160 C 
ATOM     11  N   LIG    1       -4.305  -3.865  -0.341  0.00  0.00    -0.302 N 
ATOM     12  H   LIG    1       -3.691  -3.753  -1.135  0.00  0.00    +0.150 HD
ATOM     13  C   LIG    1       -5.273  -2.950  -0.157  0.00  0.00    +0.234 C 
ATOM     14  O   LIG    1       -6.100  -3.001   0.753  0.00  0.00    -0.274 OA
ATOM     15  C   LIG    1       -5.294  -1.736  -1.109  0.00  0.00    +0.159 C 
ATOM     16  N   LIG    1       -3.976  -1.423  -1.692  0.00  0.00    -0.302 N 
ATOM     17  H   LIG    1       -3.514  -0.637  -1.258  0.00  0.00    +0.150 HD
ATOM     18  C   LIG    1       -3.307  -2.075  -2.664  0.00  0.00    +0.234 C 
ATOM     19  O   LIG    1       -3.755  -3.032  -3.294  0.00  0.00    -0.274 OA
ATOM     20  C   LIG    1       -1.887  -1.542  -2.961  0.00  0.00    +0.163 C 
ATOM     21  N   LIG    1       -1.868  -0.094  -3.168  0.00  0.00    -0.302 N 
ATOM     22  H   LIG    1       -1.323   0.411  -2.483  0.00  0.00    +0.150 HD
ATOM     23  C   LIG    1       -2.588   0.631  -4.046  0.00  0.00    +0.234 C 
ATOM     24  O   LIG    1       -3.276   0.138  -4.939  0.00  0.00    -0.274 OA
ATOM     25  C   LIG    1       -2.551   2.167  -3.833  0.00  0.00    +0.160 C 
ATOM     26  N   LIG    1       -2.394   2.503  -2.408  0.00  0.00    -0.302 N 
ATOM     27  H   LIG    1       -1.485   2.863  -2.154  0.00  0.00    +0.150 HD
ATOM     28  C   LIG    1       -3.275   2.248  -1.419  0.00  0.00    +0.234 C 
ATOM     29  O   LIG    1       -4.414   1.823  -1.601  0.00  0.00    -0.274 OA
ATOM     30  C   LIG    1       -2.789   2.428   0.031  0.00  0.00    +0.160 C 
ATOM     31  C   LIG    1       -3.364   3.726   0.640  0.00  0.00    +0.050 C 
ATOM     32  C   LIG    1       -3.037   3.954   2.133  0.00  0.00    +0.106 C 
ATOM     33  N   LIG    1       -3.442   2.848   3.004  0.00  0.00    -0.314 N 
ATOM     34  H   LIG    1       -4.425   2.785   3.227  0.00  0.00    +0.149 HD
ATOM     35  C   LIG    1       -2.599   1.935   3.518  0.00  0.00    +0.236 C 
ATOM     36  O   LIG    1       -1.383   1.936   3.333  0.00  0.00    -0.274 OA
ATOM     37  C   LIG    1       -3.230   0.835   4.397  0.00  0.00    +0.187 C 
ENDROOT
BRANCH  30  38
ATOM     38  N   LIG    1       -1.331   2.340   0.169  0.00  0.00    -0.302 N 
ATOM     39  H   LIG    1       -0.841   3.215   0.288  0.00  0.00    +0.150 HD
ATOM     40  C   LIG    1       -0.637   1.189   0.155  0.00  0.00    +0.234 C 
ATOM     41  O   LIG    1       -1.143   0.075   0.017  0.00  0.00    -0.274 OA
BRANCH  40  42
ATOM     42  C   LIG    1        0.885   1.309   0.298  0.00  0.00    +0.160 C 
BRANCH  42  43
ATOM     43  N   LIG    1        1.307   0.547   1.471  0.00  0.00    -0.302 N 
ATOM     44  H   LIG    1        0.674  -0.178   1.777  0.00  0.00    +0.150 HD
ATOM     45  C   LIG    1        2.474   0.727   2.110  0.00  0.00    +0.236 C 
ATOM     46  O   LIG    1        3.303   1.588   1.811  0.00  0.00    -0.274 OA
BRANCH  45  47
ATOM     47  C   LIG    1        2.764  -0.230   3.282  0.00  0.00    +0.187 C 
BRANCH  47  48
ATOM     48  N   LIG    1        4.080  -0.847   3.130  0.00  0.00    -0.300 N 
ATOM     49  H   LIG    1        4.803  -0.493   3.741  0.00  0.00    +0.150 HD
ATOM     50  C   LIG    1        4.376  -1.813   2.247  0.00  0.00    +0.234 C 
ATOM     51  O   LIG    1        3.569  -2.320   1.466  0.00  0.00    -0.274 OA
BRANCH  50  52
ATOM     52  C   LIG    1        5.842  -2.280   2.234  0.00  0.00    +0.160 C 
BRANCH  52  53
ATOM     53  N   LIG    1        5.957  -3.698   2.582  0.00  0.00    -0.304 N 
ATOM     54  H   LIG    1        6.294  -4.301   1.845  0.00  0.00    +0.149 HD
ATOM     55  C   LIG    1        5.634  -4.238   3.771  0.00  0.00    +0.214 C 
ATOM     56  O   LIG    1        5.223  -3.576   4.726  0.00  0.00    -0.276 OA
BRANCH  55  57
ATOM     57  C   LIG    1        5.832  -5.752   3.921  0.00  0.00    +0.096 C 
BRANCH  57  58
ATOM     58  C   LIG    1        4.568  -6.504   4.393  0.00  0.00    +0.009 C 
BRANCH  58  59
ATOM     59  C   LIG    1        3.441  -6.568   3.341  0.00  0.00    +0.001 C 
BRANCH  59  60
ATOM     60  C   LIG    1        2.239  -7.413   3.812  0.00  0.00    +0.003 C 
BRANCH  60  61
ATOM     61  C   LIG    1        1.106  -7.596   2.768  0.00  0.00    -0.014 C 
ATOM     62  C   LIG    1        1.593  -8.337   1.504  0.00  0.00    +0.007 C 
BRANCH  61  63
ATOM     63  C   LIG    1       -0.123  -8.318   3.376  0.00  0.00    -0.000 C 
ATOM     64  C   LIG    1       -0.937  -7.471   4.368  0.00  0.00    +0.004 C 
ENDBRANCH  61  63
ENDBRANCH  60  61
ENDBRANCH  59  60
ENDBRANCH  58  59
ENDBRANCH  57  58
ENDBRANCH  55  57
ENDBRANCH  52  53
BRANCH  52  65
ATOM     65  C   LIG    1        6.527  -1.976   0.883  0.00  0.00    +0.046 C 
BRANCH  65  66
ATOM     66  C   LIG    1        6.431  -0.502   0.435  0.00  0.00    +0.080 C 
BRANCH  66  67
ATOM     67  N   LIG    1        7.168  -0.301  -0.797  0.00  0.00    -0.330 NA
ATOM     68  H   LIG    1        7.103   0.667  -1.078  0.00  0.00    +0.118 HD
ATOM     69  H   LIG    1        6.745  -0.843  -1.538  0.00  0.00    +0.118 HD
ENDBRANCH  66  67
ENDBRANCH  65  66
ENDBRANCH  52  65
ENDBRANCH  50  52
ENDBRANCH  47  48
BRANCH  47  70
ATOM     70  C   LIG    1        2.681   0.563   4.614  0.00  0.00    +0.141 C 
ATOM     71  C   LIG    1        1.346   1.285   4.868  0.00  0.00    +0.040 C 
BRANCH  70  72
ATOM     72  O   LIG    1        2.892  -0.328   5.692  0.00  0.00    -0.390 OA
ATOM     73  H   LIG    1        2.130  -0.908   5.766  0.00  0.00    +0.210 HD
ENDBRANCH  70  72
ENDBRANCH  47  70
ENDBRANCH  45  47
ENDBRANCH  42  43
BRANCH  42  74
ATOM     74  C   LIG    1        1.627   0.858  -0.985  0.00  0.00    +0.046 C 
BRANCH  74  75
ATOM     75  C   LIG    1        1.244   1.646  -2.252  0.00  0.00    +0.080 C 
BRANCH  75  76
ATOM     76  N   LIG    1        1.964   1.136  -3.402  0.00  0.00    -0.330 NA
ATOM     77  H   LIG    1        2.957   1.260  -3.266  0.00  0.00    +0.118 HD
ATOM     78  H   LIG    1        1.720   1.671  -4.223  0.00  0.00    +0.118 HD
ENDBRANCH  75  76
ENDBRANCH  74  75
ENDBRANCH  42  74
ENDBRANCH  40  42
ENDBRANCH  30  38
BRANCH  37  79
ATOM     79  C   LIG    1       -2.988   1.206   5.887  0.00  0.00    +0.141 C 
ATOM     80  C   LIG    1       -3.497   2.594   6.324  0.00  0.00    +0.040 C 
BRANCH  79  81
ATOM     81  O   LIG    1       -3.621   0.245   6.709  0.00  0.00    -0.390 OA
ATOM     82  H   LIG    1       -4.572   0.352   6.634  0.00  0.00    +0.210 HD
ENDBRANCH  79  81
ENDBRANCH  37  79
BRANCH   5  83
ATOM     83  C   LIG    1       -0.535  -2.285   2.722  0.00  0.00    +0.046 C 
BRANCH  83  84
ATOM     84  C   LIG    1        0.315  -3.567   2.816  0.00  0.00    +0.080 C 
BRANCH  84  85
ATOM     85  N   LIG    1        0.327  -4.090   4.169  0.00  0.00    -0.330 NA
ATOM     86  H   LIG    1        0.770  -3.426   4.788  0.00  0.00    +0.118 HD
ATOM     87  H   LIG    1        0.887  -4.930   4.204  0.00  0.00    +0.118 HD
ENDBRANCH  84  85
ENDBRANCH  83  84
ENDBRANCH   5  83
BRANCH  10  88
ATOM     88  C   LIG    1       -3.044  -5.969  -0.163  0.00  0.00    +0.046 C 
BRANCH  88  89
ATOM     89  C   LIG    1       -2.557  -7.151   0.694  0.00  0.00    +0.080 C 
BRANCH  89  90
ATOM     90  N   LIG    1       -1.841  -8.102  -0.134  0.00  0.00    -0.330 NA
ATOM     91  H   LIG    1       -2.463  -8.476  -0.836  0.00  0.00    +0.118 HD
ATOM     92  H   LIG    1       -1.542  -8.884   0.431  0.00  0.00    +0.118 HD
ENDBRANCH  89  90
ENDBRANCH  88  89
ENDBRANCH  10  88
BRANCH  15  93
ATOM     93  C   LIG    1       -6.413  -1.875  -2.176  0.00  0.00    +0.034 C 
BRANCH  93  94
ATOM     94  C   LIG    1       -6.663  -0.620  -3.047  0.00  0.00    -0.015 C 
ATOM     95  C   LIG    1       -7.426  -0.972  -4.341  0.00  0.00    +0.007 C 
ATOM     96  C   LIG    1       -7.360   0.507  -2.254  0.00  0.00    +0.007 C 
ENDBRANCH  93  94
ENDBRANCH  15  93
BRANCH  20  97
ATOM     97  C   LIG    1       -1.109  -2.277  -4.080  0.00  0.00    +0.067 C 
BRANCH  97  98
ATOM     98  C   LIG    1       -0.839  -3.751  -3.813  0.00  0.00    -0.045 A 
ATOM     99  C   LIG    1       -1.537  -4.756  -4.518  0.00  0.00    +0.004 A 
ATOM    100  C   LIG    1       -1.342  -6.093  -4.197  0.00  0.00    +0.000 A 
ATOM    101  C   LIG    1       -0.470  -6.448  -3.175  0.00  0.00    +0.000 A 
ATOM    102  C   LIG    1        0.213  -5.470  -2.462  0.00  0.00    +0.000 A 
ATOM    103  C   LIG    1        0.032  -4.128  -2.768  0.00  0.00    +0.004 A 
ENDBRANCH  97  98
ENDBRANCH  20  97
BRANCH  25 104
ATOM    104  C   LIG    1       -3.730   2.930  -4.491  0.00  0.00    +0.046 C 
BRANCH 104 105
ATOM    105  C   LIG    1       -3.673   2.997  -6.031  0.00  0.00    +0.080 C 
BRANCH 105 106
ATOM    106  N   LIG    1       -4.763   3.809  -6.538  0.00  0.00    -0.330 NA
ATOM    107  H   LIG    1       -4.712   3.855  -7.546  0.00  0.00    +0.118 HD
ATOM    108  H   LIG    1       -4.669   4.757  -6.203  0.00  0.00    +0.118 HD
ENDBRANCH 105 106
ENDBRANCH 104 105
ENDBRANCH  25 104
TORSDOF 36
