REMARK  Name = DB00799
REMARK                            x       y       z     vdW  Elec       q    Type
REMARK                         _______ _______ _______ _____ _____    ______ ____
ROOT
ATOM      1  C   LIG    1       -1.225  -0.014   0.027  0.00  0.00    -0.060 C 
ATOM      2  C   LIG    1       -0.003  -0.023   0.032  0.00  0.00    -0.041 C 
ENDROOT
BRANCH   1   7
ATOM      3  S   LIG    1       -7.236   0.170  -0.006  0.00  0.00    -0.125 S 
ATOM      4  C   LIG    1       -5.471   0.075  -0.036  0.00  0.00    +0.012 A 
ATOM      5  C   LIG    1       -4.756   0.988   0.741  0.00  0.00    +0.016 A 
ATOM      6  C   LIG    1       -3.367   0.964   0.764  0.00  0.00    +0.018 A 
ATOM      7  C   LIG    1       -2.680   0.016   0.010  0.00  0.00    +0.026 A 
ATOM      8  C   LIG    1       -3.396  -0.905  -0.760  0.00  0.00    +0.022 A 
ATOM      9  C   LIG    1       -4.803  -0.903  -0.810  0.00  0.00    -0.027 A 
ATOM     10  C   LIG    1       -5.618  -1.939  -1.637  0.00  0.00    -0.008 C 
ATOM     11  C   LIG    1       -4.739  -2.665  -2.692  0.00  0.00    +0.016 C 
ATOM     12  C   LIG    1       -6.228  -2.984  -0.667  0.00  0.00    +0.016 C 
ATOM     13  C   LIG    1       -6.755  -1.213  -2.437  0.00  0.00    +0.022 C 
ATOM     14  C   LIG    1       -7.457   0.006  -1.795  0.00  0.00    +0.075 C 
ENDBRANCH   1   7
BRANCH   2  15
ATOM     15  C   LIG    1        1.451  -0.022   0.022  0.00  0.00    +0.114 A 
ATOM     16  C   LIG    1        2.168  -0.614  -1.020  0.00  0.00    +0.038 A 
ATOM     17  C   LIG    1        3.563  -0.574  -0.971  0.00  0.00    +0.019 A 
ATOM     18  C   LIG    1        4.215   0.051   0.107  0.00  0.00    +0.077 A 
ATOM     19  C   LIG    1        3.406   0.617   1.105  0.00  0.00    +0.127 A 
ATOM     20  N   LIG    1        2.048   0.588   1.076  0.00  0.00    -0.246 NA
BRANCH  18  21
ATOM     21  C   LIG    1        5.707   0.128   0.216  0.00  0.00    +0.341 C 
ATOM     22  O   LIG    1        6.291   0.684   1.151  0.00  0.00    -0.245 OA
BRANCH  21  23
ATOM     23  O   LIG    1        6.348  -0.476  -0.816  0.00  0.00    -0.461 OA
BRANCH  23  24
ATOM     24  C   LIG    1        7.768  -0.506  -0.884  0.00  0.00    +0.229 C 
ATOM     25  C   LIG    1        8.200  -1.243  -2.156  0.00  0.00    +0.048 C 
ENDBRANCH  23  24
ENDBRANCH  21  23
ENDBRANCH  18  21
ENDBRANCH   2  15
TORSDOF 5
