REMARK  Name = DB00593
REMARK                            x       y       z     vdW  Elec       q    Type
REMARK                         _______ _______ _______ _____ _____    ______ ____
ROOT
ATOM      1  O   LIG    1       -0.349   2.283   0.835  0.00  0.00    -0.275 OA
ATOM      2  C   LIG    1       -0.580   1.425  -0.016  0.00  0.00    +0.226 C 
ATOM      3  C   LIG    1       -0.029  -0.009  -0.016  0.00  0.00    +0.053 C 
ATOM      4  C   LIG    1       -0.520  -0.703   1.281  0.00  0.00    +0.021 C 
ATOM      5  C   LIG    1       -0.662  -0.625  -1.255  0.00  0.00    +0.112 C 
ATOM      6  C   LIG    1       -1.460   0.491  -1.900  0.00  0.00    +0.220 C 
ATOM      7  O   LIG    1       -2.095   0.400  -2.949  0.00  0.00    -0.275 OA
ATOM      8  N   LIG    1       -1.345   1.579  -1.116  0.00  0.00    -0.256 N 
ATOM      9  H   LIG    1       -1.803   2.452  -1.335  0.00  0.00    +0.157 HD
ENDROOT
BRANCH   3  10
ATOM     10  C   LIG    1        1.534   0.018  -0.063  0.00  0.00    +0.013 C 
ATOM     11  C   LIG    1        2.196   0.775  -1.235  0.00  0.00    +0.005 C 
ENDBRANCH   3  10
TORSDOF 1
