REMARK  Name = DB00686
REMARK                            x       y       z     vdW  Elec       q    Type
REMARK                         _______ _______ _______ _____ _____    ______ ____
ROOT
ATOM      1  O   LIG    1        0.284   0.322  -0.537  0.00  0.00    -0.340 OA
ENDROOT
BRANCH   1   7
ATOM      2  C   LIG    1        2.035  -1.298  -0.213  0.00  0.00    +0.219 C 
ATOM      3  C   LIG    1        3.557  -1.535  -0.293  0.00  0.00    +0.241 C 
ATOM      4  C   LIG    1        4.104  -1.064  -1.658  0.00  0.00    +0.281 C 
ATOM      5  O   LIG    1        3.729   0.268  -1.921  0.00  0.00    -0.346 OA
ATOM      6  C   LIG    1        2.314   0.468  -1.943  0.00  0.00    +0.197 C 
ATOM      7  C   LIG    1        1.703   0.159  -0.563  0.00  0.00    +0.181 C 
BRANCH   4   8
ATOM      8  O   LIG    1        5.471  -1.152  -1.600  0.00  0.00    -0.365 OA
ATOM      9  H   LIG    1        5.814  -0.988  -2.481  0.00  0.00    +0.213 HD
ENDBRANCH   4   8
BRANCH   2  10
ATOM     10  O   LIG    1        1.583  -1.596   1.101  0.00  0.00    -0.207 OA
BRANCH  10  11
ATOM     11  S   LIG    1        0.368  -2.724   1.278  0.00  0.00    +0.208 S 
ATOM     12  O   LIG    1        0.828  -3.993   0.703  0.00  0.00    -0.118 OA
ATOM     13  O   LIG    1       -0.898  -2.111   0.862  0.00  0.00    -0.118 OA
BRANCH  11  14
ATOM     14  O   LIG    1        0.364  -2.873   2.930  0.00  0.00    -0.231 OA
ATOM     15  H   LIG    1        1.172  -3.328   3.238  0.00  0.00    +0.247 HD
ENDBRANCH  11  14
ENDBRANCH  10  11
ENDBRANCH   2  10
BRANCH   3  16
ATOM     16  O   LIG    1        3.823  -2.924  -0.118  0.00  0.00    -0.205 OA
BRANCH  16  17
ATOM     17  S   LIG    1        4.553  -3.410   1.302  0.00  0.00    +0.208 S 
ATOM     18  O   LIG    1        3.623  -3.182   2.414  0.00  0.00    -0.118 OA
ATOM     19  O   LIG    1        5.917  -2.871   1.327  0.00  0.00    -0.118 OA
BRANCH  17  20
ATOM     20  O   LIG    1        4.644  -5.044   1.023  0.00  0.00    -0.231 OA
ATOM     21  H   LIG    1        5.366  -5.249   0.399  0.00  0.00    +0.247 HD
ENDBRANCH  17  20
ENDBRANCH  16  17
ENDBRANCH   3  16
ENDBRANCH   1   7
BRANCH   1  22
ATOM     22  C   LIG    1       -0.287   1.586  -0.336  0.00  0.00    +0.285 C 
ATOM     23  C   LIG    1        0.075   2.193   1.040  0.00  0.00    +0.241 C 
ATOM     24  C   LIG    1       -0.750   3.492   1.220  0.00  0.00    +0.218 C 
ATOM     25  C   LIG    1       -0.490   4.431   0.026  0.00  0.00    +0.174 C 
ATOM     26  C   LIG    1       -0.739   3.686  -1.301  0.00  0.00    +0.197 C 
ATOM     27  O   LIG    1        0.022   2.477  -1.379  0.00  0.00    -0.346 OA
BRANCH  25  28
ATOM     28  O   LIG    1       -1.306   5.585   0.085  0.00  0.00    -0.387 OA
ATOM     29  H   LIG    1       -1.008   6.132   0.817  0.00  0.00    +0.210 HD
ENDBRANCH  25  28
BRANCH  24  30
ATOM     30  O   LIG    1       -0.389   4.162   2.423  0.00  0.00    -0.207 OA
BRANCH  30  31
ATOM     31  S   LIG    1       -1.541   4.321   3.625  0.00  0.00    +0.208 S 
ATOM     32  O   LIG    1       -0.919   5.025   4.751  0.00  0.00    -0.118 OA
ATOM     33  O   LIG    1       -2.222   3.034   3.811  0.00  0.00    -0.118 OA
BRANCH  31  34
ATOM     34  O   LIG    1       -2.596   5.366   2.881  0.00  0.00    -0.231 OA
ATOM     35  H   LIG    1       -3.447   4.925   2.693  0.00  0.00    +0.247 HD
ENDBRANCH  31  34
ENDBRANCH  30  31
ENDBRANCH  24  30
BRANCH  23  36
ATOM     36  O   LIG    1       -0.188   1.249   2.074  0.00  0.00    -0.205 OA
BRANCH  36  37
ATOM     37  S   LIG    1        0.923   1.088   3.316  0.00  0.00    +0.208 S 
ATOM     38  O   LIG    1        0.849   2.272   4.178  0.00  0.00    -0.118 OA
ATOM     39  O   LIG    1        2.204   0.644   2.758  0.00  0.00    -0.118 OA
BRANCH  37  40
ATOM     40  O   LIG    1        0.240  -0.185   4.132  0.00  0.00    -0.231 OA
ATOM     41  H   LIG    1       -0.561   0.101   4.612  0.00  0.00    +0.247 HD
ENDBRANCH  37  40
ENDBRANCH  36  37
ENDBRANCH  23  36
ENDBRANCH   1  22
TORSDOF 16
