REMARK  Name = DB00223
REMARK                            x       y       z     vdW  Elec       q    Type
REMARK                         _______ _______ _______ _____ _____    ______ ____
ROOT
ATOM      1  C   LIG    1       -3.421  -2.428   4.290  0.00  0.00    +0.047 C 
ATOM      2  C   LIG    1       -2.714  -3.767   4.648  0.00  0.00    +0.023 C 
ATOM      3  C   LIG    1       -3.635  -1.687   5.621  0.00  0.00    -0.009 C 
ATOM      4  C   LIG    1       -4.829  -1.398   6.174  0.00  0.00    +0.047 C 
ATOM      5  C   LIG    1       -6.111  -1.753   5.574  0.00  0.00    +0.179 C 
ATOM      6  O   LIG    1       -7.192  -1.486   6.093  0.00  0.00    -0.288 OA
ATOM      7  C   LIG    1       -5.986  -2.453   4.295  0.00  0.00    +0.054 C 
ATOM      8  C   LIG    1       -4.816  -2.774   3.684  0.00  0.00    -0.020 C 
ATOM      9  C   LIG    1       -4.745  -3.486   2.323  0.00  0.00    +0.194 C 
ATOM     10  F   LIG    1       -5.973  -3.729   1.858  0.00  0.00    -0.241 F 
ATOM     11  C   LIG    1       -3.999  -2.583   1.325  0.00  0.00    +0.048 C 
ATOM     12  C   LIG    1       -2.583  -2.196   1.815  0.00  0.00    +0.037 C 
ATOM     13  C   LIG    1       -1.851  -1.269   0.803  0.00  0.00    +0.005 C 
ATOM     14  C   LIG    1       -1.730  -1.685  -0.669  0.00  0.00    +0.011 C 
ATOM     15  C   LIG    1       -0.637  -0.759  -1.261  0.00  0.00    +0.026 C 
ATOM     16  C   LIG    1        0.281  -1.517  -2.251  0.00  0.00    +0.011 C 
ATOM     17  C   LIG    1       -0.002  -0.003  -0.023  0.00  0.00    +0.134 C 
ATOM     18  C   LIG    1       -0.410  -0.891   1.227  0.00  0.00    +0.010 C 
ATOM     19  C   LIG    1        0.504  -2.155   1.394  0.00  0.00    +0.015 C 
ATOM     20  C   LIG    1       -0.539  -0.130   2.586  0.00  0.00    +0.044 C 
ATOM     21  C   LIG    1       -1.252  -0.946   3.704  0.00  0.00    +0.154 C 
ATOM     22  C   LIG    1       -2.645  -1.527   3.239  0.00  0.00    +0.153 C 
ATOM     23  F   LIG    1       -3.398  -0.427   3.088  0.00  0.00    -0.238 F 
ENDROOT
BRANCH  17  24
ATOM     24  O   LIG    1       -0.605   1.291   0.043  0.00  0.00    -0.380 OA
ATOM     25  H   LIG    1       -1.558   1.180   0.069  0.00  0.00    +0.211 HD
ENDBRANCH  17  24
BRANCH  17  26
ATOM     26  C   LIG    1        1.549   0.256  -0.125  0.00  0.00    +0.190 C 
ATOM     27  O   LIG    1        2.343  -0.665  -0.321  0.00  0.00    -0.292 OA
BRANCH  26  28
ATOM     28  C   LIG    1        2.123   1.678  -0.006  0.00  0.00    +0.233 C 
BRANCH  28  29
ATOM     29  O   LIG    1        1.991   2.321  -1.258  0.00  0.00    -0.387 OA
ATOM     30  H   LIG    1        2.387   3.193  -1.197  0.00  0.00    +0.210 HD
ENDBRANCH  28  29
ENDBRANCH  26  28
ENDBRANCH  17  26
BRANCH  21  31
ATOM     31  O   LIG    1       -0.372  -1.898   4.269  0.00  0.00    -0.389 OA
ATOM     32  H   LIG    1       -0.804  -2.302   5.024  0.00  0.00    +0.210 HD
ENDBRANCH  21  31
TORSDOF 5
