REMARK  Name = DB00351
REMARK                            x       y       z     vdW  Elec       q    Type
REMARK                         _______ _______ _______ _____ _____    ______ ____
ROOT
ATOM      1  C   LIG    1        7.822   1.990   2.910  0.00  0.00    +0.044 C 
ATOM      2  C   LIG    1        6.502   1.282   3.206  0.00  0.00    -0.050 C 
ATOM      3  C   LIG    1        6.386   0.281   4.286  0.00  0.00    -0.035 C 
ATOM      4  C   LIG    1        4.967  -0.183   4.731  0.00  0.00    -0.003 C 
ATOM      5  C   LIG    1        4.101  -0.311   3.430  0.00  0.00    +0.006 C 
ATOM      6  C   LIG    1        4.027   1.024   2.614  0.00  0.00    +0.020 C 
ATOM      7  C   LIG    1        3.297   0.761   1.269  0.00  0.00    +0.006 C 
ATOM      8  C   LIG    1        1.843   0.243   1.473  0.00  0.00    +0.018 C 
ATOM      9  C   LIG    1        1.389   0.171  -0.037  0.00  0.00    +0.176 C 
ATOM     10  C   LIG    1        1.951   1.513  -0.623  0.00  0.00    +0.057 C 
ATOM     11  C   LIG    1        1.950  -1.106   2.248  0.00  0.00    +0.011 C 
ATOM     12  C   LIG    1        0.945   1.241   2.289  0.00  0.00    +0.016 C 
ATOM     13  C   LIG    1        3.173   1.893   0.239  0.00  0.00    +0.009 C 
ATOM     14  C   LIG    1        2.686  -0.942   3.604  0.00  0.00    +0.005 C 
ATOM     15  C   LIG    1        5.072  -1.557   5.466  0.00  0.00    +0.019 C 
ATOM     16  C   LIG    1        6.184  -1.627   6.530  0.00  0.00    +0.080 C 
ATOM     17  C   LIG    1        7.535  -1.204   5.951  0.00  0.00    +0.156 C 
ATOM     18  O   LIG    1        8.598  -1.619   6.409  0.00  0.00    -0.293 OA
ATOM     19  C   LIG    1        4.387   0.880   5.704  0.00  0.00    +0.016 C 
ATOM     20  C   LIG    1        7.504  -0.204   4.890  0.00  0.00    +0.050 C 
ATOM     21  C   LIG    1        5.422   1.622   2.469  0.00  0.00    -0.019 C 
ENDROOT
BRANCH   9  22
ATOM     22  C   LIG    1       -0.157  -0.007  -0.225  0.00  0.00    +0.174 C 
ATOM     23  O   LIG    1       -0.855   0.867  -0.740  0.00  0.00    -0.293 OA
ATOM     24  C   LIG    1       -0.809  -1.306   0.249  0.00  0.00    +0.090 C 
ENDBRANCH   9  22
BRANCH   9  25
ATOM     25  O   LIG    1        2.021  -0.983  -0.660  0.00  0.00    -0.450 OA
BRANCH  25  26
ATOM     26  C   LIG    1        1.988  -1.312  -1.989  0.00  0.00    +0.305 C 
ATOM     27  O   LIG    1        1.405  -0.700  -2.883  0.00  0.00    -0.251 OA
ATOM     28  C   LIG    1        2.775  -2.582  -2.283  0.00  0.00    +0.136 C 
ENDBRANCH  25  26
ENDBRANCH   9  25
TORSDOF 3
