REMARK  Name = DB00900
REMARK                            x       y       z     vdW  Elec       q    Type
REMARK                         _______ _______ _______ _____ _____    ______ ____
ROOT
ATOM      1  N   LIG    1       -2.532   2.351  -0.665  0.00  0.00    -0.289 N 
ATOM      2  C   LIG    1       -3.742   2.911  -0.303  0.00  0.00    +0.203 A 
ATOM      3  N   LIG    1       -3.876   4.189  -0.595  0.00  0.00    -0.229 NA
ATOM      4  C   LIG    1       -2.730   4.529  -1.160  0.00  0.00    +0.172 A 
ATOM      5  C   LIG    1       -2.319   5.846  -1.674  0.00  0.00    +0.301 A 
ATOM      6  N   LIG    1       -0.999   5.853  -2.195  0.00  0.00    -0.198 NA
ATOM      7  C   LIG    1       -0.251   4.800  -2.216  0.00  0.00    +0.202 A 
ATOM      8  N   LIG    1       -0.607   3.536  -1.749  0.00  0.00    -0.330 N 
ATOM      9  H   LIG    1        0.042   2.763  -1.776  0.00  0.00    +0.168 HD
ATOM     10  O   LIG    1       -3.069   6.821  -1.639  0.00  0.00    -0.263 OA
ATOM     11  C   LIG    1       -1.879   3.425  -1.220  0.00  0.00    +0.147 A 
ENDROOT
BRANCH   1  16
ATOM     12  O   LIG    1       -1.001   0.975   0.404  0.00  0.00    -0.351 OA
ATOM     13  C   LIG    1       -0.099  -0.093   0.115  0.00  0.00    +0.146 C 
ATOM     14  C   LIG    1       -0.743  -0.787  -1.087  0.00  0.00    +0.038 C 
ATOM     15  C   LIG    1       -1.605   0.278  -1.734  0.00  0.00    +0.057 C 
ATOM     16  C   LIG    1       -2.085   0.989  -0.476  0.00  0.00    +0.222 C 
BRANCH  13  17
ATOM     17  C   LIG    1        1.307   0.478  -0.153  0.00  0.00    +0.187 C 
BRANCH  17  18
ATOM     18  O   LIG    1        1.838   1.076   1.012  0.00  0.00    -0.392 OA
ATOM     19  H   LIG    1        2.712   1.420   0.811  0.00  0.00    +0.210 HD
ENDBRANCH  17  18
ENDBRANCH  13  17
ENDBRANCH   1  16
TORSDOF 3
