REMARK  Name = DB00219
REMARK                            x       y       z     vdW  Elec       q    Type
REMARK                         _______ _______ _______ _____ _____    ______ ____
ROOT
ATOM      1  C   LIG    1        4.127   3.444   1.302  0.00  0.00    +0.190 C 
ENDROOT
BRANCH   1   2
ATOM      2  C   LIG    1        2.878   4.283   0.906  0.00  0.00    -0.005 A 
ATOM      3  C   LIG    1        2.367   4.261  -0.404  0.00  0.00    +0.007 A 
ATOM      4  C   LIG    1        1.236   4.999  -0.739  0.00  0.00    +0.000 A 
ATOM      5  C   LIG    1        0.595   5.761   0.232  0.00  0.00    +0.000 A 
ATOM      6  C   LIG    1        1.076   5.789   1.537  0.00  0.00    +0.000 A 
ATOM      7  C   LIG    1        2.209   5.053   1.871  0.00  0.00    +0.007 A 
ENDBRANCH   1   2
BRANCH   1   8
ATOM      8  C   LIG    1        5.186   3.257   0.142  0.00  0.00    +0.036 C 
ATOM      9  C   LIG    1        5.727   4.604  -0.418  0.00  0.00    +0.007 C 
ATOM     10  C   LIG    1        6.638   4.394  -1.644  0.00  0.00    +0.000 C 
ATOM     11  C   LIG    1        7.814   3.450  -1.322  0.00  0.00    +0.000 C 
ATOM     12  C   LIG    1        7.343   2.128  -0.683  0.00  0.00    +0.000 C 
ATOM     13  C   LIG    1        6.417   2.378   0.524  0.00  0.00    +0.007 C 
ENDBRANCH   1   8
BRANCH   1  14
ATOM     14  O   LIG    1        4.841   4.060   2.374  0.00  0.00    -0.373 OA
ATOM     15  H   LIG    1        5.437   3.411   2.754  0.00  0.00    +0.211 HD
ENDBRANCH   1  14
BRANCH   1  16
ATOM     16  C   LIG    1        3.590   2.073   1.814  0.00  0.00    +0.344 C 
ATOM     17  O   LIG    1        3.838   1.638   2.944  0.00  0.00    -0.247 OA
BRANCH  16  18
ATOM     18  O   LIG    1        2.866   1.412   0.878  0.00  0.00    -0.464 OA
BRANCH  18  19
ATOM     19  C   LIG    1        2.262   0.157   1.165  0.00  0.00    +0.214 C 
BRANCH  19  20
ATOM     20  C   LIG    1        1.220  -0.183   0.072  0.00  0.00    -0.034 C 
BRANCH  20  21
ATOM     21  N   LIG    1       -0.233   0.303   0.385  0.00  0.00    +0.380 N 
ATOM     22  C   LIG    1       -0.744  -0.408   1.670  0.00  0.00    -0.092 C 
BRANCH  21  23
ATOM     23  C   LIG    1       -1.175  -0.149  -0.779  0.00  0.00    -0.079 C 
ATOM     24  C   LIG    1       -0.890   0.530  -2.137  0.00  0.00    -0.016 C 
ENDBRANCH  21  23
BRANCH  21  25
ATOM     25  C   LIG    1       -0.247   1.851   0.599  0.00  0.00    -0.079 C 
ATOM     26  C   LIG    1       -1.655   2.458   0.778  0.00  0.00    -0.016 C 
ENDBRANCH  21  25
ENDBRANCH  20  21
ENDBRANCH  19  20
ENDBRANCH  18  19
ENDBRANCH  16  18
ENDBRANCH   1  16
TORSDOF 10
