REMARK  Name = DB00176
REMARK                            x       y       z     vdW  Elec       q    Type
REMARK                         _______ _______ _______ _____ _____    ______ ____
ROOT
ATOM      1  C   LIG    1        0.053   0.110   0.502  0.00  0.00    +0.087 C 
ATOM      2  N   LIG    1       -0.621   1.112   0.922  0.00  0.00    -0.089 NA
ENDROOT
BRANCH   1   6
ATOM      3  C   LIG    1       -1.972  -3.600  -0.268  0.00  0.00    +0.055 A 
ATOM      4  C   LIG    1       -0.706  -3.600   0.322  0.00  0.00    +0.013 A 
ATOM      5  C   LIG    1       -0.048  -2.399   0.574  0.00  0.00    +0.010 A 
ATOM      6  C   LIG    1       -0.639  -1.172   0.241  0.00  0.00    -0.001 A 
ATOM      7  C   LIG    1       -1.911  -1.184  -0.351  0.00  0.00    +0.010 A 
ATOM      8  C   LIG    1       -2.571  -2.384  -0.604  0.00  0.00    +0.013 A 
BRANCH   3   9
ATOM      9  C   LIG    1       -2.688  -4.924  -0.536  0.00  0.00    +0.417 C 
ATOM     10  F   LIG    1       -4.006  -4.761  -0.664  0.00  0.00    -0.166 F 
ATOM     11  F   LIG    1       -2.475  -5.790   0.457  0.00  0.00    -0.166 F 
ATOM     12  F   LIG    1       -2.219  -5.450  -1.667  0.00  0.00    -0.166 F 
ENDBRANCH   3   9
ENDBRANCH   1   6
BRANCH   1  13
ATOM     13  C   LIG    1        1.566   0.143   0.168  0.00  0.00    +0.059 C 
BRANCH  13  14
ATOM     14  C   LIG    1        1.854  -0.025  -1.343  0.00  0.00    +0.008 C 
BRANCH  14  15
ATOM     15  C   LIG    1        1.307   1.123  -2.219  0.00  0.00    +0.028 C 
BRANCH  15  16
ATOM     16  C   LIG    1        1.676   0.982  -3.703  0.00  0.00    +0.159 C 
BRANCH  16  17
ATOM     17  O   LIG    1        1.118   2.078  -4.413  0.00  0.00    -0.383 OA
ATOM     18  C   LIG    1        1.397   2.052  -5.804  0.00  0.00    +0.193 C 
ENDBRANCH  16  17
ENDBRANCH  15  16
ENDBRANCH  14  15
ENDBRANCH  13  14
ENDBRANCH   1  13
BRANCH   2  19
ATOM     19  O   LIG    1        0.155   2.280   1.060  0.00  0.00    -0.392 OA
BRANCH  19  20
ATOM     20  C   LIG    1       -0.693   3.416   1.204  0.00  0.00    +0.277 C 
BRANCH  20  21
ATOM     21  C   LIG    1       -1.426   3.785  -0.104  0.00  0.00    +0.121 C 
BRANCH  21  22
ATOM     22  N   LIG    1       -0.479   4.174  -1.133  0.00  0.00    -0.327 NA
ATOM     23  H   LIG    1       -0.971   4.370  -1.993  0.00  0.00    +0.118 HD
ATOM     24  H   LIG    1        0.140   3.400  -1.330  0.00  0.00    +0.118 HD
ENDBRANCH  21  22
ENDBRANCH  20  21
ENDBRANCH  19  20
ENDBRANCH   2  19
TORSDOF 11
