REMARK  Name = DB00120
REMARK                            x       y       z     vdW  Elec       q    Type
REMARK                         _______ _______ _______ _____ _____    ______ ____
ROOT
ATOM      1  CA  PHE A  1        1.560  -0.011  -0.068  0.00  0.00    +0.165 C 
ENDROOT
BRANCH   1   2
ATOM      2  N   PHE A  1        2.181   0.591  -1.263  0.00  0.00    -0.318 NA
ATOM      3  H1  PHE A  1        1.748   0.260  -2.113  0.00  0.00    +0.119 HD
ATOM      4  H2  PHE A  1        3.167   0.378  -1.317  0.00  0.00    +0.119 HD
ENDBRANCH   1   2
BRANCH   1   5
ATOM      5  C   PHE A  1        2.092  -1.452   0.093  0.00  0.00    +0.322 C 
ATOM      6  OXT PHE A  1        2.502  -2.143  -0.841  0.00  0.00    -0.249 OA
BRANCH   5   7
ATOM      7  O   PHE A  1        2.023  -1.853   1.396  0.00  0.00    -0.480 OA
ATOM      8  H   PHE A  1        2.344  -2.749   1.518  0.00  0.00    +0.295 HD
ENDBRANCH   5   7
ENDBRANCH   1   5
BRANCH   1   9
ATOM      9  CB  PHE A  1        0.014   0.026  -0.102  0.00  0.00    +0.065 C 
BRANCH   9  10
ATOM     10  CG  PHE A  1       -0.590   1.420  -0.043  0.00  0.00    -0.045 A 
ATOM     11  CD2 PHE A  1       -0.860   2.132  -1.231  0.00  0.00    +0.004 A 
ATOM     12  CE2 PHE A  1       -1.322   3.440  -1.167  0.00  0.00    +0.000 A 
ATOM     13  CZ  PHE A  1       -1.492   4.063   0.064  0.00  0.00    +0.000 A 
ATOM     14  CE1 PHE A  1       -1.191   3.388   1.240  0.00  0.00    +0.000 A 
ATOM     15  CD1 PHE A  1       -0.729   2.079   1.197  0.00  0.00    +0.004 A 
ENDBRANCH   9  10
ENDBRANCH   1   9
TORSDOF 5
