REMARK  Name = DB00211
REMARK                            x       y       z     vdW  Elec       q    Type
REMARK                         _______ _______ _______ _____ _____    ______ ____
ROOT
ATOM      1  C   LIG    1        1.388  -0.171  -0.218  0.00  0.00    +0.165 C 
ENDROOT
BRANCH   1   2
ATOM      2  C   LIG    1       -0.141  -0.058  -0.163  0.00  0.00    +0.027 A 
ATOM      3  C   LIG    1       -0.904  -1.214  -0.372  0.00  0.00    +0.055 A 
ATOM      4  C   LIG    1       -2.298  -1.188  -0.324  0.00  0.00    +0.121 A 
ATOM      5  C   LIG    1       -2.936   0.032  -0.058  0.00  0.00    +0.049 A 
ATOM      6  C   LIG    1       -2.191   1.189   0.153  0.00  0.00    +0.049 A 
ATOM      7  C   LIG    1       -0.787   1.164   0.104  0.00  0.00    +0.126 A 
BRANCH   4   8
ATOM      8  O   LIG    1       -2.952  -2.384  -0.545  0.00  0.00    -0.495 OA
ATOM      9  C   LIG    1       -4.375  -2.411  -0.512  0.00  0.00    +0.277 C 
ENDBRANCH   4   8
BRANCH   7  10
ATOM     10  O   LIG    1       -0.000   2.284   0.304  0.00  0.00    -0.495 OA
ATOM     11  C   LIG    1       -0.615   3.542   0.563  0.00  0.00    +0.277 C 
ENDBRANCH   7  10
ENDBRANCH   1   2
BRANCH   1  12
ATOM     12  O   LIG    1        1.968   0.708  -1.163  0.00  0.00    -0.386 OA
ATOM     13  H   LIG    1        1.655   0.462  -2.037  0.00  0.00    +0.210 HD
ENDBRANCH   1  12
BRANCH   1  14
ATOM     14  C   LIG    1        2.065   0.035   1.162  0.00  0.00    +0.140 C 
BRANCH  14  15
ATOM     15  N   LIG    1        1.720  -0.981   2.159  0.00  0.00    -0.311 N 
ATOM     16  H   LIG    1        1.081  -0.697   2.886  0.00  0.00    +0.149 HD
ATOM     17  C   LIG    1        2.184  -2.243   2.163  0.00  0.00    +0.227 C 
ATOM     18  O   LIG    1        2.970  -2.662   1.311  0.00  0.00    -0.274 OA
BRANCH  17  19
ATOM     19  C   LIG    1        1.657  -3.131   3.308  0.00  0.00    +0.174 C 
BRANCH  19  20
ATOM     20  N   LIG    1        2.233  -4.454   3.268  0.00  0.00    -0.322 NA
ATOM     21  H   LIG    1        1.889  -4.962   2.465  0.00  0.00    +0.119 HD
ATOM     22  H   LIG    1        1.954  -4.987   4.079  0.00  0.00    +0.119 HD
ENDBRANCH  19  20
ENDBRANCH  17  19
ENDBRANCH  14  15
ENDBRANCH   1  14
TORSDOF 8
