REMARK  Name = DB00558
REMARK                            x       y       z     vdW  Elec       q    Type
REMARK                         _______ _______ _______ _____ _____    ______ ____
ROOT
ATOM      1  O   LIG    1       -0.306   1.667   0.181  0.00  0.00    -0.477 OA
ATOM      2  C   LIG    1       -1.575   2.042   0.526  0.00  0.00    +0.204 C 
ATOM      3  C   LIG    1       -2.502   1.190   1.024  0.00  0.00    +0.071 C 
ATOM      4  C   LIG    1       -2.237  -0.289   1.254  0.00  0.00    +0.238 C 
ATOM      5  C   LIG    1       -0.705  -0.546   1.263  0.00  0.00    +0.160 C 
ATOM      6  C   LIG    1       -0.032   0.256   0.104  0.00  0.00    +0.229 C 
ENDROOT
BRANCH   5   7
ATOM      7  N   LIG    1       -0.378  -1.981   1.285  0.00  0.00    -0.305 N 
ATOM      8  H   LIG    1       -0.938  -2.565   0.681  0.00  0.00    +0.149 HD
ATOM      9  C   LIG    1        0.537  -2.582   2.067  0.00  0.00    +0.210 C 
ATOM     10  C   LIG    1        0.673  -4.093   1.913  0.00  0.00    +0.109 C 
ATOM     11  O   LIG    1        1.249  -1.986   2.875  0.00  0.00    -0.276 OA
ENDBRANCH   5   7
BRANCH   2  12
ATOM     12  C   LIG    1       -1.889   3.447   0.328  0.00  0.00    +0.372 C 
ATOM     13  O   LIG    1       -2.978   3.965   0.580  0.00  0.00    -0.242 OA
BRANCH  12  14
ATOM     14  O   LIG    1       -0.838   4.158  -0.181  0.00  0.00    -0.475 OA
ATOM     15  H   LIG    1       -1.055   5.083  -0.310  0.00  0.00    +0.296 HD
ENDBRANCH  12  14
ENDBRANCH   2  12
BRANCH   4  16
ATOM     16  N   LIG    1       -2.844  -0.718   2.511  0.00  0.00    -0.104 NA
ATOM     17  C   LIG    1       -3.671  -1.688   2.551  0.00  0.00    +0.377 C 
BRANCH  17  18
ATOM     18  N   LIG    1       -4.351  -2.278   1.458  0.00  0.00    -0.289 N 
ATOM     19  H   LIG    1       -5.278  -2.640   1.625  0.00  0.00    +0.255 HD
ATOM     20  H   LIG    1       -4.306  -1.800   0.570  0.00  0.00    +0.255 HD
ENDBRANCH  17  18
BRANCH  17  21
ATOM     21  N   LIG    1       -4.043  -2.292   3.770  0.00  0.00    -0.289 N 
ATOM     22  H   LIG    1       -4.984  -2.646   3.850  0.00  0.00    +0.255 HD
ATOM     23  H   LIG    1       -3.756  -1.832   4.622  0.00  0.00    +0.255 HD
ENDBRANCH  17  21
ENDBRANCH   4  16
BRANCH   6  24
ATOM     24  C   LIG    1        1.507   0.067  -0.028  0.00  0.00    +0.187 C 
BRANCH  24  25
ATOM     25  O   LIG    1        2.146   0.470   1.172  0.00  0.00    -0.385 OA
ATOM     26  H   LIG    1        1.800  -0.062   1.895  0.00  0.00    +0.210 HD
ENDBRANCH  24  25
BRANCH  24  27
ATOM     27  C   LIG    1        2.144   0.813  -1.237  0.00  0.00    +0.172 C 
BRANCH  27  28
ATOM     28  O   LIG    1        1.525   0.424  -2.452  0.00  0.00    -0.387 OA
ATOM     29  H   LIG    1        1.733  -0.500  -2.613  0.00  0.00    +0.210 HD
ENDBRANCH  27  28
BRANCH  27  30
ATOM     30  C   LIG    1        3.676   0.640  -1.379  0.00  0.00    +0.189 C 
BRANCH  30  31
ATOM     31  O   LIG    1        4.053  -0.720  -1.497  0.00  0.00    -0.392 OA
ATOM     32  H   LIG    1        5.010  -0.768  -1.555  0.00  0.00    +0.210 HD
ENDBRANCH  30  31
ENDBRANCH  27  30
ENDBRANCH  24  27
ENDBRANCH   6  24
TORSDOF 12
