REMARK  Name = DB00810
REMARK                            x       y       z     vdW  Elec       q    Type
REMARK                         _______ _______ _______ _____ _____    ______ ____
ROOT
ATOM      1  C   LIG    1       -0.051   0.011   0.120  0.00  0.00    +0.095 C 
ENDROOT
BRANCH   1   2
ATOM      2  C   LIG    1       -0.588  -0.589  -1.230  0.00  0.00    +0.033 C 
ATOM      3  C   LIG    1       -2.140  -0.597  -1.402  0.00  0.00    +0.015 C 
ATOM      4  C   LIG    1       -2.349  -0.020  -2.825  0.00  0.00    +0.012 C 
ATOM      5  C   LIG    1       -1.288   1.063  -2.886  0.00  0.00    +0.015 C 
ATOM      6  C   LIG    1       -1.735  -0.983  -3.838  0.00  0.00    -0.027 C 
ATOM      7  C   LIG    1       -0.396  -0.894  -3.692  0.00  0.00    -0.027 C 
ATOM      8  C   LIG    1       -0.146   0.104  -2.563  0.00  0.00    +0.018 C 
ENDBRANCH   1   2
BRANCH   1   9
ATOM      9  C   LIG    1       -0.708  -0.701   1.329  0.00  0.00    -0.016 A 
ATOM     10  C   LIG    1       -0.526  -2.082   1.502  0.00  0.00    +0.006 A 
ATOM     11  C   LIG    1       -1.106  -2.746   2.579  0.00  0.00    +0.000 A 
ATOM     12  C   LIG    1       -1.875  -2.034   3.494  0.00  0.00    +0.000 A 
ATOM     13  C   LIG    1       -2.069  -0.665   3.341  0.00  0.00    +0.000 A 
ATOM     14  C   LIG    1       -1.488  -0.001   2.264  0.00  0.00    +0.006 A 
ENDBRANCH   1   9
BRANCH   1  15
ATOM     15  O   LIG    1       -0.304   1.410   0.105  0.00  0.00    -0.384 OA
ATOM     16  H   LIG    1       -1.241   1.545  -0.057  0.00  0.00    +0.211 HD
ENDBRANCH   1  15
BRANCH   1  17
ATOM     17  C   LIG    1        1.502  -0.103   0.199  0.00  0.00    +0.055 C 
BRANCH  17  18
ATOM     18  C   LIG    1        2.142   0.374   1.529  0.00  0.00    +0.087 C 
BRANCH  18  19
ATOM     19  N   LIG    1        3.588   0.601   1.428  0.00  0.00    -0.302 NA
ATOM     20  C   LIG    1        4.342  -0.631   1.142  0.00  0.00    +0.084 C 
ATOM     21  C   LIG    1        5.858  -0.370   1.023  0.00  0.00    +0.015 C 
ATOM     22  C   LIG    1        6.420   0.356   2.253  0.00  0.00    +0.002 C 
ATOM     23  C   LIG    1        5.585   1.610   2.547  0.00  0.00    +0.015 C 
ATOM     24  C   LIG    1        4.077   1.295   2.629  0.00  0.00    +0.084 C 
ENDBRANCH  18  19
ENDBRANCH  17  18
ENDBRANCH   1  17
TORSDOF 6
