REMARK  Name = DB00183
REMARK                            x       y       z     vdW  Elec       q    Type
REMARK                         _______ _______ _______ _____ _____    ______ ____
ROOT
ATOM      1  C   LIG    1        1.232  -0.334  -0.489  0.00  0.00    +0.160 C 
ENDROOT
BRANCH   1   4
ATOM      2  C   LIG    1        2.453  -0.189   1.671  0.00  0.00    +0.234 C 
ATOM      3  O   LIG    1        2.385   1.037   1.774  0.00  0.00    -0.274 OA
ATOM      4  N   LIG    1        1.987  -0.896   0.628  0.00  0.00    -0.302 N 
ATOM      5  H   LIG    1        2.075  -1.902   0.635  0.00  0.00    +0.150 HD
BRANCH   2   6
ATOM      6  C   LIG    1        3.052  -1.016   2.817  0.00  0.00    +0.163 C 
BRANCH   6   7
ATOM      7  N   LIG    1        4.338  -0.456   3.228  0.00  0.00    -0.304 N 
ATOM      8  H   LIG    1        4.474   0.524   3.024  0.00  0.00    +0.149 HD
ATOM      9  C   LIG    1        5.313  -1.148   3.839  0.00  0.00    +0.215 C 
ATOM     10  O   LIG    1        5.218  -2.346   4.111  0.00  0.00    -0.276 OA
BRANCH   9  11
ATOM     11  C   LIG    1        6.584  -0.354   4.174  0.00  0.00    +0.114 C 
BRANCH  11  12
ATOM     12  C   LIG    1        7.881  -1.157   4.458  0.00  0.00    +0.116 C 
BRANCH  12  13
ATOM     13  N   LIG    1        8.782  -0.623   5.479  0.00  0.00    -0.281 N 
ATOM     14  H   LIG    1        8.798  -1.079   6.379  0.00  0.00    +0.152 HD
ATOM     15  C   LIG    1        9.650   0.445   5.273  0.00  0.00    +0.401 C 
ATOM     16  O   LIG    1       10.419   0.874   6.132  0.00  0.00    -0.226 OA
BRANCH  15  17
ATOM     17  O   LIG    1        9.533   0.951   4.005  0.00  0.00    -0.445 OA
BRANCH  17  18
ATOM     18  C   LIG    1       10.258   2.079   3.483  0.00  0.00    +0.107 C 
ATOM     19  C   LIG    1        9.737   2.229   2.039  0.00  0.00    +0.055 C 
ATOM     20  C   LIG    1        9.939   3.370   4.278  0.00  0.00    +0.055 C 
ATOM     21  C   LIG    1       11.782   1.806   3.454  0.00  0.00    +0.055 C 
ENDBRANCH  17  18
ENDBRANCH  15  17
ENDBRANCH  12  13
ENDBRANCH  11  12
ENDBRANCH   9  11
ENDBRANCH   6   7
BRANCH   6  22
ATOM     22  C   LIG    1        2.100  -1.119   4.032  0.00  0.00    +0.069 C 
BRANCH  22  23
ATOM     23  C   LIG    1        0.679  -1.507   3.735  0.00  0.00    -0.020 A 
ATOM     24  C   LIG    1        0.167  -2.778   3.231  0.00  0.00    +0.003 A 
ATOM     25  C   LIG    1        0.752  -4.022   2.895  0.00  0.00    +0.010 A 
ATOM     26  C   LIG    1       -0.030  -5.089   2.407  0.00  0.00    +0.001 A 
ATOM     27  C   LIG    1       -1.422  -4.937   2.244  0.00  0.00    +0.002 A 
ATOM     28  C   LIG    1       -2.036  -3.713   2.568  0.00  0.00    +0.026 A 
ATOM     29  C   LIG    1       -1.245  -2.656   3.052  0.00  0.00    +0.047 A 
ATOM     30  N   LIG    1       -1.529  -1.363   3.438  0.00  0.00    -0.360 N 
ATOM     31  H   LIG    1       -2.443  -0.932   3.432  0.00  0.00    +0.165 HD
ATOM     32  C   LIG    1       -0.393  -0.689   3.833  0.00  0.00    +0.087 A 
ENDBRANCH  22  23
ENDBRANCH   6  22
ENDBRANCH   2   6
ENDBRANCH   1   4
BRANCH   1  33
ATOM     33  C   LIG    1       -0.255  -0.253  -0.115  0.00  0.00    +0.234 C 
ATOM     34  O   LIG    1       -0.888  -1.290   0.086  0.00  0.00    -0.274 OA
ATOM     35  N   LIG    1       -0.776   0.982  -0.065  0.00  0.00    -0.302 N 
ATOM     36  H   LIG    1       -0.178   1.776  -0.244  0.00  0.00    +0.150 HD
BRANCH  35  37
ATOM     37  C   LIG    1       -2.191   1.292   0.155  0.00  0.00    +0.169 C 
BRANCH  37  38
ATOM     38  C   LIG    1       -2.916   1.281  -1.204  0.00  0.00    +0.234 C 
ATOM     39  O   LIG    1       -3.156   2.338  -1.788  0.00  0.00    -0.274 OA
ATOM     40  N   LIG    1       -3.205   0.064  -1.695  0.00  0.00    -0.302 N 
ATOM     41  H   LIG    1       -2.961  -0.752  -1.152  0.00  0.00    +0.150 HD
BRANCH  40  42
ATOM     42  C   LIG    1       -3.830  -0.201  -2.992  0.00  0.00    +0.163 C 
BRANCH  42  43
ATOM     43  C   LIG    1       -5.298   0.277  -3.053  0.00  0.00    +0.231 C 
ATOM     44  N   LIG    1       -5.668   0.951  -4.146  0.00  0.00    -0.328 N 
ATOM     45  H   LIG    1       -5.001   1.140  -4.880  0.00  0.00    +0.145 HD
ATOM     46  H   LIG    1       -6.619   1.277  -4.242  0.00  0.00    +0.145 HD
ATOM     47  O   LIG    1       -6.076   0.009  -2.138  0.00  0.00    -0.274 OA
ENDBRANCH  42  43
BRANCH  42  48
ATOM     48  C   LIG    1       -3.690  -1.712  -3.287  0.00  0.00    +0.067 C 
BRANCH  48  49
ATOM     49  C   LIG    1       -4.240  -2.175  -4.625  0.00  0.00    -0.045 A 
ATOM     50  C   LIG    1       -3.498  -1.954  -5.805  0.00  0.00    +0.004 A 
ATOM     51  C   LIG    1       -4.038  -2.294  -7.039  0.00  0.00    +0.000 A 
ATOM     52  C   LIG    1       -5.318  -2.828  -7.120  0.00  0.00    +0.000 A 
ATOM     53  C   LIG    1       -6.075  -3.017  -5.970  0.00  0.00    +0.000 A 
ATOM     54  C   LIG    1       -5.553  -2.684  -4.727  0.00  0.00    +0.004 A 
ENDBRANCH  48  49
ENDBRANCH  42  48
ENDBRANCH  40  42
ENDBRANCH  37  38
BRANCH  37  55
ATOM     55  C   LIG    1       -2.357   2.643   0.903  0.00  0.00    +0.152 C 
BRANCH  55  56
ATOM     56  C   LIG    1       -1.482   2.769   2.154  0.00  0.00    +0.307 C 
ATOM     57  O   LIG    1       -1.830   2.387   3.269  0.00  0.00    -0.251 OA
BRANCH  56  58
ATOM     58  O   LIG    1       -0.275   3.349   1.891  0.00  0.00    -0.481 OA
ATOM     59  H   LIG    1        0.279   3.422   2.672  0.00  0.00    +0.295 HD
ENDBRANCH  56  58
ENDBRANCH  55  56
ENDBRANCH  37  55
ENDBRANCH  35  37
ENDBRANCH   1  33
BRANCH   1  60
ATOM     60  C   LIG    1        1.488  -1.186  -1.756  0.00  0.00    +0.042 C 
BRANCH  60  61
ATOM     61  C   LIG    1        0.586  -0.887  -2.974  0.00  0.00    +0.071 C 
BRANCH  61  62
ATOM     62  S   LIG    1        0.487   0.844  -3.519  0.00  0.00    -0.164 S 
ATOM     63  C   LIG    1        2.200   1.125  -4.037  0.00  0.00    +0.084 C 
ENDBRANCH  61  62
ENDBRANCH  60  61
ENDBRANCH   1  60
TORSDOF 23
