REMARK  Name = DB00340
REMARK                            x       y       z     vdW  Elec       q    Type
REMARK                         _______ _______ _______ _____ _____    ______ ____
ROOT
ATOM      1  S   LIG    1        4.835  -0.039   0.543  0.00  0.00    -0.089 S 
ATOM      2  C   LIG    1        3.599  -0.402   1.752  0.00  0.00    +0.016 A 
ATOM      3  C   LIG    1        3.791  -1.490   2.607  0.00  0.00    +0.015 A 
ATOM      4  C   LIG    1        2.833  -1.812   3.564  0.00  0.00    +0.001 A 
ATOM      5  C   LIG    1        1.672  -1.052   3.663  0.00  0.00    +0.000 A 
ATOM      6  C   LIG    1        1.468   0.020   2.795  0.00  0.00    +0.005 A 
ATOM      7  C   LIG    1        2.412   0.355   1.814  0.00  0.00    -0.026 A 
ATOM      8  C   LIG    1        2.161   1.517   0.840  0.00  0.00    +0.051 C 
ATOM      9  C   LIG    1        3.429   2.341   0.578  0.00  0.00    -0.026 A 
ATOM     10  C   LIG    1        3.368   3.736   0.465  0.00  0.00    +0.005 A 
ATOM     11  C   LIG    1        4.507   4.493   0.199  0.00  0.00    +0.000 A 
ATOM     12  C   LIG    1        5.736   3.861   0.035  0.00  0.00    +0.001 A 
ATOM     13  C   LIG    1        5.822   2.476   0.147  0.00  0.00    +0.015 A 
ATOM     14  C   LIG    1        4.685   1.718   0.438  0.00  0.00    +0.016 A 
ENDROOT
BRANCH   8  15
ATOM     15  C   LIG    1        1.528   1.047  -0.498  0.00  0.00    +0.017 C 
BRANCH  15  16
ATOM     16  C   LIG    1        0.170   0.311  -0.393  0.00  0.00    +0.004 C 
ATOM     17  C   LIG    1       -0.980   1.196   0.150  0.00  0.00    +0.087 C 
ATOM     18  N   LIG    1       -2.195   0.405   0.384  0.00  0.00    -0.305 NA
ATOM     19  C   LIG    1       -3.233   1.219   1.005  0.00  0.00    +0.104 C 
ATOM     20  C   LIG    1       -2.685  -0.217  -0.855  0.00  0.00    +0.084 C 
ATOM     21  C   LIG    1       -1.601  -1.079  -1.540  0.00  0.00    +0.016 C 
ATOM     22  C   LIG    1       -0.283  -0.308  -1.731  0.00  0.00    +0.006 C 
ENDBRANCH  15  16
ENDBRANCH   8  15
TORSDOF 2
