REMARK  Name = DB00564
REMARK                            x       y       z     vdW  Elec       q    Type
REMARK                         _______ _______ _______ _____ _____    ______ ____
ROOT
ATOM      1  O   LIG    1        1.783   0.666   1.470  0.00  0.00    -0.252 OA
ATOM      2  C   LIG    1        1.233  -0.229   0.828  0.00  0.00    +0.308 C 
ATOM      3  N   LIG    1        1.621  -1.499   1.021  0.00  0.00    -0.313 N 
ATOM      4  H   LIG    1        2.362  -1.708   1.673  0.00  0.00    +0.147 HD
ATOM      5  H   LIG    1        1.172  -2.251   0.517  0.00  0.00    +0.147 HD
ATOM      6  N   LIG    1        0.202  -0.014  -0.054  0.00  0.00    -0.223 N 
ATOM      7  C   LIG    1       -0.308   1.290  -0.236  0.00  0.00    +0.050 A 
ATOM      8  C   LIG    1        0.453   2.353  -0.747  0.00  0.00    +0.024 A 
ATOM      9  C   LIG    1       -0.065   3.645  -0.805  0.00  0.00    +0.002 A 
ATOM     10  C   LIG    1       -1.353   3.896  -0.344  0.00  0.00    +0.001 A 
ATOM     11  C   LIG    1       -2.125   2.854   0.164  0.00  0.00    +0.010 A 
ATOM     12  C   LIG    1       -1.623   1.549   0.218  0.00  0.00    -0.003 A 
ATOM     13  C   LIG    1       -2.529   0.473   0.687  0.00  0.00    +0.010 C 
ATOM     14  C   LIG    1       -2.530  -0.824   0.317  0.00  0.00    +0.010 C 
ATOM     15  C   LIG    1       -1.625  -1.490  -0.649  0.00  0.00    -0.003 A 
ATOM     16  C   LIG    1       -2.124  -2.571  -1.384  0.00  0.00    +0.010 A 
ATOM     17  C   LIG    1       -1.352  -3.183  -2.369  0.00  0.00    +0.001 A 
ATOM     18  C   LIG    1       -0.067  -2.719  -2.632  0.00  0.00    +0.002 A 
ATOM     19  C   LIG    1        0.448  -1.652  -1.900  0.00  0.00    +0.024 A 
ATOM     20  C   LIG    1       -0.312  -1.026  -0.900  0.00  0.00    +0.050 A 
ENDROOT
TORSDOF 0
