REMARK  Name = DB00178
REMARK                            x       y       z     vdW  Elec       q    Type
REMARK                         _______ _______ _______ _____ _____    ______ ____
ROOT
ATOM      1  N   ALA A  1        0.287   0.127   0.235  0.00  0.00    -0.294 NA
ATOM      2  H   ALA A  1        0.091  -0.196   1.172  0.00  0.00    +0.123 HD
ENDROOT
BRANCH   1   3
ATOM      3  CA  ALA A  1        0.212   1.607   0.228  0.00  0.00    +0.138 C 
ATOM      4  CB  ALA A  1        0.231   2.225  -1.188  0.00  0.00    +0.034 C 
BRANCH   3   5
ATOM      5  C   ALA A  1       -1.116   1.999   0.937  0.00  0.00    +0.233 C 
ATOM      6  O   ALA A  1       -2.150   1.410   0.605  0.00  0.00    -0.274 OA
ATOM      7  N   UNK A  2       -1.115   2.983   1.879  0.00  0.00    -0.283 N 
ATOM      8  C   UNK A  2        0.079   3.701   2.370  0.00  0.00    +0.080 C 
ATOM      9  C   UNK A  2       -0.401   4.439   3.635  0.00  0.00    +0.012 C 
ATOM     10  C   UNK A  2       -0.287   5.942   3.336  0.00  0.00    +0.005 C 
ATOM     11  C   UNK A  2        0.844   6.032   2.314  0.00  0.00    +0.002 C 
ATOM     12  C   UNK A  2       -1.798   3.909   3.944  0.00  0.00    +0.039 C 
ATOM     13  C   UNK A  2        0.656   4.791   1.442  0.00  0.00    +0.023 C 
ATOM     14  C   UNK A  2       -2.337   3.394   2.605  0.00  0.00    +0.185 C 
BRANCH  14  15
ATOM     15  C   UNK A  2       -3.245   4.416   1.866  0.00  0.00    +0.325 C 
ATOM     16  O   UNK A  2       -4.226   4.906   2.387  0.00  0.00    -0.249 OA
BRANCH  15  17
ATOM     17  O   UNK A  2       -2.825   4.695   0.596  0.00  0.00    -0.479 OA
ATOM     18  H   UNK A  2       -3.400   5.321   0.150  0.00  0.00    +0.295 HD
ENDBRANCH  15  17
ENDBRANCH  14  15
ENDBRANCH   3   5
ENDBRANCH   1   3
BRANCH   1  19
ATOM     19  C   UNK A  0        1.621  -0.396  -0.135  0.00  0.00    +0.164 C 
BRANCH  19  20
ATOM     20  C   UNK A  0        1.414  -1.460  -1.199  0.00  0.00    +0.324 C 
ATOM     21  O   UNK A  0        1.437  -2.673  -0.970  0.00  0.00    -0.249 OA
BRANCH  20  22
ATOM     22  O   UNK A  0        1.198  -0.900  -2.411  0.00  0.00    -0.464 OA
BRANCH  22  23
ATOM     23  C   UNK A  0        0.963  -1.708  -3.555  0.00  0.00    +0.229 C 
ATOM     24  C   UNK A  0        0.716  -0.806  -4.769  0.00  0.00    +0.048 C 
ENDBRANCH  22  23
ENDBRANCH  20  22
ENDBRANCH  19  20
BRANCH  19  25
ATOM     25  C   UNK A  0        2.389  -0.918   1.107  0.00  0.00    +0.035 C 
BRANCH  25  26
ATOM     26  C   UNK A  0        3.878  -1.234   0.853  0.00  0.00    +0.037 C 
BRANCH  26  28
ATOM     27  C   UNK A  0        4.646  -3.088   2.389  0.00  0.00    +0.003 A 
ATOM     28  C   UNK A  0        4.596  -1.721   2.103  0.00  0.00    -0.047 A 
ATOM     29  C   UNK A  0        5.196  -0.801   2.967  0.00  0.00    +0.003 A 
ATOM     30  C   UNK A  0        5.846  -1.248   4.114  0.00  0.00    +0.000 A 
ATOM     31  C   UNK A  0        5.895  -2.612   4.393  0.00  0.00    +0.000 A 
ATOM     32  C   UNK A  0        5.298  -3.534   3.535  0.00  0.00    +0.000 A 
ENDBRANCH  26  28
ENDBRANCH  25  26
ENDBRANCH  19  25
ENDBRANCH   1  19
TORSDOF 11
