REMARK  Name = DB00612
REMARK                            x       y       z     vdW  Elec       q    Type
REMARK                         _______ _______ _______ _____ _____    ______ ____
ROOT
ATOM      1  C   LIG    1        0.003  -0.208   0.106  0.00  0.00    +0.121 A 
ATOM      2  C   LIG    1       -0.579   1.061   0.103  0.00  0.00    +0.046 A 
ATOM      3  C   LIG    1       -1.963   1.206   0.078  0.00  0.00    +0.009 A 
ATOM      4  C   LIG    1       -2.780   0.074   0.057  0.00  0.00    -0.022 A 
ATOM      5  C   LIG    1       -2.210  -1.199   0.073  0.00  0.00    +0.009 A 
ATOM      6  C   LIG    1       -0.825  -1.342   0.097  0.00  0.00    +0.046 A 
ENDROOT
BRANCH   1   7
ATOM      7  O   LIG    1        1.383  -0.251   0.119  0.00  0.00    -0.489 OA
BRANCH   7   8
ATOM      8  C   LIG    1        2.047  -1.509   0.017  0.00  0.00    +0.261 C 
BRANCH   8   9
ATOM      9  C   LIG    1        3.563  -1.269  -0.138  0.00  0.00    +0.166 C 
BRANCH   9  10
ATOM     10  O   LIG    1        4.247  -2.509  -0.111  0.00  0.00    -0.387 OA
ATOM     11  H   LIG    1        4.009  -2.973   0.695  0.00  0.00    +0.210 HD
ENDBRANCH   9  10
BRANCH   9  12
ATOM     12  C   LIG    1        3.960  -0.468  -1.403  0.00  0.00    +0.115 C 
BRANCH  12  13
ATOM     13  N   LIG    1        3.478  -1.091  -2.635  0.00  0.00    -0.311 NA
ATOM     14  H   LIG    1        2.505  -1.346  -2.541  0.00  0.00    +0.122 HD
BRANCH  13  15
ATOM     15  C   LIG    1        3.670  -0.274  -3.831  0.00  0.00    +0.048 C 
ATOM     16  C   LIG    1        5.163  -0.115  -4.185  0.00  0.00    +0.023 C 
ATOM     17  C   LIG    1        2.890  -0.941  -4.976  0.00  0.00    +0.023 C 
ENDBRANCH  13  15
ENDBRANCH  12  13
ENDBRANCH   9  12
ENDBRANCH   8   9
ENDBRANCH   7   8
ENDBRANCH   1   7
BRANCH   4  18
ATOM     18  C   LIG    1       -4.292   0.225   0.023  0.00  0.00    +0.195 C 
BRANCH  18  19
ATOM     19  O   LIG    1       -4.794   0.153   1.350  0.00  0.00    -0.373 OA
BRANCH  19  20
ATOM     20  C   LIG    1       -6.213   0.199   1.423  0.00  0.00    +0.188 C 
BRANCH  20  21
ATOM     21  C   LIG    1       -6.652   0.142   2.892  0.00  0.00    +0.188 C 
BRANCH  21  22
ATOM     22  O   LIG    1       -6.144   1.282   3.578  0.00  0.00    -0.375 OA
BRANCH  22  23
ATOM     23  C   LIG    1       -6.509   1.393   4.951  0.00  0.00    +0.112 C 
ATOM     24  C   LIG    1       -5.712   0.406   5.825  0.00  0.00    +0.037 C 
ATOM     25  C   LIG    1       -6.262   2.849   5.370  0.00  0.00    +0.037 C 
ENDBRANCH  22  23
ENDBRANCH  21  22
ENDBRANCH  20  21
ENDBRANCH  19  20
ENDBRANCH  18  19
ENDBRANCH   4  18
TORSDOF 13
