REMARK  Name = DB00173
REMARK                            x       y       z     vdW  Elec       q    Type
REMARK                         _______ _______ _______ _____ _____    ______ ____
ROOT
ATOM      1  N   LIG    1        1.950   2.537   0.000  0.00  0.00    -0.340 N 
ATOM      2  H   LIG    1        1.067   3.027   0.000  0.00  0.00    +0.167 HD
ATOM      3  C   LIG    1        3.177   3.161   0.000  0.00  0.00    +0.199 A 
ATOM      4  N   LIG    1        4.197   2.338   0.000  0.00  0.00    -0.216 NA
ATOM      5  C   LIG    1        3.622   1.095   0.000  0.00  0.00    +0.183 A 
ATOM      6  N   LIG    1        4.258  -0.084   0.000  0.00  0.00    -0.214 NA
ATOM      7  C   LIG    1        3.442  -1.173   0.000  0.00  0.00    +0.225 A 
ATOM      8  N   LIG    1        2.082  -1.185   0.000  0.00  0.00    -0.219 NA
ATOM      9  C   LIG    1        1.437   0.011   0.000  0.00  0.00    +0.145 A 
ATOM     10  C   LIG    1        2.202   1.183   0.000  0.00  0.00    +0.125 A 
ENDROOT
BRANCH   9  11
ATOM     11  N   LIG    1        0.045  -0.009   0.000  0.00  0.00    -0.341 N 
ATOM     12  H   LIG    1       -0.433  -0.898   0.000  0.00  0.00    +0.144 HD
ATOM     13  H   LIG    1       -0.468   0.861   0.000  0.00  0.00    +0.144 HD
ENDBRANCH   9  11
TORSDOF 1
