REMARK  Name = DB00769
REMARK                            x       y       z     vdW  Elec       q    Type
REMARK                         _______ _______ _______ _____ _____    ______ ____
ROOT
ATOM      1  C   LIG    1        4.809   4.174  -4.622  0.00  0.00    +0.019 C 
ATOM      2  C   LIG    1        3.586   5.018  -4.125  0.00  0.00    -0.005 C 
ATOM      3  C   LIG    1        4.087   6.098  -3.124  0.00  0.00    +0.016 C 
ATOM      4  C   LIG    1        2.489   4.035  -3.533  0.00  0.00    +0.031 C 
ATOM      5  C   LIG    1        2.961   3.134  -2.331  0.00  0.00    +0.119 C 
ATOM      6  C   LIG    1        1.830   2.192  -1.827  0.00  0.00    +0.041 C 
ATOM      7  C   LIG    1        0.492   2.924  -1.492  0.00  0.00    +0.009 C 
ATOM      8  C   LIG    1        0.672   3.895  -0.273  0.00  0.00    +0.015 C 
ATOM      9  C   LIG    1       -0.783   2.004  -1.320  0.00  0.00    +0.133 C 
ATOM     10  C   LIG    1       -1.961   2.980  -1.642  0.00  0.00    +0.043 C 
ATOM     11  C   LIG    1       -1.389   4.071  -2.571  0.00  0.00    +0.008 C 
ATOM     12  C   LIG    1        0.077   3.671  -2.786  0.00  0.00    +0.002 C 
ATOM     13  C   LIG    1        1.112   4.731  -3.261  0.00  0.00    -0.001 C 
ATOM     14  C   LIG    1        0.623   5.422  -4.551  0.00  0.00    +0.008 C 
ATOM     15  C   LIG    1        1.626   6.463  -5.056  0.00  0.00    +0.032 C 
ATOM     16  C   LIG    1        2.969   5.786  -5.331  0.00  0.00    -0.060 C 
ATOM     17  C   LIG    1        3.585   5.913  -6.530  0.00  0.00    +0.046 C 
ATOM     18  C   LIG    1        4.896   5.369  -6.850  0.00  0.00    +0.156 C 
ATOM     19  O   LIG    1        5.355   5.414  -7.989  0.00  0.00    -0.293 OA
ATOM     20  C   LIG    1        5.715   4.870  -5.656  0.00  0.00    +0.080 C 
ENDROOT
BRANCH   5  21
ATOM     21  O   LIG    1        3.530   3.842  -1.248  0.00  0.00    -0.391 OA
ATOM     22  H   LIG    1        4.277   4.348  -1.575  0.00  0.00    +0.210 HD
ENDBRANCH   5  21
BRANCH   9  23
ATOM     23  O   LIG    1       -0.830   0.917  -2.241  0.00  0.00    -0.380 OA
ATOM     24  H   LIG    1       -0.811   1.273  -3.132  0.00  0.00    +0.211 HD
ENDBRANCH   9  23
BRANCH   9  25
ATOM     25  C   LIG    1       -0.920   1.374   0.109  0.00  0.00    +0.202 C 
ATOM     26  O   LIG    1       -1.443   2.002   1.031  0.00  0.00    -0.291 OA
BRANCH  25  27
ATOM     27  C   LIG    1       -0.484  -0.077   0.380  0.00  0.00    +0.309 C 
BRANCH  27  28
ATOM     28  O   LIG    1        0.789  -0.346  -0.192  0.00  0.00    -0.456 OA
BRANCH  28  29
ATOM     29  C   LIG    1        1.345  -1.569  -0.102  0.00  0.00    +0.322 C 
ATOM     30  O   LIG    1        0.845  -2.550   0.455  0.00  0.00    -0.249 OA
BRANCH  29  31
ATOM     31  C   LIG    1        2.722  -1.612  -0.790  0.00  0.00    +0.205 C 
BRANCH  31  32
ATOM     32  N   LIG    1        3.539  -2.801  -0.490  0.00  0.00    -0.293 NA
BRANCH  32  33
ATOM     33  C   LIG    1        4.599  -2.948  -1.500  0.00  0.00    +0.081 C 
ATOM     34  C   LIG    1        4.745  -4.415  -1.938  0.00  0.00    +0.020 C 
ENDBRANCH  32  33
BRANCH  32  35
ATOM     35  C   LIG    1        4.090  -2.699   0.875  0.00  0.00    +0.081 C 
ATOM     36  C   LIG    1        4.818  -3.962   1.361  0.00  0.00    +0.020 C 
ENDBRANCH  32  35
ENDBRANCH  31  32
ENDBRANCH  29  31
ENDBRANCH  28  29
ENDBRANCH  27  28
ENDBRANCH  25  27
ENDBRANCH   9  25
TORSDOF 10
