REMARK  Name = DB00845
REMARK                            x       y       z     vdW  Elec       q    Type
REMARK                         _______ _______ _______ _____ _____    ______ ____
ROOT
ATOM      1  C   LIG    1       -0.153   3.748  -0.082  0.00  0.00    +0.075 A 
ATOM      2  C   LIG    1        0.340   2.478   0.020  0.00  0.00    +0.057 A 
ATOM      3  C   LIG    1       -0.460   1.251   0.003  0.00  0.00    +0.082 A 
ATOM      4  N   LIG    1        0.006   0.054   0.100  0.00  0.00    -0.279 NA
ATOM      5  C   LIG    1       -1.907   1.513  -0.129  0.00  0.00    +0.059 A 
ATOM      6  C   LIG    1       -2.412   2.777  -0.204  0.00  0.00    +0.055 A 
ATOM      7  C   LIG    1       -1.607   3.968  -0.192  0.00  0.00    +0.090 A 
ATOM      8  N   LIG    1       -2.137   5.129  -0.256  0.00  0.00    -0.244 NA
ATOM      9  C   LIG    1       -1.339   6.279  -0.211  0.00  0.00    +0.088 A 
ATOM     10  C   LIG    1       -1.997   7.510  -0.273  0.00  0.00    +0.030 A 
ATOM     11  C   LIG    1       -1.264   8.696  -0.246  0.00  0.00    +0.002 A 
ATOM     12  C   LIG    1        0.127   8.657  -0.163  0.00  0.00    +0.002 A 
ATOM     13  C   LIG    1        0.792   7.432  -0.103  0.00  0.00    +0.028 A 
ATOM     14  C   LIG    1        0.065   6.230  -0.121  0.00  0.00    +0.073 A 
ATOM     15  N   LIG    1        0.645   4.925  -0.072  0.00  0.00    -0.306 N 
ENDROOT
BRANCH  15  16
ATOM     16  C   LIG    1        2.052   4.811  -0.001  0.00  0.00    +0.047 A 
ATOM     17  C   LIG    1        2.721   5.103   1.193  0.00  0.00    +0.027 A 
ATOM     18  C   LIG    1        4.106   4.980   1.263  0.00  0.00    +0.022 A 
ATOM     19  C   LIG    1        4.821   4.563   0.141  0.00  0.00    +0.041 A 
ATOM     20  C   LIG    1        4.161   4.269  -1.052  0.00  0.00    +0.022 A 
ATOM     21 CL   LIG    1        6.538   4.409   0.229  0.00  0.00    -0.084 Cl
ATOM     22  C   LIG    1        2.777   4.393  -1.123  0.00  0.00    +0.027 A 
ENDBRANCH  15  16
BRANCH   4  23
ATOM     23  C   LIG    1        1.429  -0.256   0.117  0.00  0.00    +0.100 C 
ATOM     24  C   LIG    1        1.914  -0.382   1.575  0.00  0.00    +0.032 C 
ATOM     25  C   LIG    1        1.646  -1.560  -0.670  0.00  0.00    +0.032 C 
ENDBRANCH   4  23
BRANCH   5  26
ATOM     26  N   LIG    1       -2.756   0.411  -0.106  0.00  0.00    -0.313 N 
ATOM     27  H   LIG    1       -2.476  -0.375   0.462  0.00  0.00    +0.152 HD
BRANCH  26  28
ATOM     28  C   LIG    1       -3.889   0.126  -0.891  0.00  0.00    +0.031 A 
ATOM     29  C   LIG    1       -4.297   0.923  -1.970  0.00  0.00    +0.024 A 
ATOM     30  C   LIG    1       -5.423   0.575  -2.711  0.00  0.00    +0.022 A 
ATOM     31  C   LIG    1       -6.140  -0.573  -2.383  0.00  0.00    +0.041 A 
ATOM     32  C   LIG    1       -5.735  -1.379  -1.321  0.00  0.00    +0.022 A 
ATOM     33 CL   LIG    1       -7.535  -1.005  -3.304  0.00  0.00    -0.084 Cl
ATOM     34  C   LIG    1       -4.609  -1.031  -0.580  0.00  0.00    +0.024 A 
ENDBRANCH  26  28
ENDBRANCH   5  26
TORSDOF 4
