REMARK  Name = DB00820
REMARK                            x       y       z     vdW  Elec       q    Type
REMARK                         _______ _______ _______ _____ _____    ______ ____
ROOT
ATOM      1  O   LIG    1        0.066  -1.870   1.304  0.00  0.00    -0.274 OA
ATOM      2  C   LIG    1       -0.522  -1.017   0.634  0.00  0.00    +0.237 C 
ATOM      3  C   LIG    1       -2.062  -1.061   0.439  0.00  0.00    +0.167 C 
ATOM      4  C   LIG    1       -2.810  -1.418   1.761  0.00  0.00    +0.069 C 
ATOM      5  C   LIG    1       -4.264  -1.675   1.470  0.00  0.00    -0.015 A 
ATOM      6  C   LIG    1       -5.242  -2.508   2.112  0.00  0.00    +0.003 A 
ATOM      7  C   LIG    1       -5.219  -3.381   3.211  0.00  0.00    +0.010 A 
ATOM      8  C   LIG    1       -6.387  -4.053   3.566  0.00  0.00    +0.001 A 
ATOM      9  C   LIG    1       -7.568  -3.872   2.849  0.00  0.00    +0.002 A 
ATOM     10  C   LIG    1       -7.638  -3.015   1.750  0.00  0.00    +0.026 A 
ATOM     11  C   LIG    1       -6.465  -2.339   1.396  0.00  0.00    +0.047 A 
ATOM     12  N   LIG    1       -6.206  -1.439   0.385  0.00  0.00    -0.356 N 
ATOM     13  H   LIG    1       -6.851  -1.094  -0.311  0.00  0.00    +0.166 HD
ATOM     14  C   LIG    1       -4.899  -1.021   0.444  0.00  0.00    +0.046 A 
ATOM     15  C   LIG    1       -4.253  -0.036  -0.520  0.00  0.00    +0.154 C 
ATOM     16  N   LIG    1       -2.765   0.021  -0.333  0.00  0.00    -0.276 N 
ATOM     17  C   LIG    1       -2.037   0.746  -1.229  0.00  0.00    +0.234 C 
ATOM     18  C   LIG    1       -0.593   1.030  -0.781  0.00  0.00    +0.203 C 
ATOM     19  O   LIG    1       -2.492   1.265  -2.250  0.00  0.00    -0.274 OA
ATOM     20  N   LIG    1        0.105   0.015   0.016  0.00  0.00    -0.294 N 
ATOM     21  C   LIG    1        1.539   0.235   0.230  0.00  0.00    +0.132 C 
ENDROOT
BRANCH  15  22
ATOM     22  C   LIG    1       -4.973   1.314  -0.456  0.00  0.00    -0.018 A 
ATOM     23  C   LIG    1       -5.716   1.766  -1.565  0.00  0.00    +0.009 A 
ATOM     24  C   LIG    1       -6.383   2.998  -1.531  0.00  0.00    +0.050 A 
ATOM     25  C   LIG    1       -6.292   3.748  -0.363  0.00  0.00    +0.166 A 
ATOM     26  C   LIG    1       -5.575   3.315   0.716  0.00  0.00    +0.167 A 
ATOM     27  O   LIG    1       -5.628   4.253   1.697  0.00  0.00    -0.453 OA
ATOM     28  C   LIG    1       -6.588   5.185   1.274  0.00  0.00    +0.466 C 
ATOM     29  O   LIG    1       -6.820   4.969  -0.092  0.00  0.00    -0.453 OA
ATOM     30  C   LIG    1       -4.895   2.102   0.707  0.00  0.00    +0.055 A 
ENDBRANCH  15  22
TORSDOF 1
