REMARK  Name = DB00248
REMARK                            x       y       z     vdW  Elec       q    Type
REMARK                         _______ _______ _______ _____ _____    ______ ____
ROOT
ATOM      1  C   LIG    1       -2.124   0.831  -0.034  0.00  0.00    +0.090 C 
ATOM      2  C   LIG    1       -2.981   1.796   0.811  0.00  0.00    +0.097 C 
ATOM      3  N   LIG    1       -4.375   1.320   0.848  0.00  0.00    -0.294 NA
ATOM      4  C   LIG    1       -4.960   1.326  -0.523  0.00  0.00    +0.069 C 
ATOM      5  C   LIG    1       -6.468   0.889  -0.570  0.00  0.00    +0.056 C 
ATOM      6  C   LIG    1       -6.978   0.915  -2.004  0.00  0.00    -0.021 A 
ATOM      7  C   LIG    1       -8.205   1.084  -2.624  0.00  0.00    +0.087 A 
ATOM      8  N   LIG    1       -8.053   0.995  -3.995  0.00  0.00    -0.360 N 
ATOM      9  H   LIG    1       -8.830   1.089  -4.633  0.00  0.00    +0.165 HD
ATOM     10  C   LIG    1       -6.726   0.772  -4.311  0.00  0.00    +0.047 A 
ATOM     11  C   LIG    1       -6.024   0.611  -5.509  0.00  0.00    +0.026 A 
ATOM     12  C   LIG    1       -4.644   0.404  -5.400  0.00  0.00    +0.002 A 
ATOM     13  C   LIG    1       -3.991   0.362  -4.163  0.00  0.00    +0.004 A 
ATOM     14  C   LIG    1       -4.680   0.530  -2.952  0.00  0.00    -0.033 A 
ATOM     15  C   LIG    1       -6.058   0.723  -3.071  0.00  0.00    +0.006 A 
ATOM     16  C   LIG    1       -4.073   0.493  -1.544  0.00  0.00    +0.038 C 
ATOM     17  C   LIG    1       -2.573   0.878  -1.501  0.00  0.00    +0.023 C 
ENDROOT
BRANCH   1  19
ATOM     18  O   LIG    1       -0.254   2.267   0.369  0.00  0.00    -0.275 OA
ATOM     19  C   LIG    1       -0.598   1.104   0.132  0.00  0.00    +0.227 C 
ATOM     20  N   LIG    1        0.334   0.103   0.019  0.00  0.00    -0.226 N 
ATOM     21  C   LIG    1        0.029  -1.175  -0.310  0.00  0.00    +0.309 C 
ATOM     22  N   LIG    1       -0.142  -1.973   0.763  0.00  0.00    -0.299 N 
ATOM     23  H   LIG    1       -0.035  -1.575   1.685  0.00  0.00    +0.150 HD
ATOM     24  O   LIG    1       -0.079  -1.559  -1.476  0.00  0.00    -0.252 OA
BRANCH  22  25
ATOM     25  C   LIG    1       -0.497  -3.390   0.708  0.00  0.00    +0.102 C 
ATOM     26  C   LIG    1        0.679  -4.300   0.323  0.00  0.00    +0.024 C 
ENDBRANCH  22  25
BRANCH  20  27
ATOM     27  C   LIG    1        1.773   0.405   0.165  0.00  0.00    +0.119 C 
BRANCH  27  28
ATOM     28  C   LIG    1        2.444   0.891  -1.141  0.00  0.00    +0.035 C 
BRANCH  28  29
ATOM     29  C   LIG    1        3.931   1.279  -0.960  0.00  0.00    +0.085 C 
BRANCH  29  30
ATOM     30  N   LIG    1        4.162   2.716  -0.764  0.00  0.00    -0.308 NA
ATOM     31  C   LIG    1        5.597   2.985  -0.745  0.00  0.00    +0.104 C 
ATOM     32  C   LIG    1        3.557   3.237   0.460  0.00  0.00    +0.104 C 
ENDBRANCH  29  30
ENDBRANCH  28  29
ENDBRANCH  27  28
ENDBRANCH  20  27
ENDBRANCH   1  19
BRANCH   3  33
ATOM     33  C   LIG    1       -5.143   2.122   1.813  0.00  0.00    +0.111 C 
BRANCH  33  34
ATOM     34  C   LIG    1       -4.667   2.061   3.255  0.00  0.00    -0.019 C 
ATOM     35  C   LIG    1       -4.330   3.131   3.990  0.00  0.00    +0.005 C 
ENDBRANCH  33  34
ENDBRANCH   3  33
TORSDOF 8
