REMARK  Name = DB00910
REMARK                            x       y       z     vdW  Elec       q    Type
REMARK                         _______ _______ _______ _____ _____    ______ ____
ROOT
ATOM      1  C   LIG    1       -2.900  -1.810   0.443  0.00  0.00    +0.008 C 
ATOM      2  C   LIG    1       -4.402  -1.910   0.794  0.00  0.00    +0.005 C 
ATOM      3  C   LIG    1       -4.664  -1.875   2.321  0.00  0.00    +0.031 C 
ATOM      4  C   LIG    1       -3.930  -0.703   2.997  0.00  0.00    -0.066 C 
ATOM      5  C   LIG    1       -4.493   0.217   3.814  0.00  0.00    -0.001 C 
ATOM      6  C   LIG    1       -2.440  -0.708   2.621  0.00  0.00    +0.021 C 
ATOM      7  C   LIG    1       -1.458   0.291   3.241  0.00  0.00    +0.009 C 
ATOM      8  C   LIG    1       -0.240   0.223   2.310  0.00  0.00    +0.005 C 
ATOM      9  C   LIG    1       -0.677  -0.532   1.020  0.00  0.00    +0.002 C 
ATOM     10  C   LIG    1       -2.243  -0.558   1.088  0.00  0.00    -0.022 C 
ATOM     11  C   LIG    1       -2.860   0.763   0.528  0.00  0.00    +0.012 C 
ENDROOT
BRANCH   5  12
ATOM     12  C   LIG    1       -5.896   0.276   4.207  0.00  0.00    -0.001 C 
ATOM     13  C   LIG    1       -6.460   1.194   5.022  0.00  0.00    -0.065 C 
ATOM     14  C   LIG    1       -7.950   1.157   5.374  0.00  0.00    +0.062 C 
ATOM     15  C   LIG    1       -8.142   1.038   6.904  0.00  0.00    +0.121 C 
ATOM     16  C   LIG    1       -7.402   2.163   7.658  0.00  0.00    +0.063 C 
ATOM     17  C   LIG    1       -5.918   2.269   7.242  0.00  0.00    +0.121 C 
ATOM     18  C   LIG    1       -5.741   2.362   5.709  0.00  0.00    +0.062 C 
BRANCH  17  19
ATOM     19  O   LIG    1       -5.298   3.366   7.883  0.00  0.00    -0.391 OA
ATOM     20  H   LIG    1       -5.727   4.172   7.587  0.00  0.00    +0.210 HD
ENDBRANCH  17  19
BRANCH  15  21
ATOM     21  O   LIG    1       -7.732  -0.239   7.362  0.00  0.00    -0.391 OA
ATOM     22  H   LIG    1       -8.490  -0.682   7.751  0.00  0.00    +0.210 HD
ENDBRANCH  15  21
ENDBRANCH   5  12
BRANCH   9  23
ATOM     23  C   LIG    1        0.005   0.028  -0.272  0.00  0.00    +0.012 C 
ATOM     24  C   LIG    1       -0.386  -0.723  -1.559  0.00  0.00    +0.012 C 
BRANCH  23  25
ATOM     25  C   LIG    1        1.522   0.049  -0.133  0.00  0.00    -0.027 C 
ATOM     26  C   LIG    1        2.277   1.162  -0.105  0.00  0.00    -0.025 C 
BRANCH  26  27
ATOM     27  C   LIG    1        3.796   1.187   0.039  0.00  0.00    +0.039 C 
ATOM     28  C   LIG    1        4.184   1.849   1.381  0.00  0.00    +0.015 C 
BRANCH  27  29
ATOM     29  C   LIG    1        4.529   1.789  -1.209  0.00  0.00    +0.066 C 
ATOM     30  C   LIG    1        6.068   1.756  -1.067  0.00  0.00    +0.041 C 
ATOM     31  C   LIG    1        4.131   1.067  -2.518  0.00  0.00    +0.041 C 
BRANCH  29  32
ATOM     32  O   LIG    1        4.164   3.150  -1.366  0.00  0.00    -0.389 OA
ATOM     33  H   LIG    1        3.213   3.196  -1.486  0.00  0.00    +0.210 HD
ENDBRANCH  29  32
ENDBRANCH  27  29
ENDBRANCH  26  27
ENDBRANCH  23  25
ENDBRANCH   9  23
TORSDOF 8
