REMARK  Name = DB00433
REMARK                            x       y       z     vdW  Elec       q    Type
REMARK                         _______ _______ _______ _____ _____    ______ ____
ROOT
ATOM      1 CL   LIG    1        2.888   0.684  -4.385  0.00  0.00    -0.083 Cl
ATOM      2  C   LIG    1        3.802  -0.200  -3.218  0.00  0.00    +0.043 A 
ATOM      3  C   LIG    1        5.141  -0.484  -3.453  0.00  0.00    +0.021 A 
ATOM      4  C   LIG    1        5.874  -1.180  -2.498  0.00  0.00    +0.018 A 
ATOM      5  C   LIG    1        5.276  -1.590  -1.304  0.00  0.00    +0.034 A 
ATOM      6  C   LIG    1        3.899  -1.375  -1.068  0.00  0.00    +0.049 A 
ATOM      7  N   LIG    1        3.319  -1.742   0.169  0.00  0.00    -0.298 N 
ATOM      8  C   LIG    1        4.074  -1.747   1.365  0.00  0.00    +0.048 A 
ATOM      9  C   LIG    1        3.531  -1.341   2.600  0.00  0.00    +0.024 A 
ATOM     10  C   LIG    1        4.306  -1.265   3.756  0.00  0.00    +0.002 A 
ATOM     11  C   LIG    1        5.660  -1.568   3.704  0.00  0.00    +0.001 A 
ATOM     12  C   LIG    1        6.237  -1.931   2.493  0.00  0.00    +0.017 A 
ATOM     13  C   LIG    1        5.466  -1.988   1.328  0.00  0.00    +0.034 A 
ATOM     14  S   LIG    1        6.261  -2.486  -0.158  0.00  0.00    -0.086 S 
ATOM     15  C   LIG    1        3.197  -0.629  -2.038  0.00  0.00    +0.044 A 
ENDROOT
BRANCH   7  16
ATOM     16  C   LIG    1        1.843  -1.768   0.254  0.00  0.00    +0.112 C 
BRANCH  16  17
ATOM     17  C   LIG    1        1.176  -0.380   0.439  0.00  0.00    +0.035 C 
BRANCH  17  18
ATOM     18  C   LIG    1       -0.241  -0.281  -0.166  0.00  0.00    +0.086 C 
BRANCH  18  19
ATOM     19  N   LIG    1       -0.671   1.106  -0.363  0.00  0.00    -0.300 NA
ATOM     20  C   LIG    1       -1.920   1.141  -1.136  0.00  0.00    +0.100 C 
ATOM     21  C   LIG    1       -2.343   2.606  -1.402  0.00  0.00    +0.099 C 
ATOM     22  N   LIG    1       -2.555   3.305  -0.129  0.00  0.00    -0.303 NA
ATOM     23  C   LIG    1       -2.966   4.684  -0.373  0.00  0.00    +0.105 C 
ATOM     24  C   LIG    1       -1.310   3.277   0.647  0.00  0.00    +0.099 C 
ATOM     25  C   LIG    1       -0.880   1.813   0.911  0.00  0.00    +0.100 C 
ENDBRANCH  18  19
ENDBRANCH  17  18
ENDBRANCH  16  17
ENDBRANCH   7  16
TORSDOF 4
