REMARK  Name = DB00892
REMARK                            x       y       z     vdW  Elec       q    Type
REMARK                         _______ _______ _______ _____ _____    ______ ____
ROOT
ATOM      1  C   LIG    1        1.486   0.413  -0.028  0.00  0.00    +0.063 A 
ATOM      2  C   LIG    1        2.444   1.434  -0.052  0.00  0.00    +0.017 A 
ATOM      3  C   LIG    1        3.803   1.132  -0.093  0.00  0.00    +0.027 A 
ATOM      4  C   LIG    1        4.230  -0.196  -0.099  0.00  0.00    +0.067 A 
ATOM      5  C   LIG    1        3.296  -1.242  -0.062  0.00  0.00    +0.142 A 
ATOM      6  C   LIG    1        1.927  -0.921  -0.031  0.00  0.00    +0.062 A 
ENDROOT
BRANCH   4   7
ATOM      7  N   LIG    1        5.601  -0.460  -0.136  0.00  0.00    -0.355 N 
ATOM      8  H   LIG    1        5.918  -1.420  -0.136  0.00  0.00    +0.142 HD
ATOM      9  H   LIG    1        6.258   0.306  -0.162  0.00  0.00    +0.142 HD
ENDBRANCH   4   7
BRANCH   1  10
ATOM     10  C   LIG    1        0.030   0.767   0.030  0.00  0.00    +0.339 C 
ATOM     11  O   LIG    1       -0.383   1.915   0.219  0.00  0.00    -0.245 OA
BRANCH  10  12
ATOM     12  O   LIG    1       -0.787  -0.300  -0.183  0.00  0.00    -0.460 OA
BRANCH  12  13
ATOM     13  C   LIG    1       -2.207  -0.196  -0.089  0.00  0.00    +0.248 C 
BRANCH  13  14
ATOM     14  C   LIG    1       -2.690  -0.306   1.374  0.00  0.00    +0.125 C 
BRANCH  14  15
ATOM     15  N   LIG    1       -2.398  -1.639   1.931  0.00  0.00    -0.300 NA
BRANCH  15  16
ATOM     16  C   LIG    1       -3.581  -2.513   1.954  0.00  0.00    +0.081 C 
ATOM     17  C   LIG    1       -4.143  -2.837   0.558  0.00  0.00    +0.020 C 
ENDBRANCH  15  16
BRANCH  15  18
ATOM     18  C   LIG    1       -1.826  -1.562   3.281  0.00  0.00    +0.081 C 
ATOM     19  C   LIG    1       -0.390  -1.004   3.281  0.00  0.00    +0.020 C 
ENDBRANCH  15  18
ENDBRANCH  14  15
ENDBRANCH  13  14
ENDBRANCH  12  13
ENDBRANCH  10  12
ENDBRANCH   1  10
BRANCH   5  20
ATOM     20  O   LIG    1        3.779  -2.541  -0.055  0.00  0.00    -0.490 OA
BRANCH  20  21
ATOM     21  C   LIG    1        2.869  -3.635   0.040  0.00  0.00    +0.229 C 
BRANCH  21  22
ATOM     22  C   LIG    1        3.657  -4.953   0.108  0.00  0.00    +0.041 C 
BRANCH  22  23
ATOM     23  C   LIG    1        4.571  -5.059   1.344  0.00  0.00    -0.000 C 
ATOM     24  C   LIG    1        5.328  -6.392   1.415  0.00  0.00    +0.004 C 
ENDBRANCH  22  23
ENDBRANCH  21  22
ENDBRANCH  20  21
ENDBRANCH   5  20
TORSDOF 12
