REMARK  Name = DB00324
REMARK                            x       y       z     vdW  Elec       q    Type
REMARK                         _______ _______ _______ _____ _____    ______ ____
ROOT
ATOM      1  F   LIG    1       -3.402  -0.431   3.125  0.00  0.00    -0.238 F 
ATOM      2  C   LIG    1       -2.641  -1.531   3.236  0.00  0.00    +0.153 C 
ATOM      3  C   LIG    1       -3.392  -2.462   4.277  0.00  0.00    +0.045 C 
ATOM      4  C   LIG    1       -3.568  -1.756   5.633  0.00  0.00    -0.009 C 
ATOM      5  C   LIG    1       -4.744  -1.473   6.223  0.00  0.00    +0.047 C 
ATOM      6  C   LIG    1       -6.040  -1.805   5.647  0.00  0.00    +0.179 C 
ATOM      7  C   LIG    1       -5.952  -2.474   4.349  0.00  0.00    +0.051 C 
ATOM      8  O   LIG    1       -7.107  -1.544   6.199  0.00  0.00    -0.288 OA
ATOM      9  C   LIG    1       -2.675  -3.808   4.587  0.00  0.00    +0.023 C 
ATOM     10  C   LIG    1       -4.804  -2.791   3.694  0.00  0.00    -0.050 C 
ATOM     11  C   LIG    1       -4.767  -3.482   2.311  0.00  0.00    +0.013 C 
ATOM     12  C   LIG    1       -6.148  -3.888   1.750  0.00  0.00    +0.012 C 
ATOM     13  C   LIG    1       -4.018  -2.565   1.322  0.00  0.00    +0.014 C 
ATOM     14  C   LIG    1       -1.241  -0.958   3.688  0.00  0.00    +0.154 C 
ATOM     15  C   LIG    1       -0.550  -0.114   2.576  0.00  0.00    +0.044 C 
ATOM     16  C   LIG    1       -0.445  -0.846   1.201  0.00  0.00    +0.009 C 
ATOM     17  C   LIG    1        0.490  -2.103   1.303  0.00  0.00    +0.015 C 
ATOM     18  C   LIG    1       -0.066   0.059  -0.035  0.00  0.00    +0.129 C 
ATOM     19  C   LIG    1       -0.643  -0.741  -1.246  0.00  0.00    +0.043 C 
ATOM     20  C   LIG    1       -1.815  -1.583  -0.695  0.00  0.00    +0.008 C 
ATOM     21  C   LIG    1       -1.896  -1.212   0.794  0.00  0.00    +0.005 C 
ATOM     22  C   LIG    1       -2.602  -2.167   1.799  0.00  0.00    +0.034 C 
ENDROOT
BRANCH  18  23
ATOM     23  C   LIG    1        1.470   0.314  -0.160  0.00  0.00    +0.162 C 
ATOM     24  C   LIG    1        2.089   1.521   0.554  0.00  0.00    +0.089 C 
ATOM     25  O   LIG    1        2.200  -0.429  -0.818  0.00  0.00    -0.295 OA
ENDBRANCH  18  23
BRANCH  18  26
ATOM     26  O   LIG    1       -0.667   1.351   0.005  0.00  0.00    -0.381 OA
ATOM     27  H   LIG    1       -1.620   1.241   0.040  0.00  0.00    +0.211 HD
ENDBRANCH  18  26
BRANCH  14  28
ATOM     28  O   LIG    1       -0.349  -1.923   4.208  0.00  0.00    -0.389 OA
ATOM     29  H   LIG    1       -0.767  -2.353   4.958  0.00  0.00    +0.210 HD
ENDBRANCH  14  28
TORSDOF 3
