REMARK  Name = DB00946
REMARK                            x       y       z     vdW  Elec       q    Type
REMARK                         _______ _______ _______ _____ _____    ______ ____
ROOT
ATOM      1  C   LIG    1       -4.268   0.087  -0.124  0.00  0.00    +0.047 A 
ATOM      2  C   LIG    1       -2.873   0.085  -0.079  0.00  0.00    +0.143 A 
ATOM      3  O   LIG    1       -2.241  -1.149  -0.107  0.00  0.00    -0.422 OA
ATOM      4  C   LIG    1       -0.861  -1.281  -0.071  0.00  0.00    +0.345 A 
ATOM      5  O   LIG    1       -0.452  -2.441  -0.102  0.00  0.00    -0.245 OA
ATOM      6  C   LIG    1       -0.056  -0.028   0.004  0.00  0.00    +0.086 A 
ATOM      7  C   LIG    1       -0.685   1.171   0.033  0.00  0.00    +0.138 A 
ATOM      8  C   LIG    1       -2.157   1.287  -0.009  0.00  0.00    +0.059 A 
ATOM      9  C   LIG    1       -2.861   2.500   0.013  0.00  0.00    +0.015 A 
ATOM     10  C   LIG    1       -4.257   2.502  -0.032  0.00  0.00    +0.001 A 
ATOM     11  C   LIG    1       -4.958   1.298  -0.100  0.00  0.00    +0.004 A 
ENDROOT
BRANCH   7  12
ATOM     12  O   LIG    1       -0.022   2.359   0.105  0.00  0.00    -0.506 OA
ATOM     13  H   LIG    1       -0.657   3.079   0.123  0.00  0.00    +0.292 HD
ENDBRANCH   7  12
BRANCH   6  14
ATOM     14  C   LIG    1        1.478  -0.205   0.042  0.00  0.00    +0.059 C 
BRANCH  14  15
ATOM     15  C   LIG    1        2.033  -0.867  -1.234  0.00  0.00    -0.040 A 
ATOM     16  C   LIG    1        2.722  -2.089  -1.207  0.00  0.00    +0.004 A 
ATOM     17  C   LIG    1        3.202  -2.651  -2.387  0.00  0.00    +0.000 A 
ATOM     18  C   LIG    1        3.000  -1.994  -3.598  0.00  0.00    +0.000 A 
ATOM     19  C   LIG    1        2.322  -0.780  -3.640  0.00  0.00    +0.000 A 
ATOM     20  C   LIG    1        1.841  -0.219  -2.461  0.00  0.00    +0.004 A 
ENDBRANCH  14  15
BRANCH  14  21
ATOM     21  C   LIG    1        2.003  -0.800   1.380  0.00  0.00    +0.010 C 
ATOM     22  C   LIG    1        1.591  -0.003   2.630  0.00  0.00    +0.005 C 
ENDBRANCH  14  21
ENDBRANCH   6  14
TORSDOF 4
