REMARK  Name = DB00206
REMARK                            x       y       z     vdW  Elec       q    Type
REMARK                         _______ _______ _______ _____ _____    ______ ____
ROOT
ATOM      1  C   LIG    1        0.025  -2.378   0.934  0.00  0.00    +0.011 C 
ATOM      2  C   LIG    1        1.526  -2.676   1.139  0.00  0.00    +0.089 C 
ATOM      3  N   LIG    1        1.710  -4.096   1.437  0.00  0.00    -0.293 NA
ATOM      4  C   LIG    1        1.273  -4.940   0.301  0.00  0.00    +0.104 C 
ATOM      5  C   LIG    1        1.567  -6.407   0.592  0.00  0.00    +0.038 A 
ATOM      6  C   LIG    1        2.447  -6.845   1.563  0.00  0.00    -0.016 A 
ATOM      7  C   LIG    1        2.429  -8.280   1.522  0.00  0.00    +0.003 A 
ATOM      8  C   LIG    1        3.079  -9.289   2.247  0.00  0.00    +0.014 A 
ATOM      9  C   LIG    1        2.817 -10.621   1.934  0.00  0.00    +0.046 A 
ATOM     10  C   LIG    1        1.928 -10.983   0.922  0.00  0.00    +0.122 A 
ATOM     11  C   LIG    1        1.259  -9.997   0.176  0.00  0.00    +0.071 A 
ATOM     12  C   LIG    1        1.520  -8.660   0.490  0.00  0.00    +0.050 A 
ATOM     13  C   LIG    1        3.187  -5.861   2.457  0.00  0.00    +0.053 C 
ATOM     14  N   LIG    1        1.023  -7.492  -0.050  0.00  0.00    -0.356 N 
ATOM     15  H   LIG    1        0.353  -7.397  -0.799  0.00  0.00    +0.166 HD
ATOM     16  C   LIG    1       -0.166  -4.640  -0.213  0.00  0.00    +0.030 C 
ATOM     17  C   LIG    1        3.074  -4.421   1.881  0.00  0.00    +0.090 C 
ATOM     18  C   LIG    1       -0.571  -3.137  -0.278  0.00  0.00    +0.012 C 
ATOM     19  C   LIG    1       -0.308  -2.389  -1.635  0.00  0.00    +0.133 C 
ATOM     20  C   LIG    1       -0.610  -0.853  -1.567  0.00  0.00    +0.172 C 
ATOM     21  C   LIG    1       -0.043  -0.131  -0.298  0.00  0.00    +0.206 C 
ATOM     22  C   LIG    1       -0.411  -0.900   0.983  0.00  0.00    +0.052 C 
ENDROOT
BRANCH  10  23
ATOM     23  O   LIG    1        1.764 -12.341   0.721  0.00  0.00    -0.495 OA
ATOM     24  C   LIG    1        0.870 -12.794  -0.290  0.00  0.00    +0.277 C 
ENDBRANCH  10  23
BRANCH  19  25
ATOM     25  C   LIG    1        1.057  -2.706  -2.298  0.00  0.00    +0.313 C 
ATOM     26  O   LIG    1        2.031  -1.957  -2.215  0.00  0.00    -0.250 OA
BRANCH  25  27
ATOM     27  O   LIG    1        1.021  -3.854  -3.011  0.00  0.00    -0.468 OA
ATOM     28  C   LIG    1        2.177  -4.319  -3.693  0.00  0.00    +0.280 C 
ENDBRANCH  25  27
ENDBRANCH  19  25
BRANCH  20  29
ATOM     29  O   LIG    1       -2.029  -0.708  -1.653  0.00  0.00    -0.375 OA
ATOM     30  C   LIG    1       -2.511   0.580  -2.023  0.00  0.00    +0.194 C 
ENDBRANCH  20  29
BRANCH  21  31
ATOM     31  O   LIG    1        1.367   0.088  -0.348  0.00  0.00    -0.455 OA
BRANCH  31  32
ATOM     32  C   LIG    1        1.925   1.098  -1.071  0.00  0.00    +0.340 C 
ATOM     33  O   LIG    1        1.267   1.901  -1.738  0.00  0.00    -0.245 OA
BRANCH  32  34
ATOM     34  C   LIG    1        3.425   1.113  -0.999  0.00  0.00    +0.066 A 
ATOM     35  C   LIG    1        4.145   2.026  -1.781  0.00  0.00    +0.064 A 
ATOM     36  C   LIG    1        5.548   2.069  -1.746  0.00  0.00    +0.166 A 
ATOM     37  C   LIG    1        6.232   1.177  -0.911  0.00  0.00    +0.204 A 
ATOM     38  C   LIG    1        5.539   0.261  -0.111  0.00  0.00    +0.166 A 
ATOM     39  C   LIG    1        4.137   0.238  -0.166  0.00  0.00    +0.064 A 
BRANCH  36  40
ATOM     40  O   LIG    1        6.313   2.946  -2.494  0.00  0.00    -0.491 OA
ATOM     41  C   LIG    1        5.670   3.867  -3.368  0.00  0.00    +0.277 C 
ENDBRANCH  36  40
BRANCH  37  42
ATOM     42  O   LIG    1        7.606   1.217  -0.859  0.00  0.00    -0.488 OA
ATOM     43  C   LIG    1        8.245   0.368  -1.802  0.00  0.00    +0.277 C 
ENDBRANCH  37  42
BRANCH  38  44
ATOM     44  O   LIG    1        6.294  -0.576   0.692  0.00  0.00    -0.491 OA
ATOM     45  C   LIG    1        5.639  -1.545   1.505  0.00  0.00    +0.277 C 
ENDBRANCH  38  44
ENDBRANCH  32  34
ENDBRANCH  31  32
ENDBRANCH  21  31
TORSDOF 10
