REMARK  Name = DB00342
REMARK                            x       y       z     vdW  Elec       q    Type
REMARK                         _______ _______ _______ _____ _____    ______ ____
ROOT
ATOM      1  C   LIG    1       -2.400   3.668  -0.107  0.00  0.00    +0.032 C 
ATOM      2  C   LIG    1       -2.550   3.026  -1.510  0.00  0.00    +0.022 C 
ATOM      3  C   LIG    1       -2.145   1.538  -1.498  0.00  0.00    +0.085 C 
ATOM      4  N   LIG    1       -0.762   1.349  -1.031  0.00  0.00    -0.302 NA
ATOM      5  C   LIG    1       -0.474   2.014   0.253  0.00  0.00    +0.085 C 
ATOM      6  C   LIG    1       -0.900   3.498   0.247  0.00  0.00    +0.022 C 
ENDROOT
BRANCH   1   7
ATOM      7  C   LIG    1       -2.955   5.145   0.041  0.00  0.00    +0.119 C 
BRANCH   7  10
ATOM      8  C   LIG    1       -1.729   7.028  -3.092  0.00  0.00    +0.000 A 
ATOM      9  C   LIG    1       -2.455   6.191  -2.249  0.00  0.00    +0.007 A 
ATOM     10  C   LIG    1       -2.141   6.096  -0.884  0.00  0.00    -0.011 A 
ATOM     11  C   LIG    1       -1.071   6.859  -0.388  0.00  0.00    +0.007 A 
ATOM     12  C   LIG    1       -0.344   7.697  -1.229  0.00  0.00    +0.000 A 
ATOM     13  C   LIG    1       -0.677   7.779  -2.578  0.00  0.00    +0.000 A 
ENDBRANCH   7  10
BRANCH   7  14
ATOM     14  C   LIG    1       -4.486   5.278  -0.197  0.00  0.00    -0.011 A 
ATOM     15  C   LIG    1       -5.354   4.173  -0.167  0.00  0.00    +0.007 A 
ATOM     16  C   LIG    1       -6.724   4.336  -0.355  0.00  0.00    +0.000 A 
ATOM     17  C   LIG    1       -7.248   5.608  -0.556  0.00  0.00    +0.000 A 
ATOM     18  C   LIG    1       -6.413   6.721  -0.561  0.00  0.00    +0.000 A 
ATOM     19  C   LIG    1       -5.045   6.555  -0.373  0.00  0.00    +0.007 A 
ENDBRANCH   7  14
BRANCH   7  20
ATOM     20  O   LIG    1       -2.749   5.458   1.413  0.00  0.00    -0.379 OA
ATOM     21  H   LIG    1       -3.068   6.350   1.569  0.00  0.00    +0.211 HD
ENDBRANCH   7  20
ENDBRANCH   1   7
BRANCH   4  22
ATOM     22  C   LIG    1       -0.414  -0.077  -1.032  0.00  0.00    +0.084 C 
BRANCH  22  23
ATOM     23  C   LIG    1        1.090  -0.363  -0.823  0.00  0.00    +0.018 C 
BRANCH  23  24
ATOM     24  C   LIG    1        2.020   0.313  -1.855  0.00  0.00    +0.037 C 
BRANCH  24  25
ATOM     25  C   LIG    1        3.521   0.004  -1.658  0.00  0.00    +0.145 C 
BRANCH  25  26
ATOM     26  C   LIG    1        4.391   0.865  -2.573  0.00  0.00    -0.019 A 
ATOM     27  C   LIG    1        4.934   2.054  -2.086  0.00  0.00    +0.006 A 
ATOM     28  C   LIG    1        5.713   2.858  -2.912  0.00  0.00    +0.004 A 
ATOM     29  C   LIG    1        5.963   2.496  -4.244  0.00  0.00    -0.042 A 
ATOM     30  C   LIG    1        5.405   1.301  -4.726  0.00  0.00    +0.004 A 
ATOM     31  C   LIG    1        4.625   0.496  -3.901  0.00  0.00    +0.006 A 
BRANCH  29  32
ATOM     32  C   LIG    1        6.836   3.420  -5.132  0.00  0.00    -0.013 C 
ATOM     33  C   LIG    1        8.246   3.563  -4.507  0.00  0.00    +0.015 C 
ATOM     34  C   LIG    1        7.021   2.889  -6.579  0.00  0.00    +0.015 C 
ATOM     35  C   LIG    1        6.180   4.820  -5.233  0.00  0.00    +0.015 C 
ENDBRANCH  29  32
ENDBRANCH  25  26
BRANCH  25  36
ATOM     36  O   LIG    1        3.749  -1.384  -1.831  0.00  0.00    -0.387 OA
ATOM     37  H   LIG    1        4.655  -1.576  -1.577  0.00  0.00    +0.210 HD
ENDBRANCH  25  36
ENDBRANCH  24  25
ENDBRANCH  23  24
ENDBRANCH  22  23
ENDBRANCH   4  22
TORSDOF 11
