REMARK  Name = DB00636
REMARK                            x       y       z     vdW  Elec       q    Type
REMARK                         _______ _______ _______ _____ _____    ______ ____
ROOT
ATOM      1  O   LIG    1       -0.558   0.980  -0.035  0.00  0.00    -0.475 OA
ENDROOT
BRANCH   1   6
ATOM      2 CL   LIG    1       -6.207   2.689   0.127  0.00  0.00    -0.084 Cl
ATOM      3  C   LIG    1       -4.569   2.149   0.083  0.00  0.00    +0.041 A 
ATOM      4  C   LIG    1       -4.288   0.786   0.076  0.00  0.00    +0.023 A 
ATOM      5  C   LIG    1       -2.966   0.349   0.041  0.00  0.00    +0.047 A 
ATOM      6  C   LIG    1       -1.912   1.276   0.007  0.00  0.00    +0.122 A 
ATOM      7  C   LIG    1       -2.214   2.640   0.016  0.00  0.00    +0.047 A 
ATOM      8  C   LIG    1       -3.534   3.080   0.054  0.00  0.00    +0.023 A 
ENDBRANCH   1   6
BRANCH   1   9
ATOM      9  C   LIG    1        0.024  -0.340  -0.072  0.00  0.00    +0.200 C 
ATOM     10  C   LIG    1       -0.390  -1.106  -1.363  0.00  0.00    +0.067 C 
ATOM     11  C   LIG    1       -0.296  -1.131   1.226  0.00  0.00    +0.067 C 
BRANCH   9  12
ATOM     12  C   LIG    1        1.568  -0.141  -0.083  0.00  0.00    +0.351 C 
ATOM     13  O   LIG    1        2.329  -0.961  -0.607  0.00  0.00    -0.246 OA
BRANCH  12  14
ATOM     14  O   LIG    1        1.973   0.995   0.541  0.00  0.00    -0.462 OA
BRANCH  14  15
ATOM     15  C   LIG    1        3.352   1.330   0.622  0.00  0.00    +0.229 C 
ATOM     16  C   LIG    1        3.513   2.637   1.404  0.00  0.00    +0.048 C 
ENDBRANCH  14  15
ENDBRANCH  12  14
ENDBRANCH   9  12
ENDBRANCH   1   9
TORSDOF 5
