REMARK  Name = DB00797
REMARK                            x       y       z     vdW  Elec       q    Type
REMARK                         _______ _______ _______ _____ _____    ______ ____
ROOT
ATOM      1  C   LIG    1        1.467  -0.006   0.038  0.00  0.00    +0.162 C 
ENDROOT
BRANCH   1   7
ATOM      2  N   LIG    1       -0.730  -1.175  -0.160  0.00  0.00    -0.233 N 
ATOM      3  H   LIG    1       -0.479  -2.094   0.176  0.00  0.00    +0.291 HD
ATOM      4  C   LIG    1       -2.138  -0.930  -0.001  0.00  0.00    +0.273 C 
ATOM      5  C   LIG    1       -2.164   0.592  -0.064  0.00  0.00    +0.333 C 
ATOM      6  N   LIG    1       -0.800   1.038   0.073  0.00  0.00    -0.084 NA
ATOM      7  C   LIG    1       -0.052   0.016  -0.032  0.00  0.00    +0.285 C 
ENDBRANCH   1   7
BRANCH   1   8
ATOM      8  C   LIG    1        2.002  -0.002   1.465  0.00  0.00    -0.036 A 
ATOM      9  C   LIG    1        2.254   1.211   2.114  0.00  0.00    +0.004 A 
ATOM     10  C   LIG    1        2.751   1.214   3.414  0.00  0.00    +0.000 A 
ATOM     11  C   LIG    1        2.999   0.005   4.061  0.00  0.00    +0.000 A 
ATOM     12  C   LIG    1        2.757  -1.207   3.418  0.00  0.00    +0.000 A 
ATOM     13  C   LIG    1        2.261  -1.211   2.117  0.00  0.00    +0.004 A 
ENDBRANCH   1   8
TORSDOF 2
