REMARK  Name = DB00521
REMARK                            x       y       z     vdW  Elec       q    Type
REMARK                         _______ _______ _______ _____ _____    ______ ____
ROOT
ATOM      1  O   LIG    1        3.344  -1.727  -0.033  0.00  0.00    -0.489 OA
ENDROOT
BRANCH   1   2
ATOM      2  C   LIG    1        4.008  -2.939  -0.044  0.00  0.00    +0.126 A 
ATOM      3  C   LIG    1        3.357  -4.185  -0.003  0.00  0.00    +0.046 A 
ATOM      4  C   LIG    1        4.087  -5.371  -0.028  0.00  0.00    +0.005 A 
ATOM      5  C   LIG    1        5.476  -5.332  -0.085  0.00  0.00    +0.024 A 
ATOM      6  C   LIG    1        6.135  -4.103  -0.118  0.00  0.00    +0.040 A 
ATOM      7  N   LIG    1        7.532  -4.082  -0.129  0.00  0.00    -0.285 N 
ATOM      8  H   LIG    1        8.014  -4.954  -0.288  0.00  0.00    +0.155 HD
ATOM      9  C   LIG    1        8.351  -3.048   0.159  0.00  0.00    +0.218 C 
ATOM     10  C   LIG    1        7.598  -1.738   0.509  0.00  0.00    +0.101 C 
ATOM     11  C   LIG    1        6.219  -1.608  -0.196  0.00  0.00    +0.050 C 
ATOM     12  O   LIG    1        9.575  -3.158   0.178  0.00  0.00    -0.275 OA
ATOM     13  C   LIG    1        5.411  -2.902  -0.111  0.00  0.00    +0.016 A 
ENDBRANCH   1   2
BRANCH   1  14
ATOM     14  C   LIG    1        1.923  -1.698   0.092  0.00  0.00    +0.261 C 
BRANCH  14  15
ATOM     15  C   LIG    1        1.438  -0.237   0.166  0.00  0.00    +0.166 C 
BRANCH  15  16
ATOM     16  O   LIG    1        1.887   0.324   1.388  0.00  0.00    -0.387 OA
ATOM     17  H   LIG    1        1.518   1.207   1.466  0.00  0.00    +0.210 HD
ENDBRANCH  15  16
BRANCH  15  18
ATOM     18  C   LIG    1       -0.101  -0.137   0.089  0.00  0.00    +0.116 C 
BRANCH  18  19
ATOM     19  N   LIG    1       -0.530   1.261   0.016  0.00  0.00    -0.309 NA
ATOM     20  H   LIG    1       -0.077   1.719  -0.762  0.00  0.00    +0.123 HD
BRANCH  19  21
ATOM     21  C   LIG    1       -1.974   1.527  -0.032  0.00  0.00    +0.011 C 
ATOM     22  C   LIG    1       -2.609   0.877  -1.284  0.00  0.00    +0.027 C 
ATOM     23  C   LIG    1       -2.662   1.024   1.260  0.00  0.00    +0.027 C 
ATOM     24  C   LIG    1       -2.111   3.062  -0.123  0.00  0.00    +0.027 C 
ENDBRANCH  19  21
ENDBRANCH  18  19
ENDBRANCH  15  18
ENDBRANCH  14  15
ENDBRANCH   1  14
TORSDOF 7
