REMARK  Name = DB00388
REMARK                            x       y       z     vdW  Elec       q    Type
REMARK                         _______ _______ _______ _____ _____    ______ ____
ROOT
ATOM      1  C   LIG    1       -0.538   1.434  -0.023  0.00  0.00    -0.014 A 
ATOM      2  C   LIG    1       -0.877   2.045   1.190  0.00  0.00    +0.006 A 
ATOM      3  C   LIG    1       -1.348   3.359   1.212  0.00  0.00    +0.004 A 
ATOM      4  C   LIG    1       -1.480   4.074   0.022  0.00  0.00    +0.045 A 
ATOM      5  C   LIG    1       -1.138   3.476  -1.191  0.00  0.00    +0.117 A 
ATOM      6  C   LIG    1       -0.666   2.162  -1.213  0.00  0.00    +0.051 A 
ENDROOT
BRANCH   5   7
ATOM      7  O   LIG    1       -1.264   4.178  -2.360  0.00  0.00    -0.507 OA
ATOM      8  H   LIG    1       -1.599   5.067  -2.227  0.00  0.00    +0.292 HD
ENDBRANCH   5   7
BRANCH   1   9
ATOM      9  C   LIG    1       -0.012  -0.001  -0.031  0.00  0.00    +0.158 C 
BRANCH   9  10
ATOM     10  O   LIG    1       -0.577  -0.775  -1.078  0.00  0.00    -0.386 OA
ATOM     11  H   LIG    1       -1.519  -0.864  -0.914  0.00  0.00    +0.210 HD
ENDBRANCH   9  10
BRANCH   9  12
ATOM     12  C   LIG    1        1.530  -0.025  -0.137  0.00  0.00    +0.116 C 
BRANCH  12  13
ATOM     13  N   LIG    1        2.058  -1.363   0.106  0.00  0.00    -0.316 NA
ATOM     14  H   LIG    1        1.642  -2.013  -0.546  0.00  0.00    +0.122 HD
ATOM     15  C   LIG    1        3.506  -1.378  -0.027  0.00  0.00    +0.101 C 
ENDBRANCH  12  13
ENDBRANCH   9  12
ENDBRANCH   1   9
TORSDOF 5
