REMARK  Name = DB00712
REMARK                            x       y       z     vdW  Elec       q    Type
REMARK                         _______ _______ _______ _____ _____    ______ ____
ROOT
ATOM      1  F   LIG    1        4.192  -1.390  -1.996  0.00  0.00    -0.205 F 
ATOM      2  C   LIG    1        3.585  -0.708  -0.996  0.00  0.00    +0.131 A 
ATOM      3  C   LIG    1        2.190  -0.687  -0.964  0.00  0.00    +0.043 A 
ATOM      4  C   LIG    1        1.508   0.030   0.023  0.00  0.00    -0.031 A 
ATOM      5  C   LIG    1        2.249   0.722   0.986  0.00  0.00    +0.005 A 
ATOM      6  C   LIG    1        3.643   0.699   0.956  0.00  0.00    +0.011 A 
ATOM      7  C   LIG    1        4.338  -0.016  -0.030  0.00  0.00    +0.017 A 
ENDROOT
BRANCH   7   8
ATOM      8  C   LIG    1        5.834  -0.024  -0.031  0.00  0.00    -0.015 A 
ATOM      9  C   LIG    1        6.553  -1.192  -0.327  0.00  0.00    +0.008 A 
ATOM     10  C   LIG    1        7.945  -1.192  -0.325  0.00  0.00    +0.001 A 
ATOM     11  C   LIG    1        8.635  -0.022  -0.024  0.00  0.00    +0.000 A 
ATOM     12  C   LIG    1        7.942   1.147   0.278  0.00  0.00    +0.001 A 
ATOM     13  C   LIG    1        6.550   1.143   0.275  0.00  0.00    +0.008 A 
ENDBRANCH   7   8
BRANCH   4  14
ATOM     14  C   LIG    1       -0.025   0.036   0.044  0.00  0.00    +0.124 C 
ATOM     15  C   LIG    1       -0.613   1.465  -0.002  0.00  0.00    +0.024 C 
BRANCH  14  16
ATOM     16  C   LIG    1       -0.550  -0.775   1.245  0.00  0.00    +0.312 C 
ATOM     17  O   LIG    1       -0.742  -0.293   2.361  0.00  0.00    -0.250 OA
BRANCH  16  18
ATOM     18  O   LIG    1       -0.738  -2.089   0.926  0.00  0.00    -0.480 OA
ATOM     19  H   LIG    1       -1.046  -2.604   1.676  0.00  0.00    +0.295 HD
ENDBRANCH  16  18
ENDBRANCH  14  16
ENDBRANCH   4  14
TORSDOF 4
