REMARK  Name = DB00537
REMARK                            x       y       z     vdW  Elec       q    Type
REMARK                         _______ _______ _______ _____ _____    ______ ____
ROOT
ATOM      1  F   LIG    1       -2.262   4.780   0.682  0.00  0.00    -0.204 F 
ATOM      2  C   LIG    1       -1.661   3.581   0.490  0.00  0.00    +0.145 A 
ATOM      3  C   LIG    1       -2.447   2.434   0.572  0.00  0.00    +0.054 A 
ATOM      4  C   LIG    1       -1.915   1.160   0.331  0.00  0.00    +0.049 A 
ATOM      5  C   LIG    1       -2.821  -0.049   0.402  0.00  0.00    +0.203 A 
ATOM      6  C   LIG    1       -2.167  -1.334   0.009  0.00  0.00    +0.122 A 
ATOM      7  C   LIG    1       -0.835  -1.328  -0.272  0.00  0.00    +0.105 A 
ATOM      8  N   LIG    1        0.006  -0.231  -0.202  0.00  0.00    -0.343 N 
ATOM      9  O   LIG    1       -4.003   0.073   0.736  0.00  0.00    -0.286 OA
ATOM     10  C   LIG    1       -0.542   1.059   0.015  0.00  0.00    +0.055 A 
ATOM     11  C   LIG    1        0.236   2.222  -0.082  0.00  0.00    +0.052 A 
ATOM     12  C   LIG    1       -0.295   3.495   0.176  0.00  0.00    +0.067 A 
ENDROOT
BRANCH  12  13
ATOM     13  N   LIG    1        0.489   4.644   0.061  0.00  0.00    -0.325 N 
ATOM     14  C   LIG    1        1.768   4.645  -0.678  0.00  0.00    +0.120 C 
ATOM     15  C   LIG    1        2.291   6.060  -1.018  0.00  0.00    +0.100 C 
ATOM     16  N   LIG    1        2.416   6.882   0.176  0.00  0.00    -0.313 NA
ATOM     17  H   LIG    1        2.741   7.804  -0.077  0.00  0.00    +0.122 HD
ATOM     18  C   LIG    1        1.109   6.978   0.811  0.00  0.00    +0.100 C 
ATOM     19  C   LIG    1        0.574   5.581   1.199  0.00  0.00    +0.120 C 
ENDBRANCH  12  13
BRANCH   8  20
ATOM     20  C   LIG    1        1.442  -0.464  -0.403  0.00  0.00    +0.087 C 
ATOM     21  C   LIG    1        2.400  -0.011   0.691  0.00  0.00    +0.027 C 
ATOM     22  C   LIG    1        2.132  -1.472   0.506  0.00  0.00    +0.027 C 
ENDBRANCH   8  20
BRANCH   6  23
ATOM     23  C   LIG    1       -2.941  -2.576  -0.091  0.00  0.00    +0.342 C 
ATOM     24  O   LIG    1       -4.156  -2.657   0.090  0.00  0.00    -0.245 OA
BRANCH  23  25
ATOM     25  O   LIG    1       -2.200  -3.682  -0.410  0.00  0.00    -0.477 OA
ATOM     26  H   LIG    1       -2.739  -4.474  -0.465  0.00  0.00    +0.295 HD
ENDBRANCH  23  25
ENDBRANCH   6  23
TORSDOF 4
