REMARK  Name = DB00898
REMARK                            x       y       z     vdW  Elec       q    Type
REMARK                         _______ _______ _______ _____ _____    ______ ____
ROOT
ATOM      1  O   LIG    1       -0.053   0.016   0.000  0.00  0.00    -0.395 OA
ATOM      2  H   LIG    1       -0.357   0.927   0.000  0.00  0.00    +0.209 HD
ENDROOT
BRANCH   1   3
ATOM      3  C   LIG    1        1.359   0.014   0.000  0.00  0.00    +0.152 C 
ATOM      4  C   LIG    1        1.883  -1.427   0.000  0.00  0.00    +0.034 C 
ENDBRANCH   1   3
TORSDOF 1
