REMARK  Name = DB00909
REMARK                            x       y       z     vdW  Elec       q    Type
REMARK                         _______ _______ _______ _____ _____    ______ ____
ROOT
ATOM      1  C   LIG    1        2.397  -1.405   0.061  0.00  0.00    +0.114 A 
ATOM      2  C   LIG    1        2.570  -2.240  -1.086  0.00  0.00    +0.046 A 
ATOM      3  C   LIG    1        2.285  -2.184  -2.460  0.00  0.00    +0.013 A 
ATOM      4  C   LIG    1        2.642  -3.274  -3.260  0.00  0.00    +0.001 A 
ATOM      5  C   LIG    1        3.268  -4.400  -2.719  0.00  0.00    +0.004 A 
ATOM      6  C   LIG    1        3.563  -4.481  -1.357  0.00  0.00    +0.049 A 
ATOM      7  C   LIG    1        3.199  -3.383  -0.569  0.00  0.00    +0.168 A 
ATOM      8  O   LIG    1        3.381  -3.240   0.773  0.00  0.00    -0.354 OA
ATOM      9  N   LIG    1        2.863  -1.992   1.145  0.00  0.00    -0.080 NA
ENDROOT
BRANCH   1  10
ATOM     10  C   LIG    1        1.747  -0.042   0.143  0.00  0.00    +0.244 C 
BRANCH  10  11
ATOM     11  S   LIG    1       -0.125  -0.073  -0.102  0.00  0.00    +0.033 S 
ATOM     12  O   LIG    1       -0.405  -0.436  -1.495  0.00  0.00    -0.158 OA
ATOM     13  O   LIG    1       -0.721  -0.829   1.005  0.00  0.00    -0.158 OA
BRANCH  11  14
ATOM     14  N   LIG    1       -0.579   1.607   0.104  0.00  0.00    -0.208 NA
ATOM     15  H   LIG    1       -0.231   2.234  -0.626  0.00  0.00    +0.144 HD
ATOM     16  H   LIG    1       -0.443   1.971   1.051  0.00  0.00    +0.144 HD
ENDBRANCH  11  14
ENDBRANCH  10  11
ENDBRANCH   1  10
TORSDOF 3
