REMARK  Name = DB00788
REMARK                            x       y       z     vdW  Elec       q    Type
REMARK                         _______ _______ _______ _____ _____    ______ ____
ROOT
ATOM      1  C   LIG    1       -2.939  -2.390  -0.485  0.00  0.00    +0.012 A 
ATOM      2  C   LIG    1       -2.164  -1.232  -0.236  0.00  0.00    -0.017 A 
ATOM      3  C   LIG    1       -0.748  -1.260  -0.277  0.00  0.00    +0.013 A 
ATOM      4  C   LIG    1        0.001  -0.102  -0.034  0.00  0.00    -0.033 A 
ATOM      5  C   LIG    1       -0.663   1.088   0.274  0.00  0.00    +0.005 A 
ATOM      6  C   LIG    1       -2.053   1.148   0.323  0.00  0.00    +0.009 A 
ATOM      7  C   LIG    1       -2.829  -0.007   0.066  0.00  0.00    -0.014 A 
ATOM      8  C   LIG    1       -4.245   0.020   0.104  0.00  0.00    +0.054 A 
ATOM      9  C   LIG    1       -4.995  -1.138  -0.149  0.00  0.00    +0.121 A 
ATOM     10  C   LIG    1       -4.329  -2.328  -0.439  0.00  0.00    +0.046 A 
ENDROOT
BRANCH   4  11
ATOM     11  C   LIG    1        1.537  -0.116  -0.054  0.00  0.00    +0.124 C 
ATOM     12  C   LIG    1        2.160  -1.153  -1.017  0.00  0.00    +0.024 C 
BRANCH  11  13
ATOM     13  C   LIG    1        2.082  -0.290   1.377  0.00  0.00    +0.312 C 
ATOM     14  O   LIG    1        1.986  -1.337   2.015  0.00  0.00    -0.250 OA
BRANCH  13  15
ATOM     15  O   LIG    1        2.657   0.855   1.848  0.00  0.00    -0.480 OA
ATOM     16  H   LIG    1        2.990   0.751   2.743  0.00  0.00    +0.295 HD
ENDBRANCH  13  15
ENDBRANCH  11  13
ENDBRANCH   4  11
BRANCH   9  17
ATOM     17  O   LIG    1       -6.375  -1.193  -0.134  0.00  0.00    -0.495 OA
ATOM     18  C   LIG    1       -7.114  -0.009   0.145  0.00  0.00    +0.277 C 
ENDBRANCH   9  17
TORSDOF 4
