REMARK  Name = DB00856
REMARK                            x       y       z     vdW  Elec       q    Type
REMARK                         _______ _______ _______ _____ _____    ______ ____
ROOT
ATOM      1  O   LIG    1        2.089  -1.225  -0.029  0.00  0.00    -0.489 OA
ENDROOT
BRANCH   1   6
ATOM      2 CL   LIG    1        7.920  -2.112  -0.040  0.00  0.00    -0.084 Cl
ATOM      3  C   LIG    1        6.218  -1.823  -0.036  0.00  0.00    +0.041 A 
ATOM      4  C   LIG    1        5.738  -0.519   0.053  0.00  0.00    +0.023 A 
ATOM      5  C   LIG    1        4.365  -0.285   0.056  0.00  0.00    +0.047 A 
ATOM      6  C   LIG    1        3.465  -1.360  -0.028  0.00  0.00    +0.121 A 
ATOM      7  C   LIG    1        3.962  -2.661  -0.116  0.00  0.00    +0.047 A 
ATOM      8  C   LIG    1        5.334  -2.896  -0.121  0.00  0.00    +0.023 A 
ENDBRANCH   1   6
BRANCH   1   9
ATOM      9  C   LIG    1        1.511   0.075   0.072  0.00  0.00    +0.262 C 
BRANCH   9  10
ATOM     10  C   LIG    1       -0.026  -0.038   0.075  0.00  0.00    +0.177 C 
BRANCH  10  11
ATOM     11  O   LIG    1       -0.433  -0.663   1.280  0.00  0.00    -0.386 OA
ATOM     12  H   LIG    1       -1.392  -0.712   1.286  0.00  0.00    +0.210 HD
ENDBRANCH  10  11
BRANCH  10  13
ATOM     13  C   LIG    1       -0.715   1.340  -0.030  0.00  0.00    +0.190 C 
BRANCH  13  14
ATOM     14  O   LIG    1       -2.107   1.203  -0.236  0.00  0.00    -0.392 OA
ATOM     15  H   LIG    1       -2.495   2.079  -0.300  0.00  0.00    +0.210 HD
ENDBRANCH  13  14
ENDBRANCH  10  13
ENDBRANCH   9  10
ENDBRANCH   1   9
TORSDOF 6
