REMARK  Name = DB00726
REMARK                            x       y       z     vdW  Elec       q    Type
REMARK                         _______ _______ _______ _____ _____    ______ ____
ROOT
ATOM      1  N   LIG    1       -0.367  -1.969   1.347  0.00  0.00    -0.299 N 
ATOM      2  C   LIG    1       -0.120  -2.494   2.644  0.00  0.00    +0.037 A 
ATOM      3  C   LIG    1       -0.619  -1.802   3.771  0.00  0.00    +0.024 A 
ATOM      4  C   LIG    1       -0.438  -2.256   5.072  0.00  0.00    +0.002 A 
ATOM      5  C   LIG    1        0.244  -3.440   5.296  0.00  0.00    +0.000 A 
ATOM      6  C   LIG    1        0.730  -4.161   4.215  0.00  0.00    +0.005 A 
ATOM      7  C   LIG    1        0.566  -3.719   2.895  0.00  0.00    -0.026 A 
ATOM      8  C   LIG    1        1.126  -4.643   1.812  0.00  0.00    +0.042 C 
ATOM      9  C   LIG    1        1.371  -4.084   0.411  0.00  0.00    +0.042 C 
ATOM     10  C   LIG    1        0.083  -3.731  -0.305  0.00  0.00    -0.026 A 
ATOM     11  C   LIG    1       -0.308  -4.432  -1.454  0.00  0.00    +0.005 A 
ATOM     12  C   LIG    1       -1.517  -4.156  -2.085  0.00  0.00    +0.000 A 
ATOM     13  C   LIG    1       -2.356  -3.178  -1.566  0.00  0.00    +0.002 A 
ATOM     14  C   LIG    1       -1.977  -2.476  -0.425  0.00  0.00    +0.024 A 
ATOM     15  C   LIG    1       -0.754  -2.727   0.222  0.00  0.00    +0.037 A 
ENDROOT
BRANCH   1  16
ATOM     16  C   LIG    1       -0.548  -0.500   1.226  0.00  0.00    +0.115 C 
BRANCH  16  17
ATOM     17  C   LIG    1        0.039   0.167  -0.052  0.00  0.00    +0.018 C 
ATOM     18  C   LIG    1       -0.268   1.678  -0.017  0.00  0.00    +0.010 C 
BRANCH  17  19
ATOM     19  C   LIG    1        1.537  -0.197  -0.262  0.00  0.00    +0.088 C 
BRANCH  19  20
ATOM     20  N   LIG    1        2.191   0.491  -1.385  0.00  0.00    -0.308 NA
ATOM     21  C   LIG    1        3.180  -0.379  -2.019  0.00  0.00    +0.104 C 
ATOM     22  C   LIG    1        2.877   1.707  -0.945  0.00  0.00    +0.104 C 
ENDBRANCH  19  20
ENDBRANCH  17  19
ENDBRANCH  16  17
ENDBRANCH   1  16
TORSDOF 4
