REMARK  Name = DB00721
REMARK                            x       y       z     vdW  Elec       q    Type
REMARK                         _______ _______ _______ _____ _____    ______ ____
ROOT
ATOM      1  C   LIG    1        3.904   1.477  -2.550  0.00  0.00    +0.339 C 
ATOM      2  O   LIG    1        3.296   2.002  -3.488  0.00  0.00    -0.245 OA
ENDROOT
BRANCH   1   3
ATOM      3  C   LIG    1        5.402   1.438  -2.457  0.00  0.00    +0.059 A 
ATOM      4  C   LIG    1        6.166   2.020  -3.479  0.00  0.00    +0.017 A 
ATOM      5  C   LIG    1        7.557   2.000  -3.422  0.00  0.00    +0.023 A 
ATOM      6  C   LIG    1        8.198   1.396  -2.343  0.00  0.00    +0.025 A 
ATOM      7  C   LIG    1        7.455   0.813  -1.319  0.00  0.00    +0.023 A 
ATOM      8  C   LIG    1        6.063   0.833  -1.375  0.00  0.00    +0.017 A 
BRANCH   6   9
ATOM      9  N   LIG    1        9.591   1.375  -2.286  0.00  0.00    -0.358 N 
ATOM     10  H   LIG    1       10.050   0.937  -1.501  0.00  0.00    +0.142 HD
ATOM     11  H   LIG    1       10.125   1.802  -3.030  0.00  0.00    +0.142 HD
ENDBRANCH   6   9
ENDBRANCH   1   3
BRANCH   1  12
ATOM     12  O   LIG    1        3.287   0.879  -1.499  0.00  0.00    -0.460 OA
BRANCH  12  13
ATOM     13  C   LIG    1        1.869   0.818  -1.418  0.00  0.00    +0.248 C 
BRANCH  13  14
ATOM     14  C   LIG    1        1.468   0.097  -0.119  0.00  0.00    +0.125 C 
BRANCH  14  15
ATOM     15  N   LIG    1        0.020  -0.124   0.008  0.00  0.00    -0.300 NA
BRANCH  15  16
ATOM     16  C   LIG    1       -0.239  -0.977   1.175  0.00  0.00    +0.081 C 
ATOM     17  C   LIG    1       -1.660  -1.571   1.165  0.00  0.00    +0.020 C 
ENDBRANCH  15  16
BRANCH  15  18
ATOM     18  C   LIG    1       -0.737   1.138   0.066  0.00  0.00    +0.081 C 
ATOM     19  C   LIG    1       -1.426   1.418  -1.278  0.00  0.00    +0.020 C 
ENDBRANCH  15  18
ENDBRANCH  14  15
ENDBRANCH  13  14
ENDBRANCH  12  13
ENDBRANCH   1  12
TORSDOF 8
