REMARK  Name = DB00570
REMARK                            x       y       z     vdW  Elec       q    Type
REMARK                         _______ _______ _______ _____ _____    ______ ____
ROOT
ATOM      1  C   LIG    1       -3.444   2.417   0.039  0.00  0.00    +0.037 C 
ATOM      2  C   LIG    1       -3.052   3.582  -0.912  0.00  0.00    +0.030 C 
ATOM      3  C   LIG    1       -2.564   4.703   0.001  0.00  0.00    +0.086 C 
ATOM      4  N   LIG    1       -3.346   4.537   1.210  0.00  0.00    -0.294 NA
ATOM      5  C   LIG    1       -2.994   5.308   2.398  0.00  0.00    +0.111 C 
ATOM      6  C   LIG    1       -3.769   4.862   3.621  0.00  0.00    -0.015 C 
ATOM      7  C   LIG    1       -4.370   3.660   3.692  0.00  0.00    -0.018 C 
ATOM      8  C   LIG    1       -4.348   2.596   2.569  0.00  0.00    +0.045 C 
ATOM      9  C   LIG    1       -5.809   2.318   1.999  0.00  0.00    +0.232 C 
ATOM     10  C   LIG    1       -6.008   2.437   0.444  0.00  0.00    +0.219 C 
ATOM     11  C   LIG    1       -2.517   1.223  -0.068  0.00  0.00    -0.016 A 
ATOM     12  C   LIG    1       -1.128   1.201   0.021  0.00  0.00    +0.014 A 
ATOM     13  C   LIG    1       -0.391   0.008  -0.075  0.00  0.00    +0.017 A 
ATOM     14  C   LIG    1       -1.114  -1.206  -0.210  0.00  0.00    +0.126 A 
ATOM     15  C   LIG    1       -2.518  -1.174  -0.297  0.00  0.00    +0.069 A 
ATOM     16  C   LIG    1       -3.208   0.034  -0.251  0.00  0.00    +0.037 A 
ATOM     17  N   LIG    1       -4.574   0.313  -0.205  0.00  0.00    -0.325 N 
ATOM     18  C   LIG    1       -5.561  -0.504  -0.911  0.00  0.00    +0.129 C 
ATOM     19  C   LIG    1       -4.804   1.765  -0.328  0.00  0.00    +0.132 C 
ATOM     20  C   LIG    1       -3.351   3.091   1.440  0.00  0.00    +0.083 C 
ENDROOT
BRANCH  13  21
ATOM     21  C   LIG    1        1.177   0.038   0.032  0.00  0.00    +0.136 C 
ATOM     22  C   LIG    1        1.895  -0.670  -1.212  0.00  0.00    +0.034 C 
ATOM     23  C   LIG    1        1.146  -1.022  -2.547  0.00  0.00    +0.008 C 
ATOM     24  C   LIG    1        2.176  -1.647  -3.539  0.00  0.00    +0.041 C 
ATOM     25  C   LIG    1        2.853  -0.747  -4.614  0.00  0.00    +0.079 C 
ATOM     26  C   LIG    1        1.934   0.447  -5.040  0.00  0.00    +0.119 C 
ATOM     27  N   LIG    1        1.148   1.113  -3.993  0.00  0.00    -0.299 NA
ATOM     28  C   LIG    1        1.958   2.020  -3.172  0.00  0.00    +0.089 C 
ATOM     29  C   LIG    1        1.168   2.780  -2.084  0.00  0.00    +0.053 C 
ATOM     30  C   LIG    1        1.784   2.612  -0.708  0.00  0.00    -0.016 A 
ATOM     31  C   LIG    1        2.522   3.666  -0.059  0.00  0.00    +0.003 A 
ATOM     32  C   LIG    1        2.962   3.172   1.192  0.00  0.00    +0.047 A 
ATOM     33  C   LIG    1        3.714   3.939   2.089  0.00  0.00    +0.026 A 
ATOM     34  C   LIG    1        4.023   5.243   1.700  0.00  0.00    +0.002 A 
ATOM     35  C   LIG    1        3.606   5.758   0.476  0.00  0.00    +0.001 A 
ATOM     36  N   LIG    1        2.505   1.883   1.267  0.00  0.00    -0.357 N 
ATOM     37  H   LIG    1        2.656   1.248   2.038  0.00  0.00    +0.166 HD
ATOM     38  C   LIG    1        2.859   4.986  -0.411  0.00  0.00    +0.010 A 
ATOM     39  C   LIG    1        0.369   0.122  -3.244  0.00  0.00    +0.088 C 
ATOM     40  C   LIG    1        1.779   1.493   0.153  0.00  0.00    +0.042 A 
BRANCH  21  41
ATOM     41  C   LIG    1        1.462  -0.755   1.371  0.00  0.00    +0.323 C 
ATOM     42  O   LIG    1        2.233  -1.716   1.435  0.00  0.00    -0.249 OA
BRANCH  41  43
ATOM     43  O   LIG    1        0.779  -0.258   2.441  0.00  0.00    -0.467 OA
ATOM     44  C   LIG    1        0.900  -0.854   3.723  0.00  0.00    +0.280 C 
ENDBRANCH  41  43
ENDBRANCH  21  41
BRANCH  25  45
ATOM     45  O   LIG    1        3.981  -0.142  -4.004  0.00  0.00    -0.387 OA
ATOM     46  H   LIG    1        4.391   0.446  -4.642  0.00  0.00    +0.210 HD
ENDBRANCH  25  45
BRANCH  25  47
ATOM     47  C   LIG    1        3.322  -1.574  -5.842  0.00  0.00    +0.032 C 
ATOM     48  C   LIG    1        4.113  -0.801  -6.915  0.00  0.00    +0.007 C 
ENDBRANCH  25  47
ENDBRANCH  13  21
BRANCH   8  49
ATOM     49  C   LIG    1       -3.881   1.270   3.258  0.00  0.00    +0.013 C 
ATOM     50  C   LIG    1       -2.465   1.251   3.873  0.00  0.00    +0.005 C 
ENDBRANCH   8  49
BRANCH  10  51
ATOM     51  O   LIG    1       -6.032   3.809   0.063  0.00  0.00    -0.373 OA
ATOM     52  H   LIG    1       -6.631   4.277   0.650  0.00  0.00    +0.211 HD
ENDBRANCH  10  51
BRANCH  10  53
ATOM     53  C   LIG    1       -7.379   1.867  -0.048  0.00  0.00    +0.345 C 
ATOM     54  O   LIG    1       -7.905   2.253  -1.098  0.00  0.00    -0.247 OA
BRANCH  53  55
ATOM     55  O   LIG    1       -7.918   0.935   0.776  0.00  0.00    -0.466 OA
ATOM     56  C   LIG    1       -9.167   0.330   0.474  0.00  0.00    +0.280 C 
ENDBRANCH  53  55
ENDBRANCH  10  53
BRANCH  14  57
ATOM     57  O   LIG    1       -0.401  -2.394  -0.219  0.00  0.00    -0.495 OA
ATOM     58  C   LIG    1       -1.080  -3.637  -0.360  0.00  0.00    +0.277 C 
ENDBRANCH  14  57
BRANCH   9  59
ATOM     59  O   LIG    1       -6.861   3.033   2.679  0.00  0.00    -0.457 OA
BRANCH  59  60
ATOM     60  C   LIG    1       -7.545   2.506   3.724  0.00  0.00    +0.304 C 
ATOM     61  O   LIG    1       -7.376   1.394   4.224  0.00  0.00    -0.251 OA
ATOM     62  C   LIG    1       -8.604   3.461   4.257  0.00  0.00    +0.136 C 
ENDBRANCH  59  60
ENDBRANCH   9  59
TORSDOF 12
