REMARK  Name = DB00627
REMARK                            x       y       z     vdW  Elec       q    Type
REMARK                         _______ _______ _______ _____ _____    ______ ____
ROOT
ATOM      1  C   LIG    1        0.010   0.029   0.000  0.00  0.00    +0.077 A 
ATOM      2  C   LIG    1       -0.700  -1.182   0.000  0.00  0.00    +0.125 A 
ATOM      3  N   LIG    1       -2.056  -1.255   0.000  0.00  0.00    -0.262 NA
ATOM      4  C   LIG    1       -2.752  -0.091   0.000  0.00  0.00    +0.111 A 
ATOM      5  C   LIG    1       -2.136   1.160   0.000  0.00  0.00    +0.020 A 
ATOM      6  C   LIG    1       -0.740   1.216   0.000  0.00  0.00    +0.018 A 
ENDROOT
BRANCH   1   7
ATOM      7  C   LIG    1        1.520   0.036   0.000  0.00  0.00    +0.338 C 
ATOM      8  O   LIG    1        2.181  -1.002   0.000  0.00  0.00    -0.245 OA
BRANCH   7   9
ATOM      9  O   LIG    1        2.091   1.277  -0.000  0.00  0.00    -0.477 OA
ATOM     10  H   LIG    1        3.050   1.234  -0.000  0.00  0.00    +0.295 HD
ENDBRANCH   7   9
ENDBRANCH   1   7
TORSDOF 2
