REMARK  Name = DB00931
REMARK                            x       y       z     vdW  Elec       q    Type
REMARK                         _______ _______ _______ _____ _____    ______ ____
ROOT
ATOM      1  C   LIG    1       -0.523   1.432  -0.088  0.00  0.00    +0.090 C 
ATOM      2  C   LIG    1       -0.050  -0.051  -0.262  0.00  0.00    +0.132 C 
ATOM      3  C   LIG    1       -0.853  -0.582  -1.462  0.00  0.00    +0.127 C 
ATOM      4  C   LIG    1       -1.163   0.140  -2.577  0.00  0.00    +0.121 C 
ATOM      5  C   LIG    1       -0.695   1.555  -2.684  0.00  0.00    +0.211 C 
ATOM      6  O   LIG    1       -0.637   2.124  -3.778  0.00  0.00    -0.288 OA
ATOM      7  C   LIG    1       -1.999   1.573   0.407  0.00  0.00    +0.135 C 
ATOM      8  C   LIG    1       -2.254   3.029   0.877  0.00  0.00    +0.085 C 
ATOM      9  C   LIG    1       -1.894   4.007  -0.271  0.00  0.00    +0.050 C 
ATOM     10  C   LIG    1       -2.617   5.299  -0.343  0.00  0.00    +0.197 C 
ATOM     11  O   LIG    1       -2.108   6.374  -0.668  0.00  0.00    -0.287 OA
ATOM     12  C   LIG    1       -4.103   5.123  -0.164  0.00  0.00    +0.071 A 
ATOM     13  C   LIG    1       -5.035   5.974  -0.804  0.00  0.00    +0.128 A 
ATOM     14  C   LIG    1       -6.405   5.779  -0.636  0.00  0.00    +0.046 A 
ATOM     15  C   LIG    1       -6.875   4.750   0.169  0.00  0.00    +0.004 A 
ATOM     16  C   LIG    1       -5.974   3.922   0.827  0.00  0.00    +0.009 A 
ATOM     17  C   LIG    1       -4.590   4.100   0.679  0.00  0.00    -0.007 A 
ATOM     18  C   LIG    1       -0.993   3.674  -1.242  0.00  0.00    +0.141 C 
ATOM     19  C   LIG    1       -3.638   3.303   1.496  0.00  0.00    -0.036 C 
ATOM     20  C   LIG    1       -3.972   2.875   2.732  0.00  0.00    +0.013 C 
ATOM     21  C   LIG    1       -0.264   2.301  -1.372  0.00  0.00    +0.192 C 
ENDROOT
BRANCH   4  22
ATOM     22  C   LIG    1       -1.947  -0.493  -3.633  0.00  0.00    +0.248 C 
ATOM     23  O   LIG    1       -3.005  -1.082  -3.415  0.00  0.00    -0.270 OA
ATOM     24  N   LIG    1       -1.436  -0.426  -4.868  0.00  0.00    -0.325 N 
ATOM     25  H   LIG    1       -0.572   0.068  -5.035  0.00  0.00    +0.145 HD
ATOM     26  H   LIG    1       -1.923  -0.854  -5.641  0.00  0.00    +0.145 HD
ENDBRANCH   4  22
BRANCH   2  27
ATOM     27  N   LIG    1        1.412  -0.257  -0.410  0.00  0.00    -0.298 NA
ATOM     28  C   LIG    1        1.785  -1.641  -0.717  0.00  0.00    +0.105 C 
ATOM     29  C   LIG    1        2.141   0.126   0.801  0.00  0.00    +0.105 C 
ENDBRANCH   2  27
BRANCH   3  30
ATOM     30  O   LIG    1       -1.243  -1.867  -1.208  0.00  0.00    -0.509 OA
ATOM     31  H   LIG    1       -0.921  -2.136  -0.344  0.00  0.00    +0.292 HD
ENDBRANCH   3  30
BRANCH   7  32
ATOM     32  O   LIG    1       -2.326   0.620   1.405  0.00  0.00    -0.390 OA
ATOM     33  H   LIG    1       -1.787   0.792   2.180  0.00  0.00    +0.210 HD
ENDBRANCH   7  32
BRANCH  13  34
ATOM     34  O   LIG    1       -4.654   7.000  -1.635  0.00  0.00    -0.506 OA
ATOM     35  H   LIG    1       -5.399   7.479  -2.003  0.00  0.00    +0.292 HD
ENDBRANCH  13  34
BRANCH  18  36
ATOM     36  O   LIG    1       -0.640   4.507  -2.272  0.00  0.00    -0.507 OA
ATOM     37  H   LIG    1       -0.003   4.063  -2.837  0.00  0.00    +0.292 HD
ENDBRANCH  18  36
BRANCH  21  38
ATOM     38  O   LIG    1        1.132   2.549  -1.486  0.00  0.00    -0.373 OA
ATOM     39  H   LIG    1        1.592   1.706  -1.438  0.00  0.00    +0.211 HD
ENDBRANCH  21  38
TORSDOF 7
