REMARK  Name = DB00708
REMARK                            x       y       z     vdW  Elec       q    Type
REMARK                         _______ _______ _______ _____ _____    ______ ____
ROOT
ATOM      1  N   LIG    1        3.753   0.561  -2.118  0.00  0.00    -0.302 NA
ATOM      2  C   LIG    1        3.494   1.568  -1.083  0.00  0.00    +0.086 C 
ATOM      3  C   LIG    1        2.001   1.630  -0.702  0.00  0.00    +0.044 C 
ATOM      4  C   LIG    1        1.351   0.299  -0.189  0.00  0.00    +0.068 C 
ATOM      5  C   LIG    1        1.752  -0.738  -1.298  0.00  0.00    +0.044 C 
ATOM      6  C   LIG    1        3.231  -0.762  -1.754  0.00  0.00    +0.086 C 
ENDROOT
BRANCH   4   7
ATOM      7  N   LIG    1       -0.144   0.432   0.004  0.00  0.00    -0.263 N 
ATOM      8  C   LIG    1       -0.994  -0.645   0.093  0.00  0.00    +0.220 C 
ATOM      9  O   LIG    1       -0.594  -1.808   0.162  0.00  0.00    -0.275 OA
BRANCH   7  10
ATOM     10  C   LIG    1       -0.648   1.686   0.426  0.00  0.00    +0.037 A 
ATOM     11  C   LIG    1       -0.737   1.990   1.791  0.00  0.00    +0.023 A 
ATOM     12  C   LIG    1       -1.226   3.230   2.191  0.00  0.00    +0.002 A 
ATOM     13  C   LIG    1       -1.623   4.160   1.232  0.00  0.00    +0.000 A 
ATOM     14  C   LIG    1       -1.536   3.862  -0.127  0.00  0.00    +0.002 A 
ATOM     15  C   LIG    1       -1.048   2.624  -0.532  0.00  0.00    +0.023 A 
ENDBRANCH   7  10
BRANCH   8  16
ATOM     16  C   LIG    1       -2.525  -0.406   0.070  0.00  0.00    +0.093 C 
ATOM     17  C   LIG    1       -3.377  -1.676  -0.121  0.00  0.00    +0.013 C 
ENDBRANCH   8  16
ENDBRANCH   4   7
BRANCH   1  18
ATOM     18  C   LIG    1        5.181   0.574  -2.470  0.00  0.00    +0.089 C 
BRANCH  18  19
ATOM     19  C   LIG    1        5.570  -0.164  -3.776  0.00  0.00    +0.058 C 
BRANCH  19  24
ATOM     20  S   LIG    1        6.371  -2.592  -2.495  0.00  0.00    -0.102 S 
ATOM     21  C   LIG    1        5.840  -4.100  -3.156  0.00  0.00    +0.045 A 
ATOM     22  C   LIG    1        5.066  -3.916  -4.286  0.00  0.00    +0.008 A 
ATOM     23  C   LIG    1        4.904  -2.565  -4.607  0.00  0.00    +0.011 A 
ATOM     24  C   LIG    1        5.539  -1.682  -3.733  0.00  0.00    -0.009 A 
ENDBRANCH  19  24
ENDBRANCH  18  19
ENDBRANCH   1  18
BRANCH   4  25
ATOM     25  C   LIG    1        1.958  -0.079   1.208  0.00  0.00    +0.185 C 
BRANCH  25  26
ATOM     26  O   LIG    1        3.340  -0.408   1.185  0.00  0.00    -0.381 OA
ATOM     27  C   LIG    1        3.875  -0.742   2.456  0.00  0.00    +0.194 C 
ENDBRANCH  25  26
ENDBRANCH   4  25
TORSDOF 8
