REMARK  Name = DB00464
REMARK                            x       y       z     vdW  Elec       q    Type
REMARK                         _______ _______ _______ _____ _____    ______ ____
ROOT
ATOM      1  C   LIG    1       -0.525   1.488   0.112  0.00  0.00    +0.152 C 
ENDROOT
BRANCH   1   2
ATOM      2  C   LIG    1       -2.071   1.569   0.102  0.00  0.00    +0.037 C 
BRANCH   2   3
ATOM      3  C   LIG    1       -2.805   0.973   1.331  0.00  0.00    -0.015 C 
ATOM      4  C   LIG    1       -2.374   1.619   2.662  0.00  0.00    +0.007 C 
ATOM      5  C   LIG    1       -4.332   1.062   1.151  0.00  0.00    +0.007 C 
ENDBRANCH   2   3
ENDBRANCH   1   2
BRANCH   1   6
ATOM      6  C   LIG    1        0.024   0.045   0.162  0.00  0.00    +0.034 C 
BRANCH   6   7
ATOM      7  C   LIG    1        1.567  -0.033   0.120  0.00  0.00    +0.006 C 
BRANCH   7   8
ATOM      8  C   LIG    1        2.167  -1.465   0.045  0.00  0.00    -0.011 C 
BRANCH   8   9
ATOM      9  C   LIG    1        3.701  -1.433  -0.205  0.00  0.00    -0.000 C 
ATOM     10  C   LIG    1        4.145  -0.733  -1.502  0.00  0.00    +0.004 C 
ENDBRANCH   8   9
BRANCH   8  11
ATOM     11  C   LIG    1        1.801  -2.309   1.298  0.00  0.00    +0.003 C 
BRANCH  11  12
ATOM     12  C   LIG    1        2.248  -3.786   1.263  0.00  0.00    +0.000 C 
BRANCH  12  13
ATOM     13  C   LIG    1        1.701  -4.605   2.446  0.00  0.00    -0.003 C 
ATOM     14  C   LIG    1        2.158  -6.070   2.421  0.00  0.00    +0.004 C 
ENDBRANCH  12  13
ENDBRANCH  11  12
ENDBRANCH   8  11
ENDBRANCH   7   8
ENDBRANCH   6   7
ENDBRANCH   1   6
BRANCH   1  15
ATOM     15  O   LIG    1       -0.070   2.103  -1.089  0.00  0.00    -0.213 OA
BRANCH  15  16
ATOM     16  S   LIG    1        0.703   3.582  -0.984  0.00  0.00    +0.208 S 
ATOM     17  O   LIG    1        0.999   3.915  -2.382  0.00  0.00    -0.118 OA
ATOM     18  O   LIG    1       -0.285   4.460  -0.348  0.00  0.00    -0.118 OA
BRANCH  16  19
ATOM     19  O   LIG    1        1.888   3.312  -0.162  0.00  0.00    -0.231 OA
ATOM     20  H   LIG    1        1.612   3.101   0.744  0.00  0.00    +0.247 HD
ENDBRANCH  16  19
ENDBRANCH  15  16
ENDBRANCH   1  15
TORSDOF 12
