REMARK  Name = DB00426
REMARK                            x       y       z     vdW  Elec       q    Type
REMARK                         _______ _______ _______ _____ _____    ______ ____
ROOT
ATOM      1  C   LIG    1        2.897  -1.032  -0.162  0.00  0.00    +0.125 C 
ENDROOT
BRANCH   1   2
ATOM      2  N   LIG    1        3.013  -1.209   1.283  0.00  0.00    -0.315 N 
ATOM      3  C   LIG    1        3.931  -0.592   2.110  0.00  0.00    +0.201 A 
ATOM      4  N   LIG    1        3.815  -0.896   3.380  0.00  0.00    -0.233 NA
ATOM      5  C   LIG    1        2.756  -1.761   3.412  0.00  0.00    +0.126 A 
ATOM      6  C   LIG    1        2.124  -2.441   4.463  0.00  0.00    +0.145 A 
ATOM      7  N   LIG    1        1.064  -3.257   4.218  0.00  0.00    -0.221 NA
ATOM      8  C   LIG    1        0.655  -3.382   2.927  0.00  0.00    +0.215 A 
ATOM      9  N   LIG    1        1.189  -2.776   1.831  0.00  0.00    -0.195 NA
ATOM     10  C   LIG    1        2.228  -1.981   2.117  0.00  0.00    +0.165 A 
BRANCH   8  11
ATOM     11  N   LIG    1       -0.430  -4.221   2.699  0.00  0.00    -0.327 N 
ATOM     12  H   LIG    1       -0.767  -4.350   1.756  0.00  0.00    +0.145 HD
ATOM     13  H   LIG    1       -0.856  -4.700   3.479  0.00  0.00    +0.145 HD
ENDBRANCH   8  11
ENDBRANCH   1   2
BRANCH   1  14
ATOM     14  C   LIG    1        2.155   0.277  -0.520  0.00  0.00    +0.032 C 
BRANCH  14  15
ATOM     15  C   LIG    1        0.693   0.399  -0.015  0.00  0.00    +0.066 C 
BRANCH  15  16
ATOM     16  C   LIG    1       -0.237  -0.691  -0.598  0.00  0.00    +0.239 C 
BRANCH  16  17
ATOM     17  O   LIG    1       -0.345  -0.573  -2.013  0.00  0.00    -0.464 OA
BRANCH  17  18
ATOM     18  C   LIG    1       -1.105  -1.435  -2.715  0.00  0.00    +0.304 C 
ATOM     19  C   LIG    1       -1.091  -1.132  -4.207  0.00  0.00    +0.136 C 
ATOM     20  O   LIG    1       -1.757  -2.376  -2.257  0.00  0.00    -0.251 OA
ENDBRANCH  17  18
ENDBRANCH  16  17
ENDBRANCH  15  16
BRANCH  15  21
ATOM     21  C   LIG    1        0.151   1.822  -0.272  0.00  0.00    +0.239 C 
BRANCH  21  22
ATOM     22  O   LIG    1       -1.150   1.974   0.284  0.00  0.00    -0.464 OA
BRANCH  22  23
ATOM     23  C   LIG    1       -1.833   3.124   0.126  0.00  0.00    +0.304 C 
ATOM     24  C   LIG    1       -3.201   3.079   0.794  0.00  0.00    +0.136 C 
ATOM     25  O   LIG    1       -1.448   4.125  -0.479  0.00  0.00    -0.251 OA
ENDBRANCH  22  23
ENDBRANCH  21  22
ENDBRANCH  15  21
ENDBRANCH  14  15
ENDBRANCH   1  14
TORSDOF 10
