REMARK  Name = DB00321
REMARK                            x       y       z     vdW  Elec       q    Type
REMARK                         _______ _______ _______ _____ _____    ______ ____
ROOT
ATOM      1  C   LIG    1        3.476  -0.900  -1.217  0.00  0.00    -0.017 C 
ATOM      2  C   LIG    1        4.158  -0.858  -2.391  0.00  0.00    -0.014 C 
ATOM      3  C   LIG    1        5.651  -0.859  -2.380  0.00  0.00    -0.014 A 
ATOM      4  C   LIG    1        6.296  -1.722  -1.474  0.00  0.00    +0.009 A 
ATOM      5  C   LIG    1        7.681  -1.780  -1.377  0.00  0.00    +0.001 A 
ATOM      6  C   LIG    1        8.462  -0.968  -2.187  0.00  0.00    +0.000 A 
ATOM      7  C   LIG    1        7.849  -0.104  -3.088  0.00  0.00    +0.004 A 
ATOM      8  C   LIG    1        6.454  -0.021  -3.201  0.00  0.00    -0.039 A 
ATOM      9  C   LIG    1        5.908   0.960  -4.247  0.00  0.00    +0.040 C 
ATOM     10  C   LIG    1        4.416   1.329  -4.266  0.00  0.00    +0.040 C 
ATOM     11  C   LIG    1        3.509   0.155  -4.590  0.00  0.00    -0.039 A 
ATOM     12  C   LIG    1        2.789   0.089  -5.789  0.00  0.00    +0.004 A 
ATOM     13  C   LIG    1        2.013  -1.027  -6.096  0.00  0.00    +0.000 A 
ATOM     14  C   LIG    1        1.956  -2.096  -5.207  0.00  0.00    +0.001 A 
ATOM     15  C   LIG    1        2.669  -2.042  -4.012  0.00  0.00    +0.009 A 
ATOM     16  C   LIG    1        3.444  -0.919  -3.688  0.00  0.00    -0.014 A 
ENDROOT
BRANCH   1  17
ATOM     17  C   LIG    1        1.968  -0.913  -1.003  0.00  0.00    +0.043 C 
BRANCH  17  18
ATOM     18  C   LIG    1        1.480   0.301  -0.187  0.00  0.00    +0.088 C 
BRANCH  18  19
ATOM     19  N   LIG    1        0.018   0.402  -0.130  0.00  0.00    -0.308 NA
ATOM     20  C   LIG    1       -0.587  -0.691   0.631  0.00  0.00    +0.104 C 
ATOM     21  C   LIG    1       -0.365   1.675   0.474  0.00  0.00    +0.104 C 
ENDBRANCH  18  19
ENDBRANCH  17  18
ENDBRANCH   1  17
TORSDOF 3
