REMARK  Name = DB00861
REMARK                            x       y       z     vdW  Elec       q    Type
REMARK                         _______ _______ _______ _____ _____    ______ ____
ROOT
ATOM      1  C   LIG    1        4.169   0.009  -0.010  0.00  0.00    -0.014 A 
ATOM      2  C   LIG    1        3.461   1.210  -0.001  0.00  0.00    +0.012 A 
ATOM      3  C   LIG    1        2.070   1.205   0.009  0.00  0.00    +0.047 A 
ATOM      4  C   LIG    1        1.363   0.001   0.010  0.00  0.00    +0.131 A 
ATOM      5  C   LIG    1        2.055  -1.232   0.003  0.00  0.00    +0.101 A 
ATOM      6  C   LIG    1        3.462  -1.197  -0.008  0.00  0.00    +0.027 A 
ENDROOT
BRANCH   1  14
ATOM      7  F   LIG    1        5.705   0.010  -2.412  0.00  0.00    -0.205 F 
ATOM      8  C   LIG    1        6.362   0.011  -1.228  0.00  0.00    +0.134 A 
ATOM      9  C   LIG    1        7.758   0.013  -1.223  0.00  0.00    +0.077 A 
ATOM     10  C   LIG    1        8.453   0.014  -0.015  0.00  0.00    +0.126 A 
ATOM     11  C   LIG    1        7.753   0.013   1.190  0.00  0.00    +0.039 A 
ATOM     12  C   LIG    1        6.358   0.012   1.186  0.00  0.00    +0.014 A 
ATOM     13  F   LIG    1        9.805   0.016  -0.012  0.00  0.00    -0.205 F 
ATOM     14  C   LIG    1        5.649   0.011  -0.021  0.00  0.00    +0.018 A 
ENDBRANCH   1  14
BRANCH   5  15
ATOM     15  C   LIG    1        1.333  -2.570   0.006  0.00  0.00    +0.340 C 
ATOM     16  O   LIG    1        0.108  -2.673   0.013  0.00  0.00    -0.245 OA
BRANCH  15  17
ATOM     17  O   LIG    1        2.148  -3.667   0.002  0.00  0.00    -0.477 OA
ATOM     18  H   LIG    1        1.649  -4.486   0.005  0.00  0.00    +0.295 HD
ENDBRANCH  15  17
ENDBRANCH   5  15
BRANCH   4  19
ATOM     19  O   LIG    1       -0.007   0.089   0.019  0.00  0.00    -0.506 OA
ATOM     20  H   LIG    1       -0.325   0.995   0.017  0.00  0.00    +0.292 HD
ENDBRANCH   4  19
TORSDOF 4
