REMARK  Name = DB00905
REMARK                            x       y       z     vdW  Elec       q    Type
REMARK                         _______ _______ _______ _____ _____    ______ ____
ROOT
ATOM      1  C   LIG    1       -1.434   0.907  -2.390  0.00  0.00    +0.121 C 
ATOM      2  C   LIG    1       -1.011   1.613  -1.085  0.00  0.00    +0.031 C 
ATOM      3  C   LIG    1       -1.298   0.576   0.022  0.00  0.00    +0.046 C 
ATOM      4  C   LIG    1       -2.516  -0.246  -0.481  0.00  0.00    +0.124 C 
ATOM      5  C   LIG    1       -2.712   0.180  -1.951  0.00  0.00    +0.063 C 
ENDROOT
BRANCH   1   6
ATOM      6  O   LIG    1       -0.478  -0.050  -2.814  0.00  0.00    -0.391 OA
ATOM      7  H   LIG    1        0.295   0.412  -3.144  0.00  0.00    +0.210 HD
ENDBRANCH   1   6
BRANCH   3   8
ATOM      8  C   LIG    1       -1.539   1.213   1.383  0.00  0.00    -0.022 C 
ATOM      9  C   LIG    1       -0.789   0.991   2.476  0.00  0.00    -0.000 C 
BRANCH   9  10
ATOM     10  C   LIG    1       -1.023   1.632   3.831  0.00  0.00    +0.137 C 
BRANCH  10  11
ATOM     11  O   LIG    1       -1.236   0.589   4.760  0.00  0.00    -0.388 OA
ATOM     12  H   LIG    1       -2.010   0.092   4.487  0.00  0.00    +0.210 HD
ENDBRANCH  10  11
BRANCH  10  13
ATOM     13  C   LIG    1        0.159   2.512   4.288  0.00  0.00    +0.040 C 
BRANCH  13  14
ATOM     14  C   LIG    1       -0.091   3.260   5.614  0.00  0.00    +0.038 C 
BRANCH  14  15
ATOM     15  C   LIG    1        1.081   4.141   6.019  0.00  0.00    -0.047 A 
ATOM     16  C   LIG    1        1.133   5.472   5.594  0.00  0.00    +0.003 A 
ATOM     17  C   LIG    1        2.208   6.277   5.962  0.00  0.00    +0.000 A 
ATOM     18  C   LIG    1        3.226   5.750   6.753  0.00  0.00    +0.000 A 
ATOM     19  C   LIG    1        3.181   4.424   7.179  0.00  0.00    +0.000 A 
ATOM     20  C   LIG    1        2.107   3.617   6.811  0.00  0.00    +0.003 A 
ENDBRANCH  14  15
ENDBRANCH  13  14
ENDBRANCH  10  13
ENDBRANCH   9  10
ENDBRANCH   3   8
BRANCH   4  21
ATOM     21  O   LIG    1       -2.230  -1.628  -0.371  0.00  0.00    -0.391 OA
ATOM     22  H   LIG    1       -2.304  -1.883   0.551  0.00  0.00    +0.210 HD
ENDBRANCH   4  21
BRANCH   2  23
ATOM     23  C   LIG    1        0.429   2.183  -1.062  0.00  0.00    +0.033 C 
BRANCH  23  24
ATOM     24  C   LIG    1        0.661   3.293  -2.076  0.00  0.00    -0.031 C 
ATOM     25  C   LIG    1        1.566   3.327  -3.074  0.00  0.00    -0.031 C 
BRANCH  25  26
ATOM     26  C   LIG    1        2.602   2.272  -3.426  0.00  0.00    +0.027 C 
BRANCH  26  27
ATOM     27  C   LIG    1        2.269   1.514  -4.727  0.00  0.00    +0.013 C 
BRANCH  27  28
ATOM     28  C   LIG    1        3.294   0.422  -5.117  0.00  0.00    +0.096 C 
BRANCH  28  29
ATOM     29  C   LIG    1        3.397  -0.767  -4.148  0.00  0.00    +0.213 C 
ATOM     30  O   LIG    1        2.484  -1.021  -3.360  0.00  0.00    -0.276 OA
ATOM     31  N   LIG    1        4.524  -1.497  -4.230  0.00  0.00    -0.316 N 
ATOM     32  H   LIG    1        5.226  -1.227  -4.903  0.00  0.00    +0.149 HD
BRANCH  31  33
ATOM     33  C   LIG    1        4.830  -2.669  -3.411  0.00  0.00    +0.101 C 
ATOM     34  C   LIG    1        4.059  -3.930  -3.833  0.00  0.00    +0.024 C 
ENDBRANCH  31  33
ENDBRANCH  28  29
ENDBRANCH  27  28
ENDBRANCH  26  27
ENDBRANCH  25  26
ENDBRANCH  23  24
ENDBRANCH   2  23
TORSDOF 15
