REMARK  Name = DB00117
REMARK                            x       y       z     vdW  Elec       q    Type
REMARK                         _______ _______ _______ _____ _____    ______ ____
ROOT
ATOM      1  CA  HIS A  1        1.520  -0.006   0.059  0.00  0.00    +0.042 C 
ENDROOT
BRANCH   1   2
ATOM      2  N   HIS A  1        1.903  -1.491  -0.074  0.00  0.00    +0.387 N 
ATOM      3  H1  HIS A  1        1.632  -1.995   0.757  0.00  0.00    -0.089 HD
ATOM      4  H2  HIS A  1        1.431  -1.898  -0.869  0.00  0.00    -0.089 HD
ATOM      5  H3  HIS A  1        2.900  -1.582  -0.210  0.00  0.00    -0.089 HD
ENDBRANCH   1   2
BRANCH   1   6
ATOM      6  C   HIS A  1        2.302   0.619   1.254  0.00  0.00    +0.290 C 
ATOM      7  O   HIS A  1        2.229   1.862   1.373  0.00  0.00    -0.253 OA
BRANCH   6   8
ATOM      8  OXT HIS A  1        2.968  -0.109   2.028  0.00  0.00    -0.482 OA
ATOM      9  HXT HIS A  1        2.991  -1.036   1.896  0.00  0.00    +0.295 HD
ENDBRANCH   6   8
ENDBRANCH   1   6
BRANCH   1  10
ATOM     10  CB  HIS A  1       -0.024   0.081   0.208  0.00  0.00    +0.052 C 
BRANCH  10  11
ATOM     11  CG  HIS A  1       -0.576   1.480   0.044  0.00  0.00    +0.058 A 
ATOM     12  CD2 HIS A  1       -0.528   2.303  -1.064  0.00  0.00    +0.107 A 
ATOM     13  NE2 HIS A  1       -1.163   3.478  -0.704  0.00  0.00    -0.351 N 
ATOM     14  HE2 HIS A  1       -1.294   4.293  -1.286  0.00  0.00    +0.166 HD
ATOM     15  CE1 HIS A  1       -1.564   3.334   0.559  0.00  0.00    +0.196 A 
ATOM     16  ND1 HIS A  1       -1.247   2.152   1.073  0.00  0.00    -0.241 NA
ENDBRANCH  10  11
ENDBRANCH   1  10
TORSDOF 5
