REMARK  Name = DB00278
REMARK                            x       y       z     vdW  Elec       q    Type
REMARK                         _______ _______ _______ _____ _____    ______ ____
ROOT
ATOM      1  C   LIG    1        1.896  -1.154  -0.376  0.00  0.00    +0.162 C 
ENDROOT
BRANCH   1   2
ATOM      2  C   LIG    1        2.109   0.115  -1.258  0.00  0.00    +0.235 C 
ATOM      3  O   LIG    1        2.098   1.217  -0.698  0.00  0.00    -0.274 OA
ATOM      4  N   LIG    1        2.291  -0.018  -2.606  0.00  0.00    -0.287 N 
ATOM      5  C   LIG    1        2.414   1.211  -3.451  0.00  0.00    +0.185 C 
ATOM      6  C   LIG    1        1.160   1.277  -4.376  0.00  0.00    +0.037 C 
ATOM      7  C   LIG    1        0.925  -0.017  -5.184  0.00  0.00    -0.010 C 
ATOM      8  C   LIG    1       -0.320   0.079  -6.082  0.00  0.00    +0.007 C 
ATOM      9  C   LIG    1        0.810  -1.178  -4.177  0.00  0.00    +0.022 C 
ATOM     10  C   LIG    1        2.089  -1.306  -3.323  0.00  0.00    +0.109 C 
BRANCH   5  11
ATOM     11  C   LIG    1        3.755   1.262  -4.226  0.00  0.00    +0.325 C 
ATOM     12  O   LIG    1        4.649   0.446  -4.116  0.00  0.00    -0.249 OA
BRANCH  11  13
ATOM     13  O   LIG    1        3.805   2.374  -5.015  0.00  0.00    -0.479 OA
ATOM     14  H   LIG    1        4.634   2.443  -5.494  0.00  0.00    +0.295 HD
ENDBRANCH  11  13
ENDBRANCH   5  11
ENDBRANCH   1   2
BRANCH   1  15
ATOM     15  N   LIG    1        2.366  -0.853   1.004  0.00  0.00    -0.178 NA
ATOM     16  H   LIG    1        2.157   0.087   1.351  0.00  0.00    +0.149 HD
BRANCH  15  17
ATOM     17  S   LIG    1        2.553  -2.122   2.218  0.00  0.00    +0.061 S 
ATOM     18  O   LIG    1        2.888  -3.371   1.522  0.00  0.00    -0.153 OA
ATOM     19  O   LIG    1        3.433  -1.597   3.267  0.00  0.00    -0.153 OA
BRANCH  17  20
ATOM     20  C   LIG    1        0.921  -2.315   2.962  0.00  0.00    +0.126 A 
ATOM     21  C   LIG    1        0.280  -1.258   3.638  0.00  0.00    +0.057 A 
ATOM     22  N   LIG    1        0.922  -0.003   3.733  0.00  0.00    -0.342 N 
ATOM     23  H   LIG    1        1.923   0.052   3.606  0.00  0.00    +0.146 HD
ATOM     24  C   LIG    1        0.336   1.094   4.504  0.00  0.00    +0.105 C 
ATOM     25  C   LIG    1       -1.206   1.059   4.481  0.00  0.00    +0.007 C 
ATOM     26  C   LIG    1       -1.807   2.192   5.330  0.00  0.00    +0.009 C 
ATOM     27  C   LIG    1       -1.710  -0.321   4.939  0.00  0.00    +0.041 C 
ATOM     28  C   LIG    1       -1.011  -1.442   4.181  0.00  0.00    -0.024 A 
ATOM     29  C   LIG    1       -1.638  -2.681   4.018  0.00  0.00    +0.005 A 
ATOM     30  C   LIG    1       -1.006  -3.726   3.354  0.00  0.00    +0.002 A 
ATOM     31  C   LIG    1        0.270  -3.546   2.833  0.00  0.00    +0.030 A 
ENDBRANCH  17  20
ENDBRANCH  15  17
ENDBRANCH   1  15
BRANCH   1  32
ATOM     32  C   LIG    1        0.423  -1.647  -0.387  0.00  0.00    +0.033 C 
BRANCH  32  33
ATOM     33  C   LIG    1       -0.630  -0.636   0.123  0.00  0.00    +0.039 C 
BRANCH  33  34
ATOM     34  C   LIG    1       -2.040  -1.234   0.224  0.00  0.00    +0.196 C 
BRANCH  34  35
ATOM     35  N   LIG    1       -2.574  -1.563  -1.085  0.00  0.00    -0.276 N 
ATOM     36  H   LIG    1       -2.002  -1.295  -1.873  0.00  0.00    +0.258 HD
BRANCH  35  37
ATOM     37  C   LIG    1       -3.776  -2.196  -1.366  0.00  0.00    +0.376 C 
ATOM     38  N   LIG    1       -4.602  -2.595  -0.500  0.00  0.00    -0.130 NA
ATOM     39  H   LIG    1       -5.418  -3.035  -0.900  0.00  0.00    +0.306 HD
BRANCH  37  40
ATOM     40  N   LIG    1       -3.962  -2.338  -2.730  0.00  0.00    -0.289 N 
ATOM     41  H   LIG    1       -3.497  -1.635  -3.286  0.00  0.00    +0.255 HD
ATOM     42  H   LIG    1       -4.931  -2.397  -3.010  0.00  0.00    +0.255 HD
ENDBRANCH  37  40
ENDBRANCH  35  37
ENDBRANCH  34  35
ENDBRANCH  33  34
ENDBRANCH  32  33
ENDBRANCH   1  32
TORSDOF 12
