REMARK  Name = DB00796
REMARK                            x       y       z     vdW  Elec       q    Type
REMARK                         _______ _______ _______ _____ _____    ______ ____
ROOT
ATOM      1  C   LIG    1       -1.202   2.092  -0.258  0.00  0.00    +0.086 A 
ATOM      2  C   LIG    1       -0.394   1.200  -0.998  0.00  0.00    +0.085 A 
ATOM      3  C   LIG    1       -1.072   0.177  -1.681  0.00  0.00    +0.017 A 
ATOM      4  C   LIG    1       -2.457   0.044  -1.656  0.00  0.00    +0.003 A 
ATOM      5  C   LIG    1       -3.252   0.924  -0.931  0.00  0.00    +0.030 A 
ATOM      6  C   LIG    1       -2.621   1.953  -0.222  0.00  0.00    +0.094 A 
ATOM      7  N   LIG    1       -3.208   2.903   0.563  0.00  0.00    -0.195 NA
ATOM      8  C   LIG    1       -2.204   3.615   1.013  0.00  0.00    +0.299 A 
ATOM      9  N   LIG    1       -0.968   3.199   0.557  0.00  0.00    -0.289 N 
ENDROOT
BRANCH   2  10
ATOM     10  C   LIG    1        1.088   1.225  -1.080  0.00  0.00    +0.344 C 
ATOM     11  O   LIG    1        1.733   2.205  -1.458  0.00  0.00    -0.245 OA
BRANCH  10  12
ATOM     12  O   LIG    1        1.616   0.049  -0.626  0.00  0.00    -0.421 OA
BRANCH  12  13
ATOM     13  C   LIG    1        3.015  -0.091  -0.646  0.00  0.00    +0.371 C 
ATOM     14  C   LIG    1        3.394  -1.254   0.277  0.00  0.00    +0.101 C 
BRANCH  13  15
ATOM     15  O   LIG    1        3.597  -0.254  -1.928  0.00  0.00    -0.394 OA
BRANCH  15  16
ATOM     16  C   LIG    1        3.144  -1.241  -2.764  0.00  0.00    +0.513 C 
ATOM     17  O   LIG    1        2.216  -2.029  -2.554  0.00  0.00    -0.203 OA
BRANCH  16  18
ATOM     18  O   LIG    1        3.894  -1.187  -3.886  0.00  0.00    -0.430 OA
BRANCH  18  19
ATOM     19  C   LIG    1        3.671  -2.073  -4.982  0.00  0.00    +0.180 C 
ATOM     20  C   LIG    1        4.243  -1.445  -6.271  0.00  0.00    +0.045 C 
ATOM     21  C   LIG    1        3.970  -2.352  -7.489  0.00  0.00    +0.004 C 
ATOM     22  C   LIG    1        4.506  -3.783  -7.273  0.00  0.00    +0.000 C 
ATOM     23  C   LIG    1        4.015  -4.399  -5.946  0.00  0.00    +0.004 C 
ATOM     24  C   LIG    1        4.291  -3.471  -4.745  0.00  0.00    +0.045 C 
ENDBRANCH  18  19
ENDBRANCH  16  18
ENDBRANCH  15  16
ENDBRANCH  13  15
ENDBRANCH  12  13
ENDBRANCH  10  12
ENDBRANCH   2  10
BRANCH   8  25
ATOM     25  O   LIG    1       -2.327   4.683   1.876  0.00  0.00    -0.464 OA
BRANCH  25  26
ATOM     26  C   LIG    1       -3.634   5.209   2.121  0.00  0.00    +0.229 C 
ATOM     27  C   LIG    1       -4.125   6.070   0.947  0.00  0.00    +0.048 C 
ENDBRANCH  25  26
ENDBRANCH   8  25
BRANCH   9  28
ATOM     28  C   LIG    1        0.311   3.820   0.919  0.00  0.00    +0.162 C 
BRANCH  28  29
ATOM     29  C   LIG    1        1.240   3.031   1.844  0.00  0.00    -0.028 A 
ATOM     30  C   LIG    1        0.892   1.790   2.388  0.00  0.00    +0.006 A 
ATOM     31  C   LIG    1        1.784   1.115   3.217  0.00  0.00    +0.009 A 
ATOM     32  C   LIG    1        3.028   1.672   3.533  0.00  0.00    -0.017 A 
ATOM     33  C   LIG    1        3.360   2.924   3.002  0.00  0.00    +0.009 A 
ATOM     34  C   LIG    1        2.480   3.592   2.158  0.00  0.00    +0.006 A 
BRANCH  32  35
ATOM     35  C   LIG    1        3.966   0.956   4.449  0.00  0.00    -0.007 A 
ATOM     36  C   LIG    1        3.472   0.506   5.683  0.00  0.00    +0.009 A 
ATOM     37  C   LIG    1        4.297  -0.133   6.604  0.00  0.00    +0.001 A 
ATOM     38  C   LIG    1        5.640  -0.334   6.307  0.00  0.00    +0.001 A 
ATOM     39  C   LIG    1        6.151   0.096   5.086  0.00  0.00    +0.012 A 
ATOM     40  C   LIG    1        5.330   0.734   4.146  0.00  0.00    +0.028 A 
BRANCH  40  41
ATOM     41  C   LIG    1        5.978   1.113   2.849  0.00  0.00    +0.180 A 
ATOM     42  N   LIG    1        5.460   0.961   1.653  0.00  0.00    -0.108 NA
ATOM     43  N   LIG    1        6.410   1.449   0.759  0.00  0.00    -0.023 NA
ATOM     44  N   LIG    1        7.523   1.895   1.446  0.00  0.00    -0.046 NA
ATOM     45  N   LIG    1        7.227   1.672   2.727  0.00  0.00    -0.239 N 
ATOM     46  H   LIG    1        7.853   1.901   3.486  0.00  0.00    +0.192 HD
ENDBRANCH  40  41
ENDBRANCH  32  35
ENDBRANCH  28  29
ENDBRANCH   9  28
TORSDOF 13
