REMARK  Name = DB00467
REMARK                            x       y       z     vdW  Elec       q    Type
REMARK                         _______ _______ _______ _____ _____    ______ ____
ROOT
ATOM      1  F   LIG    1       -2.190   4.922  -0.064  0.00  0.00    -0.202 F 
ATOM      2  C   LIG    1       -1.657   3.678  -0.022  0.00  0.00    +0.164 A 
ATOM      3  C   LIG    1       -2.492   2.561  -0.008  0.00  0.00    +0.057 A 
ATOM      4  C   LIG    1       -1.952   1.266   0.036  0.00  0.00    +0.068 A 
ATOM      5  C   LIG    1       -2.862   0.062   0.038  0.00  0.00    +0.205 A 
ATOM      6  C   LIG    1       -2.139  -1.238   0.081  0.00  0.00    +0.122 A 
ATOM      7  C   LIG    1       -0.781  -1.256   0.118  0.00  0.00    +0.106 A 
ATOM      8  N   LIG    1        0.039  -0.139   0.111  0.00  0.00    -0.331 N 
ATOM      9  O   LIG    1       -4.088   0.192  -0.001  0.00  0.00    -0.286 OA
ATOM     10  C   LIG    1       -0.543   1.153   0.067  0.00  0.00    +0.147 A 
ATOM     11  N   LIG    1        0.277   2.240   0.051  0.00  0.00    -0.211 NA
ATOM     12  C   LIG    1       -0.273   3.482   0.008  0.00  0.00    +0.159 A 
ENDROOT
BRANCH  12  13
ATOM     13  N   LIG    1        0.598   4.558  -0.004  0.00  0.00    -0.310 N 
ATOM     14  C   LIG    1        1.421   4.769  -1.206  0.00  0.00    +0.121 C 
ATOM     15  C   LIG    1        2.175   6.119  -1.199  0.00  0.00    +0.100 C 
ATOM     16  N   LIG    1        2.995   6.261  -0.004  0.00  0.00    -0.313 NA
ATOM     17  H   LIG    1        3.468   7.154  -0.017  0.00  0.00    +0.122 HD
ATOM     18  C   LIG    1        2.134   6.176   1.168  0.00  0.00    +0.100 C 
ATOM     19  C   LIG    1        1.382   4.826   1.213  0.00  0.00    +0.121 C 
ENDBRANCH  12  13
BRANCH   6  20
ATOM     20  C   LIG    1       -2.866  -2.497   0.117  0.00  0.00    +0.342 C 
ATOM     21  O   LIG    1       -3.912  -2.675   0.740  0.00  0.00    -0.245 OA
BRANCH  20  22
ATOM     22  O   LIG    1       -2.287  -3.473  -0.646  0.00  0.00    -0.477 OA
ATOM     23  H   LIG    1       -2.788  -4.292  -0.626  0.00  0.00    +0.295 HD
ENDBRANCH  20  22
ENDBRANCH   6  20
BRANCH   8  24
ATOM     24  C   LIG    1        1.489  -0.348   0.006  0.00  0.00    +0.120 C 
ATOM     25  C   LIG    1        2.007  -0.283  -1.438  0.00  0.00    +0.027 C 
ENDBRANCH   8  24
TORSDOF 4
