REMARK  Name = DB00607
REMARK                            x       y       z     vdW  Elec       q    Type
REMARK                         _______ _______ _______ _____ _____    ______ ____
ROOT
ATOM      1  N   LIG    1        1.511  -0.271   0.098  0.00  0.00    -0.298 N 
ATOM      2  H   LIG    1        1.980  -1.001   0.615  0.00  0.00    +0.150 HD
ATOM      3  C   LIG    1        2.277   0.387  -0.794  0.00  0.00    +0.249 C 
ATOM      4  O   LIG    1        1.852   1.104  -1.699  0.00  0.00    -0.270 OA
ENDROOT
BRANCH   1  13
ATOM      5  N   LIG    1       -1.418   0.823   1.244  0.00  0.00    -0.271 N 
ATOM      6  CA  LIG    1       -1.680   1.888   2.223  0.00  0.00    +0.201 C 
ATOM      7  C   LIG    1       -1.080   1.382   3.584  0.00  0.00    +0.042 C 
ATOM      8  C   LIG    1       -2.029   0.419   4.355  0.00  0.00    +0.025 C 
ATOM      9  C   LIG    1       -0.675   2.508   4.557  0.00  0.00    +0.025 C 
ATOM     10  S   LIG    1        0.342   0.363   3.084  0.00  0.00    -0.127 S 
ATOM     11  C   LIG    1       -0.762   1.027   0.025  0.00  0.00    +0.240 C 
ATOM     12  O   LIG    1       -0.791   1.943  -0.795  0.00  0.00    -0.273 OA
ATOM     13  CA  LIG    1        0.045  -0.291   0.217  0.00  0.00    +0.190 C 
ATOM     14  C   LIG    1       -0.540  -0.304   1.649  0.00  0.00    +0.165 C 
BRANCH   6  15
ATOM     15  C   LIG    1       -3.162   2.320   2.286  0.00  0.00    +0.327 C 
ATOM     16  OXT LIG    1       -4.077   1.694   1.792  0.00  0.00    -0.249 OA
BRANCH  15  17
ATOM     17  O   LIG    1       -3.280   3.511   2.939  0.00  0.00    -0.479 OA
ATOM     18  H   LIG    1       -4.189   3.817   2.978  0.00  0.00    +0.295 HD
ENDBRANCH  15  17
ENDBRANCH   6  15
ENDBRANCH   1  13
BRANCH   3  19
ATOM     19  C   LIG    1        3.763   0.195  -0.605  0.00  0.00    +0.086 A 
ATOM     20  C   LIG    1        4.551   1.294  -0.214  0.00  0.00    +0.133 A 
ATOM     21  C   LIG    1        5.928   1.122  -0.026  0.00  0.00    +0.047 A 
ATOM     22  C   LIG    1        6.539  -0.107  -0.223  0.00  0.00    +0.012 A 
ATOM     23  C   LIG    1        5.785  -1.228  -0.628  0.00  0.00    -0.017 A 
ATOM     24  C   LIG    1        6.412  -2.482  -0.837  0.00  0.00    +0.008 A 
ATOM     25  C   LIG    1        5.670  -3.583  -1.247  0.00  0.00    +0.001 A 
ATOM     26  C   LIG    1        4.304  -3.467  -1.462  0.00  0.00    +0.001 A 
ATOM     27  C   LIG    1        3.658  -2.251  -1.264  0.00  0.00    +0.009 A 
ATOM     28  C   LIG    1        4.375  -1.091  -0.833  0.00  0.00    -0.002 A 
BRANCH  20  29
ATOM     29  O   LIG    1        3.918   2.512  -0.009  0.00  0.00    -0.491 OA
BRANCH  29  30
ATOM     30  C   LIG    1        4.682   3.680   0.277  0.00  0.00    +0.226 C 
ATOM     31  C   LIG    1        3.732   4.878   0.342  0.00  0.00    +0.048 C 
ENDBRANCH  29  30
ENDBRANCH  20  29
ENDBRANCH   3  19
TORSDOF 6
