REMARK  Name = DB00717
REMARK                            x       y       z     vdW  Elec       q    Type
REMARK                         _______ _______ _______ _____ _____    ______ ____
ROOT
ATOM      1  C   LIG    1       -0.410  -0.772   3.799  0.00  0.00    +0.008 C 
ATOM      2  C   LIG    1        0.218  -0.157   5.056  0.00  0.00    +0.031 C 
ATOM      3  C   LIG    1       -0.152   1.324   5.150  0.00  0.00    -0.063 C 
ATOM      4  C   LIG    1       -0.663   1.852   6.285  0.00  0.00    +0.045 C 
ATOM      5  C   LIG    1       -0.976   3.260   6.473  0.00  0.00    +0.156 C 
ATOM      6  O   LIG    1       -1.569   3.667   7.470  0.00  0.00    -0.293 OA
ATOM      7  C   LIG    1       -0.389   4.211   5.426  0.00  0.00    +0.079 C 
ATOM      8  C   LIG    1       -0.463   3.599   4.015  0.00  0.00    +0.016 C 
ATOM      9  C   LIG    1        0.139   2.168   3.880  0.00  0.00    +0.019 C 
ATOM     10  C   LIG    1       -0.366   1.442   2.588  0.00  0.00    -0.000 C 
ATOM     11  C   LIG    1        0.050   2.194   1.286  0.00  0.00    +0.005 C 
ATOM     12  C   LIG    1       -0.436   1.468   0.006  0.00  0.00    +0.011 C 
ATOM     13  C   LIG    1        0.074  -0.007  -0.055  0.00  0.00    +0.011 C 
ATOM     14  C   LIG    1        1.639  -0.015  -0.159  0.00  0.00    +0.015 C 
ATOM     15  C   LIG    1       -0.536  -0.953  -1.164  0.00  0.00    +0.132 C 
ATOM     16  C   LIG    1       -0.351  -2.371  -0.542  0.00  0.00    +0.049 C 
ATOM     17  C   LIG    1       -0.257  -2.203   0.990  0.00  0.00    +0.008 C 
ATOM     18  C   LIG    1       -0.452  -0.702   1.232  0.00  0.00    +0.002 C 
ATOM     19  C   LIG    1        0.090  -0.050   2.536  0.00  0.00    -0.003 C 
ENDROOT
BRANCH  15  20
ATOM     20  C   LIG    1       -1.970  -0.712  -1.478  0.00  0.00    -0.070 C 
ATOM     21  C   LIG    1       -3.153  -0.523  -1.720  0.00  0.00    +0.007 C 
ENDBRANCH  15  20
BRANCH  15  22
ATOM     22  O   LIG    1        0.129  -0.867  -2.413  0.00  0.00    -0.376 OA
ATOM     23  H   LIG    1        0.097   0.045  -2.711  0.00  0.00    +0.211 HD
ENDBRANCH  15  22
TORSDOF 2
