REMARK  Name = DB00478
REMARK                            x       y       z     vdW  Elec       q    Type
REMARK                         _______ _______ _______ _____ _____    ______ ____
ROOT
ATOM      1  C   LIG    1        1.946  -1.425   0.043  0.00  0.00    -0.014 C 
ATOM      2  C   LIG    1        1.464  -2.235   1.289  0.00  0.00    +0.012 C 
ATOM      3  C   LIG    1        1.974  -3.701   1.277  0.00  0.00    -0.010 C 
ATOM      4  C   LIG    1        1.466  -4.383  -0.021  0.00  0.00    +0.007 C 
ATOM      5  C   LIG    1        1.957  -3.647  -1.296  0.00  0.00    -0.010 C 
ATOM      6  C   LIG    1        3.507  -3.625  -1.277  0.00  0.00    +0.007 C 
ATOM      7  C   LIG    1        4.061  -2.923  -0.011  0.00  0.00    -0.010 C 
ATOM      8  C   LIG    1        3.524  -3.677   1.235  0.00  0.00    +0.007 C 
ATOM      9  C   LIG    1        1.451  -2.183  -1.233  0.00  0.00    +0.012 C 
ATOM     10  C   LIG    1        3.507  -1.474   0.025  0.00  0.00    +0.012 C 
ENDROOT
BRANCH   1  11
ATOM     11  C   LIG    1        1.431   0.059   0.043  0.00  0.00    +0.054 C 
ATOM     12  C   LIG    1        1.893   0.935   1.226  0.00  0.00    +0.024 C 
BRANCH  11  13
ATOM     13  N   LIG    1       -0.022   0.133  -0.011  0.00  0.00    -0.327 NA
ATOM     14  H   LIG    1       -0.360  -0.348  -0.832  0.00  0.00    +0.118 HD
ATOM     15  H   LIG    1       -0.315   1.097  -0.093  0.00  0.00    +0.118 HD
ENDBRANCH  11  13
ENDBRANCH   1  11
TORSDOF 2
