REMARK  Name = DB00482
REMARK                            x       y       z     vdW  Elec       q    Type
REMARK                         _______ _______ _______ _____ _____    ______ ____
ROOT
ATOM      1  N   LIG    1        0.169   0.087   0.017  0.00  0.00    -0.232 N 
ATOM      2  C   LIG    1       -0.608   1.233   0.030  0.00  0.00    +0.075 A 
ATOM      3  C   LIG    1       -1.907   0.751   0.001  0.00  0.00    +0.062 A 
ATOM      4  C   LIG    1       -1.835  -0.645  -0.005  0.00  0.00    +0.166 A 
ATOM      5  N   LIG    1       -0.578  -1.032   0.006  0.00  0.00    -0.162 NA
ENDROOT
BRANCH   2   6
ATOM      6  C   LIG    1       -0.119   2.644   0.070  0.00  0.00    +0.000 A 
ATOM      7  C   LIG    1        0.932   3.025   0.909  0.00  0.00    +0.010 A 
ATOM      8  C   LIG    1        1.361   4.349   0.937  0.00  0.00    +0.004 A 
ATOM      9  C   LIG    1        0.731   5.301   0.132  0.00  0.00    -0.050 A 
ATOM     10  C   LIG    1        1.197   6.746   0.153  0.00  0.00    +0.044 C 
ATOM     11  C   LIG    1       -0.321   4.926  -0.704  0.00  0.00    +0.004 A 
ATOM     12  C   LIG    1       -0.749   3.601  -0.731  0.00  0.00    +0.010 A 
ENDBRANCH   2   6
BRANCH   1  16
ATOM     13  C   LIG    1        4.348  -0.257  -0.128  0.00  0.00    +0.105 A 
ATOM     14  C   LIG    1        3.688   0.581  -1.029  0.00  0.00    +0.030 A 
ATOM     15  C   LIG    1        2.301   0.692  -0.982  0.00  0.00    +0.030 A 
ATOM     16  C   LIG    1        1.575  -0.034  -0.032  0.00  0.00    +0.066 A 
ATOM     17  C   LIG    1        2.238  -0.882   0.863  0.00  0.00    +0.030 A 
ATOM     18  C   LIG    1        3.625  -0.991   0.815  0.00  0.00    +0.030 A 
BRANCH  13  19
ATOM     19  S   LIG    1        6.130  -0.410  -0.168  0.00  0.00    +0.056 S 
ATOM     20  O   LIG    1        6.427  -1.841  -0.289  0.00  0.00    -0.153 OA
ATOM     21  O   LIG    1        6.648   0.555  -1.144  0.00  0.00    -0.153 OA
BRANCH  19  22
ATOM     22  N   LIG    1        6.658   0.105   1.423  0.00  0.00    -0.204 NA
ATOM     23  H   LIG    1        6.512   1.099   1.617  0.00  0.00    +0.144 HD
ATOM     24  H   LIG    1        6.360  -0.506   2.188  0.00  0.00    +0.144 HD
ENDBRANCH  19  22
ENDBRANCH  13  19
ENDBRANCH   1  16
BRANCH   4  25
ATOM     25  C   LIG    1       -2.976  -1.648  -0.030  0.00  0.00    +0.436 C 
ATOM     26  F   LIG    1       -3.691  -1.521  -1.147  0.00  0.00    -0.164 F 
ATOM     27  F   LIG    1       -2.548  -2.911   0.031  0.00  0.00    -0.164 F 
ATOM     28  F   LIG    1       -3.799  -1.454   1.000  0.00  0.00    -0.164 F 
ENDBRANCH   4  25
TORSDOF 5
