REMARK  Name = DB00130
REMARK                            x       y       z     vdW  Elec       q    Type
REMARK                         _______ _______ _______ _____ _____    ______ ____
ROOT
ATOM      1  CA  GLN A  1       -0.083   0.076   0.076  0.00  0.00    +0.161 C 
ENDROOT
BRANCH   1   2
ATOM      2  N   GLN A  1       -0.692   1.407   0.261  0.00  0.00    -0.318 NA
ATOM      3  H1  GLN A  1       -0.293   1.889   1.054  0.00  0.00    +0.119 HD
ATOM      4  H2  GLN A  1       -1.688   1.341   0.412  0.00  0.00    +0.119 HD
ENDBRANCH   1   2
BRANCH   1   5
ATOM      5  C   GLN A  1       -0.676  -0.888   1.127  0.00  0.00    +0.322 C 
ATOM      6  O   GLN A  1       -1.123  -0.528   2.218  0.00  0.00    -0.249 OA
BRANCH   5   7
ATOM      7  OXT GLN A  1       -0.614  -2.180   0.692  0.00  0.00    -0.480 OA
ATOM      8  HXT GLN A  1       -0.970  -2.798   1.334  0.00  0.00    +0.295 HD
ENDBRANCH   5   7
ENDBRANCH   1   5
BRANCH   1   9
ATOM      9  CB  GLN A  1        1.462   0.105   0.134  0.00  0.00    +0.039 C 
BRANCH   9  10
ATOM     10  CG  GLN A  1        2.102   0.879  -1.038  0.00  0.00    +0.097 C 
BRANCH  10  14
ATOM     11  NE2 GLN A  1        4.234   1.808  -1.780  0.00  0.00    -0.329 N 
ATOM     12 HE21 GLN A  1        5.241   1.877  -1.791  0.00  0.00    +0.145 HD
ATOM     13 HE22 GLN A  1        3.689   2.414  -2.375  0.00  0.00    +0.145 HD
ATOM     14  CD  GLN A  1        3.632   0.922  -0.982  0.00  0.00    +0.211 C 
ATOM     15  OE1 GLN A  1        4.268   0.165  -0.251  0.00  0.00    -0.276 OA
ENDBRANCH  10  14
ENDBRANCH   9  10
ENDBRANCH   1   9
TORSDOF 6
