REMARK  Name = DB00628
REMARK                            x       y       z     vdW  Elec       q    Type
REMARK                         _______ _______ _______ _____ _____    ______ ____
ROOT
ATOM      1 CL   LIG    1        0.163  -4.661   2.278  0.00  0.00    -0.084 Cl
ATOM      2  C   LIG    1       -0.576  -3.534   1.199  0.00  0.00    +0.042 A 
ATOM      3  C   LIG    1       -1.712  -3.894   0.486  0.00  0.00    +0.022 A 
ATOM      4  C   LIG    1       -2.306  -2.978  -0.376  0.00  0.00    +0.025 A 
ATOM      5  C   LIG    1       -1.777  -1.695  -0.558  0.00  0.00    +0.043 A 
ATOM      6  C   LIG    1       -0.605  -1.324   0.161  0.00  0.00    +0.023 A 
ATOM      7  C   LIG    1        0.066   0.002  -0.004  0.00  0.00    +0.076 C 
ATOM      8  N   LIG    1       -0.561   1.119  -0.104  0.00  0.00    -0.259 NA
ATOM      9  CA  LIG    1       -2.023   1.162   0.006  0.00  0.00    +0.299 C 
ATOM     10  C   LIG    1       -2.693   0.538  -1.257  0.00  0.00    +0.253 C 
ATOM     11  O   LIG    1       -3.365   1.177  -2.067  0.00  0.00    -0.273 OA
ATOM     12  N   LIG    1       -2.484  -0.792  -1.377  0.00  0.00    -0.283 N 
ATOM     13  H   LIG    1       -2.989  -1.208  -2.146  0.00  0.00    +0.155 HD
ATOM     14  C   LIG    1       -0.033  -2.262   1.039  0.00  0.00    +0.032 A 
ENDROOT
BRANCH   7  15
ATOM     15  C   LIG    1        1.546   0.012  -0.093  0.00  0.00    +0.001 A 
ATOM     16  C   LIG    1        2.286   1.025   0.536  0.00  0.00    +0.010 A 
ATOM     17  C   LIG    1        3.676   1.037   0.451  0.00  0.00    +0.001 A 
ATOM     18  C   LIG    1        4.333   0.041  -0.267  0.00  0.00    +0.000 A 
ATOM     19  C   LIG    1        3.612  -0.966  -0.903  0.00  0.00    +0.001 A 
ATOM     20  C   LIG    1        2.223  -0.980  -0.819  0.00  0.00    +0.010 A 
ENDBRANCH   7  15
BRANCH   9  21
ATOM     21  C   LIG    1       -2.454   2.606   0.383  0.00  0.00    +0.339 C 
ATOM     22  OXT LIG    1       -1.679   3.481   0.773  0.00  0.00    -0.248 OA
BRANCH  21  23
ATOM     23  O   LIG    1       -3.808   2.779   0.316  0.00  0.00    -0.479 OA
ATOM     24  H   LIG    1       -4.074   3.666   0.569  0.00  0.00    +0.295 HD
ENDBRANCH  21  23
ENDBRANCH   9  21
TORSDOF 3
