REMARK  Name = DB00868
REMARK                            x       y       z     vdW  Elec       q    Type
REMARK                         _______ _______ _______ _____ _____    ______ ____
ROOT
ATOM      1  C   LIG    1       -2.322   2.764   0.086  0.00  0.00    +0.188 C 
ENDROOT
BRANCH   1   2
ATOM      2  O   LIG    1       -1.859   3.350   1.296  0.00  0.00    -0.375 OA
BRANCH   2   3
ATOM      3  C   LIG    1       -2.170   4.732   1.418  0.00  0.00    +0.188 C 
BRANCH   3   4
ATOM      4  C   LIG    1       -1.693   5.231   2.787  0.00  0.00    +0.188 C 
BRANCH   4   5
ATOM      5  O   LIG    1       -2.071   6.592   2.946  0.00  0.00    -0.374 OA
BRANCH   5   6
ATOM      6  C   LIG    1       -1.736   7.130   4.218  0.00  0.00    +0.201 C 
BRANCH   6   7
ATOM      7  C   LIG    1       -2.208   8.586   4.300  0.00  0.00    +0.260 C 
BRANCH   7   8
ATOM      8  O   LIG    1       -1.450   9.421   3.433  0.00  0.00    -0.459 OA
BRANCH   8   9
ATOM      9  C   LIG    1       -1.706  10.752   3.343  0.00  0.00    +0.339 C 
ATOM     10  O   LIG    1       -2.602  11.316   3.978  0.00  0.00    -0.245 OA
BRANCH   9  11
ATOM     11  C   LIG    1       -0.780  11.473   2.407  0.00  0.00    +0.059 A 
ATOM     12  C   LIG    1       -0.906  12.861   2.256  0.00  0.00    +0.017 A 
ATOM     13  C   LIG    1       -0.058  13.561   1.402  0.00  0.00    +0.024 A 
ATOM     14  C   LIG    1        0.934  12.884   0.682  0.00  0.00    +0.027 A 
ATOM     15  C   LIG    1        1.061  11.502   0.826  0.00  0.00    +0.024 A 
ATOM     16  C   LIG    1        0.214  10.801   1.680  0.00  0.00    +0.017 A 
BRANCH  14  17
ATOM     17  N   LIG    1        1.821  13.536  -0.190  0.00  0.00    -0.344 N 
ATOM     18  H   LIG    1        2.522  12.995  -0.676  0.00  0.00    +0.146 HD
BRANCH  17  19
ATOM     19  C   LIG    1        1.782  14.977  -0.407  0.00  0.00    +0.101 C 
BRANCH  19  20
ATOM     20  C   LIG    1        2.848  15.467  -1.398  0.00  0.00    +0.018 C 
BRANCH  20  21
ATOM     21  C   LIG    1        2.797  16.989  -1.621  0.00  0.00    -0.002 C 
ATOM     22  C   LIG    1        3.861  17.485  -2.610  0.00  0.00    +0.004 C 
ENDBRANCH  20  21
ENDBRANCH  19  20
ENDBRANCH  17  19
ENDBRANCH  14  17
ENDBRANCH   9  11
ENDBRANCH   8   9
ENDBRANCH   7   8
ENDBRANCH   6   7
ENDBRANCH   5   6
ENDBRANCH   4   5
ENDBRANCH   3   4
ENDBRANCH   2   3
ENDBRANCH   1   2
BRANCH   1  23
ATOM     23  C   LIG    1       -1.948   1.276   0.061  0.00  0.00    +0.188 C 
BRANCH  23  24
ATOM     24  O   LIG    1       -0.533   1.137   0.075  0.00  0.00    -0.375 OA
BRANCH  24  25
ATOM     25  C   LIG    1       -0.092  -0.215   0.089  0.00  0.00    +0.188 C 
BRANCH  25  26
ATOM     26  C   LIG    1        1.438  -0.259  -0.010  0.00  0.00    +0.188 C 
BRANCH  26  27
ATOM     27  O   LIG    1        1.846   0.345  -1.231  0.00  0.00    -0.375 OA
BRANCH  27  28
ATOM     28  C   LIG    1        3.253   0.342  -1.433  0.00  0.00    +0.188 C 
BRANCH  28  29
ATOM     29  C   LIG    1        3.563   1.030  -2.767  0.00  0.00    +0.188 C 
BRANCH  29  30
ATOM     30  O   LIG    1        4.970   1.013  -2.985  0.00  0.00    -0.375 OA
BRANCH  30  31
ATOM     31  C   LIG    1        5.398   1.541  -4.238  0.00  0.00    +0.188 C 
BRANCH  31  32
ATOM     32  C   LIG    1        5.286   3.074  -4.312  0.00  0.00    +0.188 C 
BRANCH  32  33
ATOM     33  O   LIG    1        5.813   3.512  -5.556  0.00  0.00    -0.375 OA
BRANCH  33  34
ATOM     34  C   LIG    1        5.757   4.921  -5.739  0.00  0.00    +0.188 C 
BRANCH  34  35
ATOM     35  C   LIG    1        6.243   5.267  -7.152  0.00  0.00    +0.188 C 
BRANCH  35  36
ATOM     36  O   LIG    1        5.406   4.622  -8.102  0.00  0.00    -0.375 OA
BRANCH  36  37
ATOM     37  C   LIG    1        5.753   4.889  -9.453  0.00  0.00    +0.188 C 
BRANCH  37  38
ATOM     38  C   LIG    1        4.819   4.097 -10.377  0.00  0.00    +0.188 C 
BRANCH  38  39
ATOM     39  O   LIG    1        4.997   2.704 -10.141  0.00  0.00    -0.375 OA
BRANCH  39  40
ATOM     40  C   LIG    1        4.187   1.838 -10.931  0.00  0.00    +0.188 C 
BRANCH  40  41
ATOM     41  C   LIG    1        2.706   1.844 -10.510  0.00  0.00    +0.187 C 
BRANCH  41  42
ATOM     42  O   LIG    1        2.610   1.532  -9.126  0.00  0.00    -0.381 OA
ATOM     43  C   LIG    1        1.278   1.530  -8.637  0.00  0.00    +0.194 C 
ENDBRANCH  41  42
ENDBRANCH  40  41
ENDBRANCH  39  40
ENDBRANCH  38  39
ENDBRANCH  37  38
ENDBRANCH  36  37
ENDBRANCH  35  36
ENDBRANCH  34  35
ENDBRANCH  33  34
ENDBRANCH  32  33
ENDBRANCH  31  32
ENDBRANCH  30  31
ENDBRANCH  29  30
ENDBRANCH  28  29
ENDBRANCH  27  28
ENDBRANCH  26  27
ENDBRANCH  25  26
ENDBRANCH  24  25
ENDBRANCH  23  24
ENDBRANCH   1  23
TORSDOF 33
