REMARK  Name = DB00554
REMARK                            x       y       z     vdW  Elec       q    Type
REMARK                         _______ _______ _______ _____ _____    ______ ____
ROOT
ATOM      1  C   LIG    1       -2.245  -1.283  -0.133  0.00  0.00    +0.045 A 
ATOM      2  C   LIG    1       -0.798  -1.253  -0.508  0.00  0.00    +0.153 C 
ATOM      3  C   LIG    1        0.001  -0.147  -0.458  0.00  0.00    +0.155 C 
ATOM      4  N   LIG    1       -0.517   1.145  -0.121  0.00  0.00    -0.197 N 
ATOM      5  C   LIG    1        0.321   2.371   0.034  0.00  0.00    +0.158 C 
ATOM      6  S   LIG    1       -2.248   1.505  -0.244  0.00  0.00    +0.075 S 
ATOM      7  O   LIG    1       -2.652   2.434   0.818  0.00  0.00    -0.150 OA
ATOM      8  O   LIG    1       -2.556   1.857  -1.635  0.00  0.00    -0.150 OA
ATOM      9  C   LIG    1       -2.962  -0.095   0.096  0.00  0.00    +0.119 A 
ATOM     10  C   LIG    1       -4.288  -0.129   0.536  0.00  0.00    +0.029 A 
ATOM     11  C   LIG    1       -4.928  -1.347   0.747  0.00  0.00    +0.002 A 
ATOM     12  C   LIG    1       -4.242  -2.535   0.516  0.00  0.00    +0.001 A 
ATOM     13  C   LIG    1       -2.917  -2.502   0.085  0.00  0.00    +0.013 A 
ENDROOT
BRANCH   3  14
ATOM     14  C   LIG    1        1.438  -0.226  -0.714  0.00  0.00    +0.268 C 
ATOM     15  O   LIG    1        1.984   0.481  -1.564  0.00  0.00    -0.268 OA
ATOM     16  N   LIG    1        2.090  -1.099   0.090  0.00  0.00    -0.265 N 
ATOM     17  H   LIG    1        1.516  -1.660   0.702  0.00  0.00    +0.157 HD
BRANCH  16  18
ATOM     18  C   LIG    1        3.462  -1.408   0.123  0.00  0.00    +0.125 A 
ATOM     19  C   LIG    1        3.829  -2.520   0.889  0.00  0.00    +0.044 A 
ATOM     20  C   LIG    1        5.178  -2.871   0.971  0.00  0.00    +0.005 A 
ATOM     21  C   LIG    1        6.130  -2.109   0.294  0.00  0.00    +0.020 A 
ATOM     22  C   LIG    1        5.696  -1.010  -0.447  0.00  0.00    +0.113 A 
ATOM     23  N   LIG    1        4.390  -0.654  -0.536  0.00  0.00    -0.240 NA
ENDBRANCH  16  18
ENDBRANCH   3  14
BRANCH   2  24
ATOM     24  O   LIG    1       -0.324  -2.480  -0.884  0.00  0.00    -0.504 OA
ATOM     25  H   LIG    1       -1.051  -3.106  -0.922  0.00  0.00    +0.292 HD
ENDBRANCH   2  24
TORSDOF 3
