REMARK  Name = DB00121
REMARK                            x       y       z     vdW  Elec       q    Type
REMARK                         _______ _______ _______ _____ _____    ______ ____
ROOT
ATOM      1  S   LIG    1       -2.931   0.646  -1.469  0.00  0.00    -0.154 S 
ATOM      2  C   LIG    1       -4.500   1.438  -1.082  0.00  0.00    +0.093 C 
ATOM      3  C   LIG    1       -4.136   2.845  -0.590  0.00  0.00    +0.105 C 
ATOM      4  C   LIG    1       -2.778   2.818   0.105  0.00  0.00    +0.108 C 
ATOM      5  N   LIG    1       -2.105   3.904  -0.592  0.00  0.00    -0.294 N 
ATOM      6  H   LIG    1       -1.320   4.370  -0.162  0.00  0.00    +0.151 HD
ATOM      7  C   LIG    1       -2.731   4.412  -1.667  0.00  0.00    +0.300 C 
ATOM      8  O   LIG    1       -2.243   5.062  -2.587  0.00  0.00    -0.253 OA
ATOM      9  N   LIG    1       -3.951   3.857  -1.612  0.00  0.00    -0.294 N 
ATOM     10  H   LIG    1       -4.753   4.281  -2.055  0.00  0.00    +0.151 HD
ATOM     11  C   LIG    1       -2.145   1.401  -0.019  0.00  0.00    +0.069 C 
ENDROOT
BRANCH  11  12
ATOM     12  C   LIG    1       -0.602   1.378  -0.132  0.00  0.00    +0.016 C 
BRANCH  12  13
ATOM     13  C   LIG    1        0.018  -0.032  -0.056  0.00  0.00    +0.002 C 
BRANCH  13  14
ATOM     14  C   LIG    1        1.556  -0.011  -0.102  0.00  0.00    +0.011 C 
BRANCH  14  15
ATOM     15  C   LIG    1        2.171  -1.424  -0.042  0.00  0.00    +0.120 C 
BRANCH  15  16
ATOM     16  C   LIG    1        3.701  -1.404   0.013  0.00  0.00    +0.305 C 
ATOM     17  O   LIG    1        4.344  -1.730   1.009  0.00  0.00    -0.251 OA
BRANCH  16  18
ATOM     18  O   LIG    1        4.246  -0.992  -1.168  0.00  0.00    -0.481 OA
ATOM     19  H   LIG    1        5.205  -0.980  -1.141  0.00  0.00    +0.295 HD
ENDBRANCH  16  18
ENDBRANCH  15  16
ENDBRANCH  14  15
ENDBRANCH  13  14
ENDBRANCH  12  13
ENDBRANCH  11  12
TORSDOF 6
