REMARK  Name = DB00720
REMARK                            x       y       z     vdW  Elec       q    Type
REMARK                         _______ _______ _______ _____ _____    ______ ____
ROOT
ATOM      1  C   LIG    1        1.751   0.077  -0.134  0.00  0.00    +0.317 C 
ATOM      2 CL   LIG    1        2.296  -1.620  -0.073  0.00  0.00    -0.075 Cl
ATOM      3 CL   LIG    1        2.415   0.915   1.294  0.00  0.00    -0.075 Cl
ENDROOT
BRANCH   1   4
ATOM      4  P   LIG    1       -0.108   0.067   0.067  0.00  0.00    +0.375 P 
ATOM      5  O   LIG    1       -0.762   1.430   0.070  0.00  0.00    -0.255 OA
BRANCH   4   6
ATOM      6  O   LIG    1       -0.600  -0.931  -1.238  0.00  0.00    -0.322 OA
ATOM      7  H   LIG    1       -0.375  -0.758  -2.173  0.00  0.00    +0.220 HD
ENDBRANCH   4   6
BRANCH   4   8
ATOM      8  O   LIG    1       -0.329  -0.806   1.526  0.00  0.00    -0.322 OA
ATOM      9  H   LIG    1       -1.126  -0.735   2.085  0.00  0.00    +0.220 HD
ENDBRANCH   4   8
ENDBRANCH   1   4
BRANCH   1  10
ATOM     10  P   LIG    1        2.550   0.843  -1.642  0.00  0.00    +0.375 P 
ATOM     11  O   LIG    1        2.134   0.241  -2.966  0.00  0.00    -0.255 OA
BRANCH  10  12
ATOM     12  O   LIG    1        2.123   2.495  -1.470  0.00  0.00    -0.322 OA
ATOM     13  H   LIG    1        1.204   2.815  -1.391  0.00  0.00    +0.220 HD
ENDBRANCH  10  12
BRANCH  10  14
ATOM     14  O   LIG    1        4.225   0.681  -1.309  0.00  0.00    -0.322 OA
ATOM     15  H   LIG    1        4.917   0.684  -1.998  0.00  0.00    +0.220 HD
ENDBRANCH  10  14
ENDBRANCH   1  10
TORSDOF 6
