REMARK  Name = DB00839
REMARK                            x       y       z     vdW  Elec       q    Type
REMARK                         _______ _______ _______ _____ _____    ______ ____
ROOT
ATOM      1  N   LIG    1        1.877   0.464   0.420  0.00  0.00    -0.168 N 
ATOM      2  H   LIG    1        2.311   1.336   0.107  0.00  0.00    +0.178 HD
ATOM      3  C   LIG    1        2.729  -0.606   0.764  0.00  0.00    +0.333 C 
ATOM      4  N   LIG    1        4.024  -0.243   0.784  0.00  0.00    -0.231 N 
ATOM      5  H   LIG    1        4.362   0.679   0.551  0.00  0.00    +0.171 HD
ATOM      6  O   LIG    1        2.309  -1.742   0.991  0.00  0.00    -0.250 OA
ENDROOT
BRANCH   4   7
ATOM      7  N   LIG    1        5.038  -1.187   1.009  0.00  0.00    -0.226 NA
ATOM      8  C   LIG    1        5.808  -1.017   2.243  0.00  0.00    +0.105 C 
ATOM      9  C   LIG    1        7.104  -1.828   2.445  0.00  0.00    +0.017 C 
ATOM     10  C   LIG    1        8.299  -1.331   1.605  0.00  0.00    +0.001 C 
ATOM     11  C   LIG    1        8.235  -1.635   0.097  0.00  0.00    +0.001 C 
ATOM     12  C   LIG    1        6.990  -1.115  -0.645  0.00  0.00    +0.017 C 
ATOM     13  C   LIG    1        5.675  -1.764  -0.174  0.00  0.00    +0.105 C 
ENDBRANCH   4   7
BRANCH   1  14
ATOM     14  S   LIG    1        0.211   0.264  -0.116  0.00  0.00    +0.076 S 
ATOM     15  O   LIG    1       -0.515  -0.474   0.924  0.00  0.00    -0.150 OA
ATOM     16  O   LIG    1        0.247  -0.236  -1.496  0.00  0.00    -0.150 OA
BRANCH  14  17
ATOM     17  C   LIG    1       -0.462   1.921  -0.145  0.00  0.00    +0.109 A 
ATOM     18  C   LIG    1       -0.997   2.450  -1.322  0.00  0.00    +0.029 A 
ATOM     19  C   LIG    1       -1.515   3.742  -1.326  0.00  0.00    +0.005 A 
ATOM     20  C   LIG    1       -1.504   4.501  -0.153  0.00  0.00    -0.050 A 
ATOM     21  C   LIG    1       -2.056   5.915  -0.160  0.00  0.00    +0.044 C 
ATOM     22  C   LIG    1       -0.966   3.971   1.022  0.00  0.00    +0.005 A 
ATOM     23  C   LIG    1       -0.448   2.679   1.027  0.00  0.00    +0.029 A 
ENDBRANCH  14  17
ENDBRANCH   1  14
TORSDOF 3
