REMARK  Name = DB00153
REMARK                            x       y       z     vdW  Elec       q    Type
REMARK                         _______ _______ _______ _____ _____    ______ ____
ROOT
ATOM      1  C   LIG    1       -4.579   0.402   3.798  0.00  0.00    -0.000 C 
ATOM      2  C   LIG    1       -3.999  -0.602   3.099  0.00  0.00    -0.066 C 
ATOM      3  C   LIG    1       -4.728  -1.821   2.509  0.00  0.00    +0.031 C 
ATOM      4  C   LIG    1       -4.397  -2.010   1.007  0.00  0.00    +0.005 C 
ATOM      5  C   LIG    1       -2.878  -1.978   0.724  0.00  0.00    +0.008 C 
ATOM      6  C   LIG    1       -2.219  -0.680   1.272  0.00  0.00    -0.022 C 
ATOM      7  C   LIG    1       -2.773   0.591   0.553  0.00  0.00    +0.012 C 
ATOM      8  C   LIG    1       -0.651  -0.690   1.281  0.00  0.00    +0.002 C 
ATOM      9  C   LIG    1       -0.266   0.200   2.500  0.00  0.00    +0.005 C 
ATOM     10  C   LIG    1       -1.521   0.367   3.368  0.00  0.00    +0.009 C 
ATOM     11  C   LIG    1       -2.493  -0.671   2.801  0.00  0.00    +0.021 C 
ENDROOT
BRANCH   1  18
ATOM     12  C   LIG    1       -8.568   2.962   4.934  0.00  0.00    +0.119 C 
ATOM     13  C   LIG    1       -7.784   3.966   5.811  0.00  0.00    +0.036 C 
ATOM     14  C   LIG    1       -6.256   3.874   5.598  0.00  0.00    +0.037 C 
ATOM     15  C   LIG    1       -5.806   2.422   5.724  0.00  0.00    -0.051 C 
ATOM     16  C   LIG    1       -4.792   2.065   6.535  0.00  0.00    +0.012 C 
ATOM     17  C   LIG    1       -6.559   1.445   4.935  0.00  0.00    -0.042 C 
ATOM     18  C   LIG    1       -6.000   0.534   4.102  0.00  0.00    +0.004 C 
ATOM     19  C   LIG    1       -8.075   1.506   5.118  0.00  0.00    +0.066 C 
BRANCH  12  20
ATOM     20  O   LIG    1       -9.956   3.055   5.181  0.00  0.00    -0.391 OA
ATOM     21  H   LIG    1      -10.120   2.813   6.096  0.00  0.00    +0.210 HD
ENDBRANCH  12  20
ENDBRANCH   1  18
BRANCH   8  22
ATOM     22  C   LIG    1        0.112  -0.305  -0.032  0.00  0.00    +0.012 C 
ATOM     23  C   LIG    1       -0.275  -1.180  -1.246  0.00  0.00    +0.012 C 
BRANCH  22  24
ATOM     24  C   LIG    1        1.624  -0.245   0.203  0.00  0.00    -0.027 C 
ATOM     25  C   LIG    1        2.560  -1.077  -0.291  0.00  0.00    -0.027 C 
BRANCH  25  26
ATOM     26  C   LIG    1        4.054  -0.965  -0.017  0.00  0.00    +0.011 C 
ATOM     27  C   LIG    1        4.814  -0.742  -1.341  0.00  0.00    +0.012 C 
BRANCH  26  28
ATOM     28  C   LIG    1        4.596  -2.171   0.811  0.00  0.00    -0.011 C 
ATOM     29  C   LIG    1        6.113  -2.085   1.087  0.00  0.00    +0.008 C 
ATOM     30  C   LIG    1        3.840  -2.353   2.146  0.00  0.00    +0.008 C 
ENDBRANCH  26  28
ENDBRANCH  25  26
ENDBRANCH  22  24
ENDBRANCH   8  22
TORSDOF 6
