REMARK  Name = DB00879
REMARK                            x       y       z     vdW  Elec       q    Type
REMARK                         _______ _______ _______ _____ _____    ______ ____
ROOT
ATOM      1  C   LIG    1        3.219   0.315  -3.772  0.00  0.00    +0.135 A 
ATOM      2  N   LIG    1        3.927   0.531  -2.586  0.00  0.00    -0.272 N 
ATOM      3  C   LIG    1        5.106   1.296  -2.696  0.00  0.00    +0.300 A 
ATOM      4  N   LIG    1        5.566   1.804  -3.789  0.00  0.00    -0.175 NA
ATOM      5  C   LIG    1        4.878   1.612  -5.000  0.00  0.00    +0.188 A 
ATOM      6  N   LIG    1        5.312   2.103  -6.079  0.00  0.00    -0.279 NA
ATOM      7  H   LIG    1        6.170   2.619  -5.946  0.00  0.00    +0.188 HD
ATOM      8  C   LIG    1        3.643   0.821  -4.957  0.00  0.00    +0.183 A 
ATOM      9  F   LIG    1        2.932   0.596  -6.085  0.00  0.00    -0.200 F 
ENDROOT
BRANCH   2  10
ATOM     10  C   LIG    1        3.416   0.051  -1.323  0.00  0.00    +0.235 C 
ATOM     11  O   LIG    1        2.134   0.574  -1.132  0.00  0.00    -0.340 OA
ATOM     12  C   LIG    1        1.551  -0.016   0.021  0.00  0.00    +0.203 C 
ATOM     13  S   LIG    1        1.941  -1.774  -0.080  0.00  0.00    -0.123 S 
ATOM     14  C   LIG    1        3.319  -1.470  -1.200  0.00  0.00    +0.126 C 
BRANCH  12  15
ATOM     15  C   LIG    1        0.035   0.236   0.050  0.00  0.00    +0.198 C 
BRANCH  15  16
ATOM     16  O   LIG    1       -0.235   1.601   0.290  0.00  0.00    -0.392 OA
ATOM     17  H   LIG    1       -1.186   1.728   0.304  0.00  0.00    +0.210 HD
ENDBRANCH  15  16
ENDBRANCH  12  15
ENDBRANCH   2  10
BRANCH   3  18
ATOM     18  O   LIG    1        5.861   1.535  -1.575  0.00  0.00    -0.479 OA
ATOM     19  H   LIG    1        6.628   2.062  -1.812  0.00  0.00    +0.295 HD
ENDBRANCH   3  18
TORSDOF 4
