REMARK  Name = DB00252
REMARK                            x       y       z     vdW  Elec       q    Type
REMARK                         _______ _______ _______ _____ _____    ______ ____
ROOT
ATOM      1  O   LIG    1       -0.345  -1.997  -1.703  0.00  0.00    -0.272 OA
ATOM      2  C   LIG    1       -0.494  -0.829  -1.344  0.00  0.00    +0.253 C 
ATOM      3  C   LIG    1        0.032  -0.185  -0.052  0.00  0.00    +0.163 C 
ATOM      4  N   LIG    1       -0.608   1.106  -0.196  0.00  0.00    -0.278 N 
ATOM      5  H   LIG    1       -0.271   1.883   0.354  0.00  0.00    +0.152 HD
ATOM      6  C   LIG    1       -1.277   1.293  -1.339  0.00  0.00    +0.307 C 
ATOM      7  O   LIG    1       -2.001   2.240  -1.635  0.00  0.00    -0.252 OA
ATOM      8  N   LIG    1       -1.141   0.136  -2.013  0.00  0.00    -0.238 N 
ATOM      9  H   LIG    1       -1.594  -0.031  -2.899  0.00  0.00    +0.159 HD
ENDROOT
BRANCH   3  10
ATOM     10  C   LIG    1       -0.516  -0.901   1.218  0.00  0.00    -0.011 A 
ATOM     11  C   LIG    1        0.313  -1.171   2.321  0.00  0.00    +0.006 A 
ATOM     12  C   LIG    1       -0.191  -1.797   3.458  0.00  0.00    +0.000 A 
ATOM     13  C   LIG    1       -1.533  -2.156   3.514  0.00  0.00    +0.000 A 
ATOM     14  C   LIG    1       -2.378  -1.890   2.441  0.00  0.00    +0.000 A 
ATOM     15  C   LIG    1       -1.873  -1.265   1.305  0.00  0.00    +0.006 A 
ENDBRANCH   3  10
BRANCH   3  16
ATOM     16  C   LIG    1        1.586  -0.035  -0.058  0.00  0.00    -0.011 A 
ATOM     17  C   LIG    1        2.184   1.113   0.493  0.00  0.00    +0.006 A 
ATOM     18  C   LIG    1        3.568   1.263   0.509  0.00  0.00    +0.000 A 
ATOM     19  C   LIG    1        4.376   0.262  -0.021  0.00  0.00    +0.000 A 
ATOM     20  C   LIG    1        3.810  -0.889  -0.559  0.00  0.00    +0.000 A 
ATOM     21  C   LIG    1        2.427  -1.038  -0.574  0.00  0.00    +0.006 A 
ENDBRANCH   3  16
TORSDOF 2
