REMARK  Name = DB00560
REMARK                            x       y       z     vdW  Elec       q    Type
REMARK                         _______ _______ _______ _____ _____    ______ ____
ROOT
ATOM      1  C   LIG    1       -7.325   4.145   1.421  0.00  0.00    +0.211 C 
ATOM      2  O   LIG    1       -6.910   4.909   2.298  0.00  0.00    -0.288 OA
ATOM      3  C   LIG    1       -6.540   3.977   0.079  0.00  0.00    +0.190 C 
ATOM      4  C   LIG    1       -5.007   3.856   0.334  0.00  0.00    +0.141 C 
ATOM      5  C   LIG    1       -4.264   2.715   0.195  0.00  0.00    +0.044 C 
ATOM      6  C   LIG    1       -2.777   2.711   0.388  0.00  0.00    +0.197 C 
ATOM      7  O   LIG    1       -2.122   3.752   0.468  0.00  0.00    -0.287 OA
ATOM      8  C   LIG    1       -2.089   1.343   0.426  0.00  0.00    +0.070 A 
ATOM      9  C   LIG    1       -0.672   1.238   0.362  0.00  0.00    +0.149 A 
ATOM     10  C   LIG    1       -0.040  -0.014   0.393  0.00  0.00    +0.078 A 
ATOM     11  C   LIG    1       -0.810  -1.169   0.499  0.00  0.00    +0.050 A 
ATOM     12  C   LIG    1       -2.202  -1.106   0.563  0.00  0.00    +0.035 A 
ATOM     13  C   LIG    1       -2.848   0.149   0.542  0.00  0.00    -0.011 A 
ATOM     14  C   LIG    1       -4.366   0.262   0.687  0.00  0.00    +0.046 C 
ATOM     15  C   LIG    1       -4.904   1.377  -0.218  0.00  0.00    +0.031 C 
ATOM     16  C   LIG    1       -6.443   1.435  -0.146  0.00  0.00    +0.018 C 
ATOM     17  C   LIG    1       -7.018   2.737  -0.749  0.00  0.00    +0.061 C 
ATOM     18  C   LIG    1       -8.574   2.670  -0.883  0.00  0.00    +0.129 C 
ATOM     19  C   LIG    1       -9.134   2.694   0.553  0.00  0.00    +0.127 C 
ATOM     20  C   LIG    1       -8.579   3.356   1.611  0.00  0.00    +0.121 C 
ENDROOT
BRANCH  20  21
ATOM     21  C   LIG    1       -9.224   3.259   2.916  0.00  0.00    +0.248 C 
ATOM     22  N   LIG    1       -9.520   4.421   3.511  0.00  0.00    -0.325 N 
ATOM     23  H   LIG    1       -9.273   5.295   3.070  0.00  0.00    +0.145 HD
ATOM     24  H   LIG    1       -9.976   4.427   4.411  0.00  0.00    +0.145 HD
ATOM     25  O   LIG    1       -9.507   2.183   3.443  0.00  0.00    -0.270 OA
ENDBRANCH  20  21
BRANCH  10  26
ATOM     26  N   LIG    1        1.370  -0.089   0.356  0.00  0.00    -0.281 N 
ATOM     27  H   LIG    1        1.858   0.632   0.867  0.00  0.00    +0.155 HD
ATOM     28  C   LIG    1        2.122  -0.983  -0.323  0.00  0.00    +0.231 C 
ATOM     29  O   LIG    1        1.652  -1.853  -1.062  0.00  0.00    -0.274 OA
BRANCH  28  30
ATOM     30  C   LIG    1        3.646  -0.817  -0.141  0.00  0.00    +0.178 C 
BRANCH  30  31
ATOM     31  N   LIG    1        4.360  -2.040  -0.480  0.00  0.00    -0.303 NA
ATOM     32  H   LIG    1        4.870  -2.403   0.313  0.00  0.00    +0.123 HD
BRANCH  31  33
ATOM     33  C   LIG    1        5.176  -2.107  -1.698  0.00  0.00    +0.011 C 
ATOM     34  C   LIG    1        4.339  -1.768  -2.954  0.00  0.00    +0.027 C 
ATOM     35  C   LIG    1        6.388  -1.155  -1.567  0.00  0.00    +0.027 C 
ATOM     36  C   LIG    1        5.675  -3.565  -1.791  0.00  0.00    +0.027 C 
ENDBRANCH  31  33
ENDBRANCH  30  31
ENDBRANCH  28  30
ENDBRANCH  10  26
BRANCH  12  37
ATOM     37  N   LIG    1       -2.952  -2.302   0.651  0.00  0.00    -0.336 N 
ATOM     38  C   LIG    1       -3.395  -2.784  -0.653  0.00  0.00    +0.129 C 
ATOM     39  C   LIG    1       -2.459  -3.338   1.555  0.00  0.00    +0.129 C 
ENDBRANCH  12  37
BRANCH  18  40
ATOM     40  N   LIG    1       -9.185   3.696  -1.766  0.00  0.00    -0.299 NA
ATOM     41  C   LIG    1      -10.650   3.721  -1.744  0.00  0.00    +0.105 C 
ATOM     42  C   LIG    1       -8.780   3.523  -3.163  0.00  0.00    +0.105 C 
ENDBRANCH  18  40
BRANCH   3  43
ATOM     43  O   LIG    1       -6.795   5.149  -0.688  0.00  0.00    -0.373 OA
ATOM     44  H   LIG    1       -7.703   5.112  -1.003  0.00  0.00    +0.211 HD
ENDBRANCH   3  43
BRANCH   4  45
ATOM     45  O   LIG    1       -4.498   5.067   0.722  0.00  0.00    -0.507 OA
ATOM     46  H   LIG    1       -5.205   5.716   0.741  0.00  0.00    +0.292 HD
ENDBRANCH   4  45
BRANCH   9  47
ATOM     47  O   LIG    1        0.135   2.349   0.242  0.00  0.00    -0.504 OA
ATOM     48  H   LIG    1        1.065   2.130   0.158  0.00  0.00    +0.292 HD
ENDBRANCH   9  47
BRANCH  19  49
ATOM     49  O   LIG    1      -10.239   1.891   0.613  0.00  0.00    -0.509 OA
ATOM     50  H   LIG    1      -10.426   1.538  -0.260  0.00  0.00    +0.292 HD
ENDBRANCH  19  49
TORSDOF 11
