REMARK  Name = DB00221
REMARK                            x       y       z     vdW  Elec       q    Type
REMARK                         _______ _______ _______ _____ _____    ______ ____
ROOT
ATOM      1  C   LIG    1       -0.133   0.178   0.264  0.00  0.00    +0.161 C 
ENDROOT
BRANCH   1   4
ATOM      2  C   LIG    1       -1.772  -2.706   2.178  0.00  0.00    +0.159 A 
ATOM      3  C   LIG    1       -1.315  -1.894   1.138  0.00  0.00    +0.055 A 
ATOM      4  C   LIG    1       -0.646  -0.695   1.411  0.00  0.00    -0.014 A 
ATOM      5  C   LIG    1       -0.441  -0.317   2.744  0.00  0.00    +0.010 A 
ATOM      6  C   LIG    1       -0.896  -1.125   3.785  0.00  0.00    +0.049 A 
ATOM      7  C   LIG    1       -1.562  -2.320   3.507  0.00  0.00    +0.158 A 
BRANCH   2   8
ATOM      8  O   LIG    1       -2.421  -3.877   1.878  0.00  0.00    -0.503 OA
ATOM      9  H   LIG    1       -2.687  -4.359   2.664  0.00  0.00    +0.292 HD
ENDBRANCH   2   8
BRANCH   7  10
ATOM     10  O   LIG    1       -1.999  -3.100   4.548  0.00  0.00    -0.503 OA
ATOM     11  H   LIG    1       -1.792  -2.728   5.408  0.00  0.00    +0.292 HD
ENDBRANCH   7  10
ENDBRANCH   1   4
BRANCH   1  12
ATOM     12  O   LIG    1       -0.616   1.507   0.395  0.00  0.00    -0.386 OA
ATOM     13  H   LIG    1       -1.568   1.497   0.279  0.00  0.00    +0.210 HD
ENDBRANCH   1  12
BRANCH   1  14
ATOM     14  C   LIG    1        1.425   0.198   0.159  0.00  0.00    +0.087 C 
BRANCH  14  15
ATOM     15  C   LIG    1        2.055  -1.225   0.165  0.00  0.00    +0.018 C 
ATOM     16  C   LIG    1        3.591  -1.274   0.069  0.00  0.00    +0.005 C 
ENDBRANCH  14  15
BRANCH  14  17
ATOM     17  N   LIG    1        1.808   0.875  -1.087  0.00  0.00    -0.308 NA
ATOM     18  H   LIG    1        2.110   0.188  -1.763  0.00  0.00    +0.123 HD
BRANCH  17  19
ATOM     19  C   LIG    1        2.859   1.882  -0.939  0.00  0.00    +0.048 C 
ATOM     20  C   LIG    1        3.395   2.207  -2.343  0.00  0.00    +0.023 C 
ATOM     21  C   LIG    1        2.325   3.146  -0.236  0.00  0.00    +0.023 C 
ENDBRANCH  17  19
ENDBRANCH  14  17
ENDBRANCH   1  14
TORSDOF 8
