REMARK  Name = DB00469
REMARK                            x       y       z     vdW  Elec       q    Type
REMARK                         _______ _______ _______ _____ _____    ______ ____
ROOT
ATOM      1  C   LIG    1       -0.803  -1.200   0.584  0.00  0.00    +0.160 C 
ATOM      2  C   LIG    1       -0.004  -0.121   0.318  0.00  0.00    +0.155 C 
ATOM      3  N   LIG    1       -0.495   1.117  -0.223  0.00  0.00    -0.197 N 
ATOM      4  C   LIG    1        0.365   2.307  -0.500  0.00  0.00    +0.158 C 
ATOM      5  S   LIG    1       -2.088   1.248  -0.989  0.00  0.00    +0.076 S 
ATOM      6  O   LIG    1       -1.956   0.952  -2.420  0.00  0.00    -0.150 OA
ATOM      7  O   LIG    1       -2.727   2.510  -0.600  0.00  0.00    -0.150 OA
ATOM      8  C   LIG    1       -2.944  -0.117  -0.194  0.00  0.00    +0.126 A 
ATOM      9  C   LIG    1       -4.336  -0.251  -0.190  0.00  0.00    +0.037 A 
ATOM     10  C   LIG    1       -4.747  -1.408   0.448  0.00  0.00    +0.048 A 
ATOM     11  S   LIG    1       -3.406  -2.333   1.038  0.00  0.00    -0.092 S 
ATOM     12  C   LIG    1       -2.263  -1.154   0.440  0.00  0.00    +0.082 A 
ENDROOT
BRANCH   2  13
ATOM     13  C   LIG    1        1.427  -0.159   0.616  0.00  0.00    +0.268 C 
ATOM     14  N   LIG    1        2.099  -1.112  -0.073  0.00  0.00    -0.265 N 
ATOM     15  H   LIG    1        1.540  -1.740  -0.632  0.00  0.00    +0.157 HD
ATOM     16  O   LIG    1        1.951   0.639   1.396  0.00  0.00    -0.268 OA
BRANCH  14  17
ATOM     17  C   LIG    1        3.471  -1.416  -0.038  0.00  0.00    +0.125 A 
ATOM     18  N   LIG    1        4.383  -0.580   0.539  0.00  0.00    -0.240 NA
ATOM     19  C   LIG    1        5.692  -0.937   0.524  0.00  0.00    +0.113 A 
ATOM     20  C   LIG    1        6.145  -2.119  -0.063  0.00  0.00    +0.020 A 
ATOM     21  C   LIG    1        5.209  -2.967  -0.657  0.00  0.00    +0.005 A 
ATOM     22  C   LIG    1        3.858  -2.615  -0.649  0.00  0.00    +0.044 A 
ENDBRANCH  14  17
ENDBRANCH   2  13
BRANCH   1  23
ATOM     23  O   LIG    1       -0.302  -2.361   1.102  0.00  0.00    -0.504 OA
ATOM     24  H   LIG    1       -1.017  -2.989   1.234  0.00  0.00    +0.292 HD
ENDBRANCH   1  23
TORSDOF 3
