REMARK  Name = DB00399
REMARK                            x       y       z     vdW  Elec       q    Type
REMARK                         _______ _______ _______ _____ _____    ______ ____
ROOT
ATOM      1  C   LIG    1        1.854   0.004   0.253  0.00  0.00    +0.285 C 
ENDROOT
BRANCH   1   2
ATOM      2  P   LIG    1       -0.026  -0.078   0.115  0.00  0.00    +0.373 P 
ATOM      3  O   LIG    1       -0.755   1.237   0.260  0.00  0.00    -0.255 OA
BRANCH   2   4
ATOM      4  O   LIG    1       -0.268  -0.865  -1.392  0.00  0.00    -0.322 OA
ATOM      5  H   LIG    1        0.450  -1.251  -1.930  0.00  0.00    +0.220 HD
ENDBRANCH   2   4
BRANCH   2   6
ATOM      6  O   LIG    1       -0.415  -1.223   1.333  0.00  0.00    -0.322 OA
ATOM      7  H   LIG    1       -1.292  -1.282   1.759  0.00  0.00    +0.220 HD
ENDBRANCH   2   6
ENDBRANCH   1   2
BRANCH   1   8
ATOM      8  O   LIG    1        2.262  -1.346   0.411  0.00  0.00    -0.366 OA
ATOM      9  H   LIG    1        1.553  -1.833   0.840  0.00  0.00    +0.212 HD
ENDBRANCH   1   8
BRANCH   1  10
ATOM     10  P   LIG    1        2.590   0.930   1.728  0.00  0.00    +0.373 P 
ATOM     11  O   LIG    1        2.265   2.405   1.806  0.00  0.00    -0.255 OA
BRANCH  10  12
ATOM     12  O   LIG    1        1.992   0.029   3.061  0.00  0.00    -0.322 OA
ATOM     13  H   LIG    1        1.506  -0.814   2.978  0.00  0.00    +0.220 HD
ENDBRANCH  10  12
BRANCH  10  14
ATOM     14  O   LIG    1        4.267   0.583   1.632  0.00  0.00    -0.322 OA
ATOM     15  H   LIG    1        4.822   0.780   0.852  0.00  0.00    +0.220 HD
ENDBRANCH  10  14
ENDBRANCH   1  10
BRANCH   1  16
ATOM     16  C   LIG    1        2.400   0.546  -1.105  0.00  0.00    +0.183 C 
BRANCH  16  17
ATOM     17  N   LIG    1        3.855   0.567  -1.227  0.00  0.00    -0.333 N 
ATOM     18  C   LIG    1        4.682   1.666  -1.216  0.00  0.00    +0.199 A 
ATOM     19  N   LIG    1        5.952   1.369  -1.351  0.00  0.00    -0.244 NA
ATOM     20  C   LIG    1        5.976   0.052  -1.465  0.00  0.00    +0.130 A 
ATOM     21  C   LIG    1        4.705  -0.497  -1.401  0.00  0.00    +0.107 A 
ENDBRANCH  16  17
ENDBRANCH   1  16
TORSDOF 9
