REMARK  Name = DB00706
REMARK                            x       y       z     vdW  Elec       q    Type
REMARK                         _______ _______ _______ _____ _____    ______ ____
ROOT
ATOM      1  C   LIG    1        1.597  -0.385  -0.130  0.00  0.00    +0.055 C 
ATOM      2  C   LIG    1        2.139  -1.333  -1.215  0.00  0.00    +0.024 C 
ENDROOT
BRANCH   1   3
ATOM      3  N   LIG    1        0.151  -0.273  -0.323  0.00  0.00    -0.310 NA
ATOM      4  H   LIG    1       -0.082  -0.529  -1.273  0.00  0.00    +0.122 HD
BRANCH   3   5
ATOM      5  C   LIG    1       -0.376   1.059  -0.037  0.00  0.00    +0.122 C 
BRANCH   5   6
ATOM      6  C   LIG    1       -1.890   0.989   0.211  0.00  0.00    +0.244 C 
BRANCH   6   7
ATOM      7  O   LIG    1       -2.559   0.628  -0.995  0.00  0.00    -0.487 OA
BRANCH   7   8
ATOM      8  C   LIG    1       -3.926   0.415  -0.982  0.00  0.00    +0.162 A 
ATOM      9  C   LIG    1       -4.732   0.582   0.158  0.00  0.00    +0.049 A 
ATOM     10  C   LIG    1       -6.104   0.349   0.097  0.00  0.00    +0.004 A 
ATOM     11  C   LIG    1       -6.689  -0.049  -1.100  0.00  0.00    +0.004 A 
ATOM     12  C   LIG    1       -5.903  -0.216  -2.238  0.00  0.00    +0.049 A 
ATOM     13  C   LIG    1       -4.516   0.011  -2.190  0.00  0.00    +0.162 A 
BRANCH  13  14
ATOM     14  O   LIG    1       -3.675  -0.145  -3.278  0.00  0.00    -0.489 OA
BRANCH  14  15
ATOM     15  C   LIG    1       -4.207  -0.581  -4.525  0.00  0.00    +0.226 C 
ATOM     16  C   LIG    1       -3.056  -0.720  -5.527  0.00  0.00    +0.048 C 
ENDBRANCH  14  15
ENDBRANCH  13  14
ENDBRANCH   7   8
ENDBRANCH   6   7
ENDBRANCH   5   6
ENDBRANCH   3   5
ENDBRANCH   1   3
BRANCH   1  17
ATOM     17  C   LIG    1        1.958  -0.908   1.288  0.00  0.00    +0.053 C 
BRANCH  17  22
ATOM     18  C   LIG    1       -0.380   0.477   3.975  0.00  0.00    +0.147 A 
ATOM     19  C   LIG    1        0.390   1.513   4.531  0.00  0.00    +0.146 A 
ATOM     20  C   LIG    1        1.677   1.748   4.015  0.00  0.00    +0.048 A 
ATOM     21  C   LIG    1        2.185   0.969   2.978  0.00  0.00    +0.007 A 
ATOM     22  C   LIG    1        1.426  -0.074   2.447  0.00  0.00    -0.044 A 
ATOM     23  C   LIG    1        0.158  -0.333   2.971  0.00  0.00    +0.036 A 
BRANCH  18  24
ATOM     24  S   LIG    1       -2.008   0.090   4.628  0.00  0.00    +0.059 S 
ATOM     25  O   LIG    1       -2.510  -1.095   3.922  0.00  0.00    -0.153 OA
ATOM     26  O   LIG    1       -1.911   0.102   6.092  0.00  0.00    -0.153 OA
BRANCH  24  27
ATOM     27  N   LIG    1       -3.007   1.447   4.141  0.00  0.00    -0.203 NA
ATOM     28  H   LIG    1       -3.150   1.525   3.131  0.00  0.00    +0.144 HD
ATOM     29  H   LIG    1       -2.753   2.335   4.582  0.00  0.00    +0.144 HD
ENDBRANCH  24  27
ENDBRANCH  18  24
BRANCH  19  30
ATOM     30  O   LIG    1       -0.174   2.267   5.545  0.00  0.00    -0.493 OA
ATOM     31  C   LIG    1        0.582   3.310   6.149  0.00  0.00    +0.277 C 
ENDBRANCH  19  30
ENDBRANCH  17  22
ENDBRANCH   1  17
TORSDOF 12
