REMARK  Name = DB00639
REMARK                            x       y       z     vdW  Elec       q    Type
REMARK                         _______ _______ _______ _____ _____    ______ ____
ROOT
ATOM      1  C   LIG    1        0.726  -0.275   0.527  0.00  0.00    +0.071 C 
ENDROOT
BRANCH   1   2
ATOM      2  S   LIG    1       -0.074   1.320   0.931  0.00  0.00    -0.117 S 
BRANCH   2  10
ATOM      3 CL   LIG    1       -0.078   0.211   3.972  0.00  0.00    -0.082 Cl
ATOM      4  C   LIG    1       -1.560   0.500   3.123  0.00  0.00    +0.056 A 
ATOM      5  C   LIG    1       -2.757   0.234   3.790  0.00  0.00    +0.021 A 
ATOM      6  C   LIG    1       -3.980   0.460   3.163  0.00  0.00    +0.003 A 
ATOM      7  C   LIG    1       -4.012   0.962   1.865  0.00  0.00    +0.021 A 
ATOM      8  C   LIG    1       -2.825   1.232   1.183  0.00  0.00    +0.056 A 
ATOM      9 CL   LIG    1       -2.937   1.856  -0.429  0.00  0.00    -0.082 Cl
ATOM     10  C   LIG    1       -1.587   0.990   1.805  0.00  0.00    +0.045 A 
ENDBRANCH   2  10
ENDBRANCH   1   2
BRANCH   1  11
ATOM     11  C   LIG    1       -0.033  -1.178  -0.484  0.00  0.00    +0.137 C 
BRANCH  11  12
ATOM     12  N   LIG    1       -1.303  -1.686   0.022  0.00  0.00    -0.336 N 
ATOM     13  C   LIG    1       -1.534  -2.394   1.179  0.00  0.00    +0.199 A 
ATOM     14  N   LIG    1       -2.787  -2.747   1.339  0.00  0.00    -0.244 NA
ATOM     15  C   LIG    1       -3.399  -2.297   0.258  0.00  0.00    +0.130 A 
ATOM     16  C   LIG    1       -2.525  -1.646  -0.599  0.00  0.00    +0.106 A 
ENDBRANCH  11  12
ENDBRANCH   1  11
BRANCH   1  17
ATOM     17  C   LIG    1        2.198  -0.071   0.097  0.00  0.00    +0.021 C 
BRANCH  17  18
ATOM     18  C   LIG    1        2.403   0.697  -1.227  0.00  0.00    +0.036 C 
BRANCH  18  19
ATOM     19  C   LIG    1        3.874   0.879  -1.573  0.00  0.00    -0.047 A 
ATOM     20  C   LIG    1        4.538  -0.093  -2.326  0.00  0.00    +0.005 A 
ATOM     21  C   LIG    1        5.885   0.071  -2.639  0.00  0.00    +0.020 A 
ATOM     22  C   LIG    1        6.564   1.206  -2.198  0.00  0.00    +0.041 A 
ATOM     23  C   LIG    1        5.906   2.178  -1.446  0.00  0.00    +0.020 A 
ATOM     24 CL   LIG    1        8.233   1.410  -2.586  0.00  0.00    -0.084 Cl
ATOM     25  C   LIG    1        4.559   2.014  -1.133  0.00  0.00    +0.005 A 
ENDBRANCH  18  19
ENDBRANCH  17  18
ENDBRANCH   1  17
TORSDOF 7
