REMARK  Name = DB00299
REMARK                            x       y       z     vdW  Elec       q    Type
REMARK                         _______ _______ _______ _____ _____    ______ ____
ROOT
ATOM      1  N   LIG    1        3.531  -1.459   0.011  0.00  0.00    -0.316 N 
ATOM      2  C   LIG    1        4.425  -1.408  -1.033  0.00  0.00    +0.201 A 
ATOM      3  N   LIG    1        5.684  -1.357  -0.655  0.00  0.00    -0.229 NA
ATOM      4  C   LIG    1        5.639  -1.364   0.668  0.00  0.00    +0.172 A 
ATOM      5  C   LIG    1        6.765  -1.319   1.610  0.00  0.00    +0.302 A 
ATOM      6  N   LIG    1        6.363  -1.348   2.970  0.00  0.00    -0.176 NA
ATOM      7  C   LIG    1        5.134  -1.401   3.373  0.00  0.00    +0.195 A 
ATOM      8  N   LIG    1        4.023  -1.433   2.472  0.00  0.00    -0.312 N 
ATOM      9  H   LIG    1        3.102  -1.489   2.883  0.00  0.00    +0.170 HD
ATOM     10  O   LIG    1        7.931  -1.263   1.223  0.00  0.00    -0.263 OA
ATOM     11  C   LIG    1        4.326  -1.420   1.127  0.00  0.00    +0.146 A 
ENDROOT
BRANCH   7  12
ATOM     12  N   LIG    1        4.883  -1.423   4.762  0.00  0.00    -0.329 N 
ATOM     13  H   LIG    1        4.027  -1.013   5.105  0.00  0.00    +0.145 HD
ATOM     14  H   LIG    1        5.657  -1.263   5.391  0.00  0.00    +0.145 HD
ENDBRANCH   7  12
BRANCH   1  15
ATOM     15  C   LIG    1        2.078  -1.501  -0.063  0.00  0.00    +0.125 C 
BRANCH  15  16
ATOM     16  C   LIG    1        1.493  -0.074  -0.100  0.00  0.00    +0.029 C 
BRANCH  16  17
ATOM     17  C   LIG    1       -0.058  -0.010  -0.130  0.00  0.00    +0.042 C 
BRANCH  17  18
ATOM     18  C   LIG    1       -0.678  -0.713  -1.369  0.00  0.00    +0.161 C 
BRANCH  18  19
ATOM     19  O   LIG    1       -0.243  -0.122  -2.578  0.00  0.00    -0.395 OA
ATOM     20  H   LIG    1       -0.691  -0.555  -3.308  0.00  0.00    +0.209 HD
ENDBRANCH  18  19
ENDBRANCH  17  18
BRANCH  17  21
ATOM     21  C   LIG    1       -0.541   1.452   0.038  0.00  0.00    +0.161 C 
BRANCH  21  22
ATOM     22  O   LIG    1       -1.949   1.545   0.134  0.00  0.00    -0.395 OA
ATOM     23  H   LIG    1       -2.192   2.472   0.198  0.00  0.00    +0.209 HD
ENDBRANCH  21  22
ENDBRANCH  17  21
ENDBRANCH  16  17
ENDBRANCH  15  16
ENDBRANCH   1  15
TORSDOF 8
