REMARK  Name = DB00824
REMARK                            x       y       z     vdW  Elec       q    Type
REMARK                         _______ _______ _______ _____ _____    ______ ____
ROOT
ATOM      1  O   LIG    1       -0.493   1.478  -2.362  0.00  0.00    -0.246 OA
ATOM      2  C   LIG    1       -0.699   2.004  -1.268  0.00  0.00    +0.331 A 
ATOM      3  N   LIG    1       -1.179   3.288  -1.198  0.00  0.00    -0.273 N 
ATOM      4  H   LIG    1       -1.331   3.715  -2.100  0.00  0.00    +0.173 HD
ATOM      5  C   LIG    1       -1.490   4.099  -0.142  0.00  0.00    +0.280 A 
ATOM      6  C   LIG    1       -1.226   3.389   1.086  0.00  0.00    +0.149 A 
ATOM      7  C   LIG    1       -0.742   2.088   1.150  0.00  0.00    +0.168 A 
ATOM      8  N   LIG    1       -0.583   1.669   2.399  0.00  0.00    -0.218 NA
ATOM      9  C   LIG    1       -0.962   2.690   3.137  0.00  0.00    +0.199 A 
ATOM     10  N   LIG    1       -1.367   3.770   2.392  0.00  0.00    -0.339 N 
ATOM     11  H   LIG    1       -1.699   4.661   2.735  0.00  0.00    +0.167 HD
ATOM     12  O   LIG    1       -1.921   5.239  -0.292  0.00  0.00    -0.265 OA
ATOM     13  N   LIG    1       -0.489   1.407  -0.044  0.00  0.00    -0.277 N 
ENDROOT
BRANCH  13  14
ATOM     14  C   LIG    1        0.014   0.024  -0.003  0.00  0.00    +0.128 C 
BRANCH  14  15
ATOM     15  C   LIG    1        1.551  -0.066  -0.033  0.00  0.00    +0.018 C 
ATOM     16  C   LIG    1        2.053  -1.513   0.039  0.00  0.00    +0.005 C 
ENDBRANCH  14  15
ENDBRANCH  13  14
TORSDOF 2
