REMARK  Name = DB00927
REMARK                            x       y       z     vdW  Elec       q    Type
REMARK                         _______ _______ _______ _____ _____    ______ ____
ROOT
ATOM      1  C   LIG    1       -0.654   1.569  -0.087  0.00  0.00    +0.125 C 
ENDROOT
BRANCH   1   3
ATOM      2  C   LIG    1       -1.135   1.705   2.478  0.00  0.00    +0.074 A 
ATOM      3  C   LIG    1       -0.388   1.997   1.342  0.00  0.00    +0.062 A 
ATOM      4  N   LIG    1        0.689   2.734   1.556  0.00  0.00    -0.211 NA
ATOM      5  C   LIG    1        0.870   3.033   2.828  0.00  0.00    +0.272 A 
ATOM      6  S   LIG    1       -0.368   2.404   3.869  0.00  0.00    -0.038 S 
BRANCH   5   7
ATOM      7  N   LIG    1        1.856   3.768   3.427  0.00  0.00    -0.045 NA
ATOM      8  C   LIG    1        2.993   4.017   2.898  0.00  0.00    +0.384 C 
BRANCH   8   9
ATOM      9  N   LIG    1        3.962   4.784   3.577  0.00  0.00    -0.289 N 
ATOM     10  H   LIG    1        4.573   5.365   3.022  0.00  0.00    +0.255 HD
ATOM     11  H   LIG    1        3.671   5.262   4.417  0.00  0.00    +0.255 HD
ENDBRANCH   8   9
BRANCH   8  12
ATOM     12  N   LIG    1        3.467   3.613   1.625  0.00  0.00    -0.289 N 
ATOM     13  H   LIG    1        4.097   4.236   1.141  0.00  0.00    +0.255 HD
ATOM     14  H   LIG    1        2.792   3.215   0.988  0.00  0.00    +0.255 HD
ENDBRANCH   8  12
ENDBRANCH   5   7
ENDBRANCH   1   3
BRANCH   1  15
ATOM     15  S   LIG    1        0.009  -0.078  -0.497  0.00  0.00    -0.154 S 
BRANCH  15  16
ATOM     16  C   LIG    1        1.797   0.138  -0.243  0.00  0.00    +0.081 C 
BRANCH  16  17
ATOM     17  C   LIG    1        2.293  -0.302   1.157  0.00  0.00    +0.141 C 
BRANCH  17  18
ATOM     18  C   LIG    1        3.748   0.088   1.493  0.00  0.00    +0.313 C 
ATOM     19  N   LIG    1        4.166   0.251   2.687  0.00  0.00    +0.101 NA
BRANCH  19  20
ATOM     20  S   LIG    1        3.166  -0.083   4.105  0.00  0.00    +0.216 S 
ATOM     21  O   LIG    1        2.095  -1.078   3.988  0.00  0.00    -0.113 OA
ATOM     22  O   LIG    1        2.859   1.070   4.958  0.00  0.00    -0.113 OA
BRANCH  20  23
ATOM     23  N   LIG    1        4.406  -0.936   4.997  0.00  0.00    -0.168 NA
ATOM     24  H   LIG    1        4.697  -1.797   4.528  0.00  0.00    +0.148 HD
ATOM     25  H   LIG    1        5.229  -0.352   5.166  0.00  0.00    +0.148 HD
ENDBRANCH  20  23
ENDBRANCH  19  20
BRANCH  18  26
ATOM     26  N   LIG    1        4.570   0.202   0.394  0.00  0.00    -0.249 N 
ATOM     27  H   LIG    1        4.214   0.037  -0.536  0.00  0.00    +0.288 HD
ATOM     28  H   LIG    1        5.545   0.436   0.510  0.00  0.00    +0.288 HD
ENDBRANCH  18  26
ENDBRANCH  17  18
ENDBRANCH  16  17
ENDBRANCH  15  16
ENDBRANCH   1  15
TORSDOF 11
