REMARK  Name = DB00159
REMARK                            x       y       z     vdW  Elec       q    Type
REMARK                         _______ _______ _______ _____ _____    ______ ____
ROOT
ATOM      1  C   LIG    1        3.622   1.393  -2.565  0.00  0.00    -0.027 C 
ATOM      2  C   LIG    1        4.740   0.815  -3.049  0.00  0.00    -0.027 C 
ENDROOT
BRANCH   1   3
ATOM      3  C   LIG    1        2.742   0.914  -1.423  0.00  0.00    +0.053 C 
BRANCH   3   5
ATOM      4  C   LIG    1        0.191   1.058  -1.707  0.00  0.00    -0.027 C 
ATOM      5  C   LIG    1        1.375   0.443  -1.889  0.00  0.00    -0.027 C 
BRANCH   4   6
ATOM      6  C   LIG    1       -0.065   2.378  -1.002  0.00  0.00    +0.053 C 
BRANCH   6   8
ATOM      7  C   LIG    1       -2.127   2.658   0.509  0.00  0.00    -0.027 C 
ATOM      8  C   LIG    1       -0.871   2.228   0.277  0.00  0.00    -0.027 C 
BRANCH   7   9
ATOM      9  C   LIG    1       -3.051   3.379  -0.458  0.00  0.00    +0.053 C 
BRANCH   9  11
ATOM     10  C   LIG    1       -2.674   5.889  -0.910  0.00  0.00    -0.031 C 
ATOM     11  C   LIG    1       -3.157   4.868  -0.174  0.00  0.00    -0.027 C 
BRANCH  10  12
ATOM     12  C   LIG    1       -1.907   5.815  -2.220  0.00  0.00    +0.023 C 
ATOM     13  C   LIG    1       -0.430   6.204  -2.078  0.00  0.00    +0.008 C 
ENDBRANCH  10  12
ENDBRANCH   9  11
ENDBRANCH   7   9
ENDBRANCH   6   8
ENDBRANCH   4   6
ENDBRANCH   3   5
ENDBRANCH   1   3
BRANCH   2  14
ATOM     14  C   LIG    1        5.408  -0.466  -2.579  0.00  0.00    +0.053 C 
BRANCH  14  15
ATOM     15  C   LIG    1        5.348  -1.580  -3.610  0.00  0.00    -0.027 C 
ATOM     16  C   LIG    1        4.559  -2.672  -3.585  0.00  0.00    -0.031 C 
BRANCH  16  17
ATOM     17  C   LIG    1        3.514  -3.022  -2.537  0.00  0.00    +0.027 C 
BRANCH  17  18
ATOM     18  C   LIG    1        3.921  -4.168  -1.593  0.00  0.00    +0.015 C 
BRANCH  18  19
ATOM     19  C   LIG    1        5.086  -3.796  -0.649  0.00  0.00    +0.121 C 
BRANCH  19  20
ATOM     20  C   LIG    1        5.448  -4.927   0.318  0.00  0.00    +0.305 C 
ATOM     21  O   LIG    1        6.473  -5.597   0.218  0.00  0.00    -0.251 OA
BRANCH  20  22
ATOM     22  O   LIG    1        4.503  -5.083   1.290  0.00  0.00    -0.481 OA
ATOM     23  H   LIG    1        4.725  -5.787   1.902  0.00  0.00    +0.295 HD
ENDBRANCH  20  22
ENDBRANCH  19  20
ENDBRANCH  18  19
ENDBRANCH  17  18
ENDBRANCH  16  17
ENDBRANCH  14  15
ENDBRANCH   2  14
TORSDOF 14
