REMARK  Name = DB00992
REMARK                            x       y       z     vdW  Elec       q    Type
REMARK                         _______ _______ _______ _____ _____    ______ ____
ROOT
ATOM      1  C   LIG    1        0.134   0.249   0.201  0.00  0.00    +0.087 C 
ENDROOT
BRANCH   1   2
ATOM      2  C   LIG    1        0.003   1.766   0.063  0.00  0.00    +0.147 C 
ATOM      3  O   LIG    1        0.377   2.510   0.972  0.00  0.00    -0.296 OA
BRANCH   2   4
ATOM      4  C   LIG    1       -0.596   2.289  -1.252  0.00  0.00    +0.152 C 
BRANCH   4   5
ATOM      5  N   LIG    1       -0.686   3.738  -1.317  0.00  0.00    -0.324 NA
ATOM      6  H   LIG    1        0.232   4.146  -1.207  0.00  0.00    +0.119 HD
ATOM      7  H   LIG    1       -1.254   4.082  -0.555  0.00  0.00    +0.119 HD
ENDBRANCH   4   5
ENDBRANCH   2   4
ENDBRANCH   1   2
BRANCH   1   8
ATOM      8  C   LIG    1        1.399  -0.290  -0.498  0.00  0.00    +0.128 C 
BRANCH   8   9
ATOM      9  C   LIG    1        1.580  -1.808  -0.385  0.00  0.00    +0.307 C 
ATOM     10  O   LIG    1        0.776  -2.529   0.212  0.00  0.00    -0.251 OA
BRANCH   9  11
ATOM     11  O   LIG    1        2.702  -2.223  -1.007  0.00  0.00    -0.468 OA
ATOM     12  C   LIG    1        3.054  -3.599  -1.019  0.00  0.00    +0.280 C 
ENDBRANCH   9  11
ENDBRANCH   8   9
ENDBRANCH   1   8
TORSDOF 6
