REMARK  Name = DB00114
REMARK                            x       y       z     vdW  Elec       q    Type
REMARK                         _______ _______ _______ _____ _____    ______ ____
ROOT
ATOM      1  C   LIG    1        2.119  -0.838  -0.188  0.00  0.00    +0.010 A 
ATOM      2  C   LIG    1        2.281  -1.322   1.113  0.00  0.00    +0.117 A 
ATOM      3  N   LIG    1        2.445  -2.630   1.411  0.00  0.00    -0.256 NA
ATOM      4  C   LIG    1        2.454  -3.518   0.388  0.00  0.00    +0.080 A 
ATOM      5  C   LIG    1        2.639  -4.971   0.804  0.00  0.00    +0.069 C 
ATOM      6  C   LIG    1        2.294  -3.137  -0.954  0.00  0.00    +0.148 A 
ATOM      7  C   LIG    1        2.122  -1.765  -1.259  0.00  0.00    +0.064 A 
ENDROOT
BRANCH   6   8
ATOM      8  O   LIG    1        2.302  -4.112  -1.925  0.00  0.00    -0.504 OA
ATOM      9  H   LIG    1        2.183  -3.755  -2.809  0.00  0.00    +0.292 HD
ENDBRANCH   6   8
BRANCH   7  10
ATOM     10  C   LIG    1        1.941  -1.285  -2.671  0.00  0.00    +0.262 C 
ATOM     11  O   LIG    1        1.926  -1.996  -3.675  0.00  0.00    -0.296 OA
ENDBRANCH   7  10
BRANCH   1  12
ATOM     12  C   LIG    1        1.932   0.673  -0.370  0.00  0.00    +0.210 C 
BRANCH  12  13
ATOM     13  O   LIG    1        0.625   0.999  -0.829  0.00  0.00    -0.282 OA
BRANCH  13  14
ATOM     14  P   LIG    1       -0.702   0.636   0.049  0.00  0.00    +0.473 P 
ATOM     15  O   LIG    1       -0.611   0.933   1.505  0.00  0.00    -0.228 OA
BRANCH  14  16
ATOM     16  O   LIG    1       -0.987  -0.919  -0.322  0.00  0.00    -0.303 OA
ATOM     17  H   LIG    1       -1.074  -1.527   0.437  0.00  0.00    +0.222 HD
ENDBRANCH  14  16
BRANCH  14  18
ATOM     18  O   LIG    1       -1.882   1.420  -0.744  0.00  0.00    -0.303 OA
ATOM     19  H   LIG    1       -1.952   1.230  -1.699  0.00  0.00    +0.222 HD
ENDBRANCH  14  18
ENDBRANCH  13  14
ENDBRANCH  12  13
ENDBRANCH   1  12
TORSDOF 7
