REMARK  Name = DB00382
REMARK                            x       y       z     vdW  Elec       q    Type
REMARK                         _______ _______ _______ _____ _____    ______ ____
ROOT
ATOM      1  N   LIG    1        4.221   0.030  -0.015  0.00  0.00    -0.251 NA
ATOM      2  C   LIG    1        3.544   1.204  -0.029  0.00  0.00    +0.073 A 
ATOM      3  C   LIG    1        4.286   2.408  -0.094  0.00  0.00    +0.028 A 
ATOM      4  C   LIG    1        3.630   3.635  -0.102  0.00  0.00    +0.002 A 
ATOM      5  C   LIG    1        2.242   3.694  -0.048  0.00  0.00    +0.001 A 
ATOM      6  C   LIG    1        1.486   2.526   0.015  0.00  0.00    +0.012 A 
ATOM      7  C   LIG    1        2.121   1.250   0.024  0.00  0.00    +0.021 A 
ATOM      8  C   LIG    1        1.417   0.009   0.068  0.00  0.00    +0.039 A 
ATOM      9  C   LIG    1        2.132  -1.205   0.070  0.00  0.00    -0.005 A 
ATOM     10  C   LIG    1        1.410  -2.564  -0.013  0.00  0.00    +0.039 C 
ATOM     11  C   LIG    1        2.313  -3.783   0.256  0.00  0.00    +0.005 C 
ATOM     12  C   LIG    1        3.674  -3.629  -0.433  0.00  0.00    +0.006 C 
ATOM     13  C   LIG    1        4.396  -2.407   0.147  0.00  0.00    +0.056 C 
ATOM     14  C   LIG    1        3.543  -1.141   0.072  0.00  0.00    +0.047 A 
ENDROOT
BRANCH   8  15
ATOM     15  N   LIG    1        0.017  -0.017   0.085  0.00  0.00    -0.357 N 
ATOM     16  H   LIG    1       -0.463  -0.905   0.112  0.00  0.00    +0.142 HD
ATOM     17  H   LIG    1       -0.497   0.853   0.082  0.00  0.00    +0.142 HD
ENDBRANCH   8  15
TORSDOF 1
