REMARK  Name = DB00853
REMARK                            x       y       z     vdW  Elec       q    Type
REMARK                         _______ _______ _______ _____ _____    ______ ____
ROOT
ATOM      1  O   LIG    1       -0.149  -2.362   0.000  0.00  0.00    -0.244 OA
ATOM      2  C   LIG    1       -0.626  -1.225   0.000  0.00  0.00    +0.353 A 
ATOM      3  N   LIG    1        0.004  -0.005   0.000  0.00  0.00    -0.199 N 
ATOM      4  C   LIG    1        1.470   0.025   0.000  0.00  0.00    +0.179 C 
ATOM      5  N   LIG    1       -0.635   1.232   0.000  0.00  0.00    -0.060 NA
ATOM      6  N   LIG    1       -1.938   1.294   0.000  0.00  0.00    -0.110 NA
ATOM      7  C   LIG    1       -2.689   0.154   0.000  0.00  0.00    +0.197 A 
ATOM      8  C   LIG    1       -4.065  -0.119   0.000  0.00  0.00    +0.171 A 
ATOM      9  N   LIG    1       -4.248  -1.439   0.000  0.00  0.00    -0.228 NA
ATOM     10  C   LIG    1       -3.054  -1.982   0.000  0.00  0.00    +0.210 A 
ATOM     11  N   LIG    1       -2.041  -1.057   0.000  0.00  0.00    -0.232 N 
ENDROOT
BRANCH   8  12
ATOM     12  C   LIG    1       -5.123   0.874   0.000  0.00  0.00    +0.264 C 
ATOM     13  N   LIG    1       -6.373   0.394   0.000  0.00  0.00    -0.324 N 
ATOM     14  H   LIG    1       -7.158   1.028   0.000  0.00  0.00    +0.145 HD
ATOM     15  H   LIG    1       -6.537  -0.602   0.000  0.00  0.00    +0.145 HD
ATOM     16  O   LIG    1       -4.890   2.081   0.000  0.00  0.00    -0.269 OA
ENDBRANCH   8  12
TORSDOF 1
