REMARK  Name = DB00331
REMARK                            x       y       z     vdW  Elec       q    Type
REMARK                         _______ _______ _______ _____ _____    ______ ____
ROOT
ATOM      1  N   LIG    1        0.182  -0.182   0.000  0.00  0.00    -0.186 N 
ATOM      2  H   LIG    1       -0.243   0.733   0.000  0.00  0.00    +0.271 HD
ENDROOT
BRANCH   1   3
ATOM      3  C   LIG    1       -0.757  -1.260  -0.000  0.00  0.00    +0.385 C 
ATOM      4  N   LIG    1       -1.998  -1.046  -0.000  0.00  0.00    -0.129 NA
ATOM      5  H   LIG    1       -2.230  -0.063  -0.000  0.00  0.00    +0.306 HD
BRANCH   3   6
ATOM      6  N   LIG    1       -0.244  -2.579  -0.000  0.00  0.00    -0.289 N 
ATOM      7  H   LIG    1        0.748  -2.769  -0.000  0.00  0.00    +0.255 HD
ATOM      8  H   LIG    1       -0.843  -3.391  -0.000  0.00  0.00    +0.255 HD
ENDBRANCH   3   6
ENDBRANCH   1   3
BRANCH   1   9
ATOM      9  C   LIG    1        1.616  -0.157   0.000  0.00  0.00    +0.390 C 
ATOM     10  N   LIG    1        2.336  -1.200   0.000  0.00  0.00    -0.129 NA
ATOM     11  H   LIG    1        3.324  -0.992   0.000  0.00  0.00    +0.306 HD
BRANCH   9  12
ATOM     12  N   LIG    1        2.181   1.168  -0.000  0.00  0.00    -0.267 N 
ATOM     13  C   LIG    1        3.625   1.410   0.000  0.00  0.00    +0.242 C 
ATOM     14  C   LIG    1        1.401   2.409   0.000  0.00  0.00    +0.242 C 
ENDBRANCH   9  12
ENDBRANCH   1   9
TORSDOF 4
