REMARK  Name = DB00885
REMARK                            x       y       z     vdW  Elec       q    Type
REMARK                         _______ _______ _______ _____ _____    ______ ____
ROOT
ATOM      1  O   LIG    1       -4.185   2.299  -0.181  0.00  0.00    -0.266 OA
ATOM      2  C   LIG    1       -2.954   2.329  -0.074  0.00  0.00    +0.269 A 
ATOM      3  C   LIG    1       -2.213   3.600  -0.042  0.00  0.00    +0.105 A 
ATOM      4  C   LIG    1       -0.855   3.552  -0.039  0.00  0.00    +0.130 A 
ATOM      5  N   LIG    1       -0.124   2.404  -0.036  0.00  0.00    -0.236 NA
ATOM      6  C   LIG    1       -0.731   1.264  -0.013  0.00  0.00    +0.143 A 
ATOM      7  C   LIG    1        0.017  -0.004   0.010  0.00  0.00    -0.008 A 
ATOM      8  C   LIG    1        1.543  -0.015   0.006  0.00  0.00    +0.047 C 
ATOM      9  C   LIG    1       -0.653  -1.184   0.030  0.00  0.00    +0.008 A 
ATOM     10  C   LIG    1       -2.103  -1.224   0.030  0.00  0.00    +0.019 A 
ATOM     11  C   LIG    1       -2.755  -0.046   0.006  0.00  0.00    +0.096 A 
ATOM     12  N   LIG    1       -2.144   1.205  -0.016  0.00  0.00    -0.267 N 
ENDROOT
BRANCH   3  13
ATOM     13  C   LIG    1       -2.908   4.902  -0.005  0.00  0.00    +0.211 A 
ATOM     14  N   LIG    1       -2.393   6.003  -0.536  0.00  0.00    -0.108 NA
ATOM     15  N   LIG    1       -3.308   7.008  -0.304  0.00  0.00    -0.049 NA
ATOM     16  N   LIG    1       -4.287   6.397   0.357  0.00  0.00    -0.176 N 
ATOM     17  H   LIG    1       -5.116   6.879   0.676  0.00  0.00    +0.214 HD
ATOM     18  N   LIG    1       -4.080   5.095   0.570  0.00  0.00    -0.133 NA
ENDBRANCH   3  13
TORSDOF 1
