REMARK  Name = DB00730
REMARK                            x       y       z     vdW  Elec       q    Type
REMARK                         _______ _______ _______ _____ _____    ______ ____
ROOT
ATOM      1  C   LIG    1        0.016   0.073   0.000  0.00  0.00    +0.158 A 
ATOM      2  N   LIG    1       -0.755  -0.990   0.000  0.00  0.00    -0.226 NA
ATOM      3  C   LIG    1       -2.035  -0.501   0.000  0.00  0.00    +0.090 A 
ATOM      4  C   LIG    1       -3.251  -1.201   0.000  0.00  0.00    +0.030 A 
ATOM      5  C   LIG    1       -4.435  -0.461   0.000  0.00  0.00    +0.002 A 
ATOM      6  C   LIG    1       -4.419   0.934   0.000  0.00  0.00    +0.002 A 
ATOM      7  C   LIG    1       -3.225   1.661   0.000  0.00  0.00    +0.028 A 
ATOM      8  C   LIG    1       -2.042   0.916   0.000  0.00  0.00    +0.067 A 
ATOM      9  N   LIG    1       -0.707   1.248   0.000  0.00  0.00    -0.337 N 
ATOM     10  H   LIG    1       -0.279   2.162   0.000  0.00  0.00    +0.167 HD
ENDROOT
BRANCH   1  14
ATOM     11  S   LIG    1        3.939  -0.753   0.000  0.00  0.00    -0.083 S 
ATOM     12  C   LIG    1        3.483   0.914   0.000  0.00  0.00    +0.156 A 
ATOM     13  N   LIG    1        2.196   1.145   0.000  0.00  0.00    -0.244 NA
ATOM     14  C   LIG    1        1.481   0.029   0.000  0.00  0.00    +0.113 A 
ATOM     15  C   LIG    1        2.246  -1.143   0.000  0.00  0.00    +0.078 A 
ENDBRANCH   1  14
TORSDOF 1
