REMARK  Name = DB00208
REMARK                            x       y       z     vdW  Elec       q    Type
REMARK                         _______ _______ _______ _____ _____    ______ ____
ROOT
ATOM      1  N   LIG    1       -0.039  -0.049  -0.169  0.00  0.00    -0.294 NA
ATOM      2  C   LIG    1       -0.572  -0.620  -1.420  0.00  0.00    +0.120 C 
ATOM      3  C   LIG    1       -2.094  -0.540  -1.432  0.00  0.00    -0.023 A 
ATOM      4  C   LIG    1       -2.970  -1.307  -2.212  0.00  0.00    +0.013 A 
ATOM      5  C   LIG    1       -4.303  -0.977  -2.011  0.00  0.00    +0.046 A 
ATOM      6  S   LIG    1       -4.493   0.298  -0.852  0.00  0.00    -0.101 S 
ATOM      7  C   LIG    1       -2.771   0.396  -0.650  0.00  0.00    -0.005 A 
ATOM      8  C   LIG    1       -2.061   1.330   0.317  0.00  0.00    +0.058 C 
ATOM      9  C   LIG    1       -0.536   1.321   0.020  0.00  0.00    +0.090 C 
ENDROOT
BRANCH   1  10
ATOM     10  C   LIG    1        1.427  -0.076  -0.149  0.00  0.00    +0.121 C 
BRANCH  10  17
ATOM     11 CL   LIG    1        0.943  -1.603   2.540  0.00  0.00    -0.083 Cl
ATOM     12  C   LIG    1        1.815  -2.235   1.185  0.00  0.00    +0.045 A 
ATOM     13  C   LIG    1        2.356  -3.519   1.283  0.00  0.00    +0.020 A 
ATOM     14  C   LIG    1        3.079  -4.063   0.222  0.00  0.00    +0.001 A 
ATOM     15  C   LIG    1        3.269  -3.321  -0.942  0.00  0.00    +0.000 A 
ATOM     16  C   LIG    1        2.733  -2.038  -1.047  0.00  0.00    +0.006 A 
ATOM     17  C   LIG    1        1.995  -1.487   0.007  0.00  0.00    -0.015 A 
ENDBRANCH  10  17
ENDBRANCH   1  10
TORSDOF 2
