REMARK  Name = DB00933
REMARK                            x       y       z     vdW  Elec       q    Type
REMARK                         _______ _______ _______ _____ _____    ______ ____
ROOT
ATOM      1  N   LIG    1       -0.006  -0.453  -0.370  0.00  0.00    -0.298 N 
ATOM      2  C   LIG    1       -0.909  -1.513  -0.127  0.00  0.00    +0.048 A 
ATOM      3  C   LIG    1       -0.555  -2.642   0.638  0.00  0.00    +0.024 A 
ATOM      4  C   LIG    1       -1.476  -3.642   0.942  0.00  0.00    +0.002 A 
ATOM      5  C   LIG    1       -2.792  -3.528   0.513  0.00  0.00    +0.001 A 
ATOM      6  C   LIG    1       -3.185  -2.404  -0.205  0.00  0.00    +0.017 A 
ATOM      7  C   LIG    1       -2.268  -1.389  -0.493  0.00  0.00    +0.034 A 
ATOM      8  S   LIG    1       -2.833  -0.012  -1.427  0.00  0.00    -0.086 S 
ATOM      9  C   LIG    1       -1.758   1.216  -0.775  0.00  0.00    +0.034 A 
ATOM     10  C   LIG    1       -2.218   2.535  -0.737  0.00  0.00    +0.018 A 
ATOM     11  C   LIG    1       -1.408   3.554  -0.249  0.00  0.00    +0.018 A 
ATOM     12  C   LIG    1       -0.125   3.252   0.197  0.00  0.00    +0.040 A 
ATOM     13  C   LIG    1        0.345   1.942   0.141  0.00  0.00    +0.041 A 
ATOM     14  C   LIG    1       -0.437   0.894  -0.389  0.00  0.00    +0.049 A 
ENDROOT
BRANCH  12  15
ATOM     15  S   LIG    1        0.949   4.554   0.882  0.00  0.00    +0.051 S 
ATOM     16  C   LIG    1        1.828   4.912  -0.710  0.00  0.00    +0.127 C 
ATOM     17  O   LIG    1        0.047   5.757   1.170  0.00  0.00    -0.252 OA
ENDBRANCH  12  15
BRANCH   1  18
ATOM     18  C   LIG    1        1.445  -0.711  -0.247  0.00  0.00    +0.112 C 
BRANCH  18  19
ATOM     19  C   LIG    1        2.020  -0.608   1.195  0.00  0.00    +0.038 C 
BRANCH  19  20
ATOM     20  C   LIG    1        3.479  -0.077   1.251  0.00  0.00    +0.058 C 
ATOM     21  C   LIG    1        4.437  -1.059   0.512  0.00  0.00    +0.019 C 
ATOM     22  C   LIG    1        5.901  -0.595   0.502  0.00  0.00    +0.003 C 
ATOM     23  C   LIG    1        6.356  -0.250   1.921  0.00  0.00    +0.015 C 
ATOM     24  C   LIG    1        5.389   0.739   2.592  0.00  0.00    +0.084 C 
ATOM     25  N   LIG    1        4.004   0.240   2.600  0.00  0.00    -0.302 NA
ATOM     26  C   LIG    1        3.179   1.216   3.316  0.00  0.00    +0.105 C 
ENDBRANCH  19  20
ENDBRANCH  18  19
ENDBRANCH   1  18
TORSDOF 4
