REMARK  Name = DB00154
REMARK                            x       y       z     vdW  Elec       q    Type
REMARK                         _______ _______ _______ _____ _____    ______ ____
ROOT
ATOM      1  C   LIG    1       -0.749  -0.055  -0.384  0.00  0.00    -0.031 C 
ATOM      2  C   LIG    1       -0.091  -0.977   0.347  0.00  0.00    -0.027 C 
ENDROOT
BRANCH   1   3
ATOM      3  C   LIG    1       -0.265   1.335  -0.765  0.00  0.00    +0.027 C 
BRANCH   3   4
ATOM      4  C   LIG    1       -0.984   2.476  -0.022  0.00  0.00    +0.004 C 
BRANCH   4   5
ATOM      5  C   LIG    1       -0.711   2.491   1.495  0.00  0.00    +0.000 C 
BRANCH   5   6
ATOM      6  C   LIG    1       -1.406   3.656   2.221  0.00  0.00    +0.001 C 
BRANCH   6   7
ATOM      7  C   LIG    1       -1.146   3.652   3.742  0.00  0.00    +0.011 C 
BRANCH   7   8
ATOM      8  C   LIG    1       -1.781   4.843   4.509  0.00  0.00    +0.120 C 
BRANCH   8   9
ATOM      9  C   LIG    1       -3.328   4.872   4.516  0.00  0.00    +0.305 C 
ATOM     10  O   LIG    1       -3.960   3.791   4.531  0.00  0.00    -0.251 OA
BRANCH   9  11
ATOM     11  O   LIG    1       -3.869   6.001   4.550  0.00  0.00    -0.481 OA
ATOM     12  H   LIG    1       -4.097   6.435   3.751  0.00  0.00    +0.295 HD
ENDBRANCH   9  11
ENDBRANCH   8   9
ENDBRANCH   7   8
ENDBRANCH   6   7
ENDBRANCH   5   6
ENDBRANCH   4   5
ENDBRANCH   3   4
ENDBRANCH   1   3
BRANCH   2  13
ATOM     13  C   LIG    1        1.284  -0.847   0.978  0.00  0.00    +0.053 C 
BRANCH  13  14
ATOM     14  C   LIG    1        1.235  -0.789   2.495  0.00  0.00    -0.027 C 
ATOM     15  C   LIG    1        1.635  -1.730   3.373  0.00  0.00    -0.027 C 
BRANCH  15  16
ATOM     16  C   LIG    1        2.228  -3.097   3.072  0.00  0.00    +0.053 C 
BRANCH  16  17
ATOM     17  C   LIG    1        1.324  -4.242   3.498  0.00  0.00    -0.027 C 
ATOM     18  C   LIG    1        0.585  -5.036   2.701  0.00  0.00    -0.031 C 
BRANCH  18  19
ATOM     19  C   LIG    1        0.453  -4.948   1.188  0.00  0.00    +0.027 C 
BRANCH  19  20
ATOM     20  C   LIG    1        1.184  -6.064   0.422  0.00  0.00    +0.004 C 
BRANCH  20  21
ATOM     21  C   LIG    1        2.720  -5.978   0.523  0.00  0.00    +0.000 C 
BRANCH  21  22
ATOM     22  C   LIG    1        3.438  -7.084  -0.269  0.00  0.00    -0.003 C 
ATOM     23  C   LIG    1        4.967  -6.992  -0.169  0.00  0.00    +0.004 C 
ENDBRANCH  21  22
ENDBRANCH  20  21
ENDBRANCH  19  20
ENDBRANCH  18  19
ENDBRANCH  16  17
ENDBRANCH  15  16
ENDBRANCH  13  14
ENDBRANCH   2  13
TORSDOF 16
