REMARK  Name = DB00416
REMARK                            x       y       z     vdW  Elec       q    Type
REMARK                         _______ _______ _______ _____ _____    ______ ____
ROOT
ATOM      1  O   LIG    1        1.275   0.214   2.220  0.00  0.00    -0.452 OA
ATOM      2  C   LIG    1        0.319  -0.684   2.650  0.00  0.00    +0.129 A 
ATOM      3  C   LIG    1       -0.407  -0.301   3.775  0.00  0.00    +0.046 A 
ATOM      4  C   LIG    1       -1.377  -1.140   4.309  0.00  0.00    +0.007 A 
ATOM      5  C   LIG    1       -1.639  -2.377   3.715  0.00  0.00    -0.048 A 
ATOM      6  C   LIG    1       -0.937  -2.755   2.564  0.00  0.00    +0.007 A 
ATOM      7  C   LIG    1       -2.683  -3.292   4.349  0.00  0.00    +0.025 C 
ATOM      8  C   LIG    1       -2.323  -4.814   4.503  0.00  0.00    -0.030 C 
ATOM      9  C   LIG    1       -1.172  -5.133   5.500  0.00  0.00    -0.053 A 
ATOM     10  C   LIG    1        0.073  -4.504   5.352  0.00  0.00    +0.052 A 
ATOM     11  C   LIG    1        1.198  -4.844   6.106  0.00  0.00    +0.170 A 
ATOM     12  C   LIG    1        1.079  -5.796   7.117  0.00  0.00    +0.162 A 
ATOM     13  C   LIG    1       -0.154  -6.438   7.287  0.00  0.00    +0.053 A 
ATOM     14  O   LIG    1        2.442  -4.287   5.864  0.00  0.00    -0.449 OA
ATOM     15  C   LIG    1        2.835  -3.886   4.599  0.00  0.00    +0.170 A 
ATOM     16  C   LIG    1        2.693  -4.705   3.460  0.00  0.00    +0.162 A 
ATOM     17  C   LIG    1        3.164  -4.232   2.223  0.00  0.00    +0.050 A 
ATOM     18  C   LIG    1        3.808  -3.001   2.129  0.00  0.00    +0.007 A 
ATOM     19  C   LIG    1        3.979  -2.205   3.262  0.00  0.00    -0.045 A 
ATOM     20  C   LIG    1        4.816  -0.931   3.180  0.00  0.00    +0.025 C 
ATOM     21  C   LIG    1        4.119   0.327   2.569  0.00  0.00    -0.027 C 
ATOM     22  C   LIG    1        3.428   0.108   1.208  0.00  0.00    -0.011 A 
ATOM     23  C   LIG    1        4.225   0.037   0.054  0.00  0.00    -0.040 A 
ATOM     24  C   LIG    1        3.622  -0.117  -1.196  0.00  0.00    +0.053 A 
ATOM     25  C   LIG    1        2.228  -0.172  -1.333  0.00  0.00    +0.165 A 
ATOM     26  C   LIG    1        1.437  -0.065  -0.186  0.00  0.00    +0.204 A 
ATOM     27  C   LIG    1        5.735   0.151   0.202  0.00  0.00    +0.017 C 
ATOM     28  C   LIG    1        6.163   1.270   1.193  0.00  0.00    -0.070 C 
ATOM     29  N   LIG    1        5.149   1.501   2.370  0.00  0.00    +0.381 N 
ATOM     30  C   LIG    1        4.349   2.803   2.065  0.00  0.00    -0.091 C 
ATOM     31  C   LIG    1        5.951   1.778   3.671  0.00  0.00    -0.091 C 
ATOM     32  C   LIG    1        3.470  -2.646   4.487  0.00  0.00    +0.053 A 
ATOM     33  C   LIG    1       -1.261  -6.149   6.479  0.00  0.00    -0.044 A 
ATOM     34  C   LIG    1       -2.527  -6.969   6.652  0.00  0.00    +0.017 C 
ATOM     35  C   LIG    1       -3.314  -7.063   5.338  0.00  0.00    -0.070 C 
ATOM     36  N   LIG    1       -3.634  -5.641   4.803  0.00  0.00    +0.381 N 
ATOM     37  C   LIG    1       -4.578  -4.938   5.822  0.00  0.00    -0.091 C 
ATOM     38  C   LIG    1       -4.422  -5.863   3.483  0.00  0.00    -0.091 C 
ATOM     39  C   LIG    1        0.058  -1.925   2.051  0.00  0.00    +0.046 A 
ATOM     40  C   LIG    1        2.032   0.040   1.081  0.00  0.00    +0.175 A 
ENDROOT
BRANCH  12  41
ATOM     41  O   LIG    1        2.209  -6.070   7.867  0.00  0.00    -0.491 OA
ATOM     42  C   LIG    1        2.138  -7.035   8.911  0.00  0.00    +0.277 C 
ENDBRANCH  12  41
BRANCH  26  43
ATOM     43  O   LIG    1        0.069  -0.058  -0.312  0.00  0.00    -0.488 OA
ATOM     44  C   LIG    1       -0.497   1.241  -0.424  0.00  0.00    +0.277 C 
ENDBRANCH  26  43
BRANCH  25  45
ATOM     45  O   LIG    1        1.574  -0.305  -2.545  0.00  0.00    -0.491 OA
ATOM     46  C   LIG    1        2.335  -0.418  -3.743  0.00  0.00    +0.277 C 
ENDBRANCH  25  45
BRANCH  16  47
ATOM     47  O   LIG    1        2.104  -5.947   3.620  0.00  0.00    -0.491 OA
ATOM     48  C   LIG    1        1.874  -6.771   2.483  0.00  0.00    +0.277 C 
ENDBRANCH  16  47
TORSDOF 4
