REMARK  Name = DB00470
REMARK                            x       y       z     vdW  Elec       q    Type
REMARK                         _______ _______ _______ _____ _____    ______ ____
ROOT
ATOM      1  C   LIG    1       -4.425   0.028   0.086  0.00  0.00    +0.056 C 
ATOM      2  C   LIG    1       -5.152   1.119   0.883  0.00  0.00    -0.019 C 
ATOM      3  C   LIG    1       -6.388   0.978   1.417  0.00  0.00    -0.076 C 
ATOM      4  C   LIG    1       -7.156  -0.347   1.353  0.00  0.00    +0.030 C 
ATOM      5  C   LIG    1       -6.479  -1.380   0.420  0.00  0.00    +0.012 C 
ATOM      6  C   LIG    1       -7.057   2.106   2.184  0.00  0.00    +0.039 C 
ATOM      7  C   LIG    1       -4.943  -1.350   0.589  0.00  0.00    +0.044 C 
ATOM      8  C   LIG    1       -4.139  -2.528  -0.045  0.00  0.00    +0.109 C 
ATOM      9  C   LIG    1       -4.195  -2.545  -1.594  0.00  0.00    +0.055 C 
ATOM     10  C   LIG    1       -4.564  -3.875   0.577  0.00  0.00    +0.055 C 
ATOM     11  O   LIG    1       -2.780  -2.372   0.397  0.00  0.00    -0.486 OA
ATOM     12  C   LIG    1       -2.174  -1.143   0.208  0.00  0.00    +0.129 A 
ATOM     13  C   LIG    1       -0.780  -1.177   0.191  0.00  0.00    +0.049 A 
ATOM     14  C   LIG    1       -0.052  -0.004   0.009  0.00  0.00    -0.040 A 
ATOM     15  C   LIG    1       -0.733   1.199  -0.173  0.00  0.00    +0.049 A 
ATOM     16  C   LIG    1       -2.129   1.235  -0.157  0.00  0.00    +0.124 A 
ATOM     17  C   LIG    1       -2.886   0.069   0.078  0.00  0.00    +0.043 A 
ENDROOT
BRANCH  16  18
ATOM     18  O   LIG    1       -2.728   2.441  -0.414  0.00  0.00    -0.506 OA
ATOM     19  H   LIG    1       -2.094   3.144  -0.572  0.00  0.00    +0.292 HD
ENDBRANCH  16  18
BRANCH  14  20
ATOM     20  C   LIG    1        1.469  -0.032  -0.012  0.00  0.00    +0.035 C 
BRANCH  20  21
ATOM     21  C   LIG    1        2.045  -0.044  -1.440  0.00  0.00    +0.005 C 
BRANCH  21  22
ATOM     22  C   LIG    1        3.584  -0.048  -1.466  0.00  0.00    +0.000 C 
BRANCH  22  23
ATOM     23  C   LIG    1        4.158  -0.030  -2.893  0.00  0.00    -0.003 C 
ATOM     24  C   LIG    1        5.693  -0.029  -2.922  0.00  0.00    +0.004 C 
ENDBRANCH  22  23
ENDBRANCH  21  22
ENDBRANCH  20  21
ENDBRANCH  14  20
TORSDOF 5
