REMARK  Name = DB00742
REMARK                            x       y       z     vdW  Elec       q    Type
REMARK                         _______ _______ _______ _____ _____    ______ ____
ROOT
ATOM      1  C   LIG    1       -0.047   0.001   0.022  0.00  0.00    +0.176 C 
ENDROOT
BRANCH   1   2
ATOM      2  O   LIG    1       -0.596   1.307  -0.078  0.00  0.00    -0.386 OA
ATOM      3  H   LIG    1       -0.253   1.726  -0.871  0.00  0.00    +0.210 HD
ENDBRANCH   1   2
BRANCH   1   4
ATOM      4  C   LIG    1       -0.628  -0.714   1.279  0.00  0.00    +0.171 C 
BRANCH   4   5
ATOM      5  O   LIG    1       -0.059  -2.009   1.390  0.00  0.00    -0.387 OA
ATOM      6  H   LIG    1       -0.347  -2.537   0.642  0.00  0.00    +0.210 HD
ENDBRANCH   4   5
BRANCH   4   7
ATOM      7  C   LIG    1       -2.171  -0.856   1.255  0.00  0.00    +0.189 C 
BRANCH   7   8
ATOM      8  O   LIG    1       -2.671  -1.313   2.497  0.00  0.00    -0.392 OA
ATOM      9  H   LIG    1       -3.627  -1.373   2.439  0.00  0.00    +0.210 HD
ENDBRANCH   7   8
ENDBRANCH   4   7
ENDBRANCH   1   4
BRANCH   1  10
ATOM     10  C   LIG    1        1.513   0.069  -0.049  0.00  0.00    +0.176 C 
BRANCH  10  11
ATOM     11  O   LIG    1        2.028   0.658   1.134  0.00  0.00    -0.386 OA
ATOM     12  H   LIG    1        1.668   1.545   1.216  0.00  0.00    +0.210 HD
ENDBRANCH  10  11
BRANCH  10  13
ATOM     13  C   LIG    1        2.095   0.807  -1.292  0.00  0.00    +0.171 C 
BRANCH  13  14
ATOM     14  O   LIG    1        1.539   0.257  -2.476  0.00  0.00    -0.387 OA
ATOM     15  H   LIG    1        0.584   0.345  -2.439  0.00  0.00    +0.210 HD
ENDBRANCH  13  14
BRANCH  13  16
ATOM     16  C   LIG    1        3.638   0.724  -1.393  0.00  0.00    +0.189 C 
BRANCH  16  17
ATOM     17  O   LIG    1        4.140   1.597  -2.387  0.00  0.00    -0.392 OA
ATOM     18  H   LIG    1        5.093   1.495  -2.431  0.00  0.00    +0.210 HD
ENDBRANCH  16  17
ENDBRANCH  13  16
ENDBRANCH  10  13
ENDBRANCH   1  10
TORSDOF 11
