REMARK  Name = DB00361
REMARK                            x       y       z     vdW  Elec       q    Type
REMARK                         _______ _______ _______ _____ _____    ______ ____
ROOT
ATOM      1  C   LIG    1        1.526   0.023   0.105  0.00  0.00    +0.017 A 
ATOM      2  C   LIG    1        2.301  -0.616  -0.882  0.00  0.00    +0.014 A 
ATOM      3  C   LIG    1        3.693  -0.646  -0.827  0.00  0.00    -0.016 A 
ATOM      4  C   LIG    1        4.691  -1.235  -1.817  0.00  0.00    +0.037 C 
ATOM      5  C   LIG    1        5.966  -1.221  -0.917  0.00  0.00    +0.132 C 
ATOM      6  C   LIG    1        6.434  -2.623  -0.320  0.00  0.00    +0.219 C 
ATOM      7  C   LIG    1        6.164  -3.794  -1.333  0.00  0.00    +0.232 C 
ATOM      8  C   LIG    1        4.682  -3.942  -1.831  0.00  0.00    +0.045 C 
ATOM      9  C   LIG    1        4.624  -5.079  -2.877  0.00  0.00    -0.018 C 
ATOM     10  C   LIG    1        4.304  -4.898  -4.171  0.00  0.00    -0.015 C 
ATOM     11  C   LIG    1        3.993  -3.527  -4.734  0.00  0.00    +0.111 C 
ATOM     12  N   LIG    1        4.560  -2.459  -3.915  0.00  0.00    -0.294 NA
ATOM     13  C   LIG    1        4.244  -1.085  -4.232  0.00  0.00    +0.086 C 
ATOM     14  N   LIG    1        5.708  -0.074  -0.038  0.00  0.00    -0.325 N 
ATOM     15  C   LIG    1        6.790   0.220   0.897  0.00  0.00    +0.129 C 
ATOM     16  C   LIG    1        4.849  -0.318  -3.066  0.00  0.00    +0.030 C 
ATOM     17  C   LIG    1        4.240  -2.579  -2.489  0.00  0.00    +0.083 C 
ATOM     18  C   LIG    1        4.342  -0.011   0.226  0.00  0.00    +0.037 A 
ATOM     19  C   LIG    1        3.615   0.675   1.192  0.00  0.00    +0.069 A 
ATOM     20  C   LIG    1        2.210   0.688   1.158  0.00  0.00    +0.126 A 
ENDROOT
BRANCH   1  32
ATOM     21  N   LIG    1       -0.736   1.663  -3.465  0.00  0.00    -0.294 NA
ATOM     22  C   LIG    1       -1.799   0.811  -2.914  0.00  0.00    +0.122 C 
ATOM     23  C   LIG    1       -1.311  -0.530  -2.373  0.00  0.00    -0.004 A 
ATOM     24  C   LIG    1       -0.610  -0.820  -1.183  0.00  0.00    +0.043 A 
ATOM     25  N   LIG    1       -0.431  -2.191  -1.151  0.00  0.00    -0.357 N 
ATOM     26  H   LIG    1        0.045  -2.640  -0.382  0.00  0.00    +0.166 HD
ATOM     27  C   LIG    1       -0.956  -2.811  -2.256  0.00  0.00    +0.047 A 
ATOM     28  C   LIG    1       -0.994  -4.161  -2.623  0.00  0.00    +0.026 A 
ATOM     29  C   LIG    1       -1.603  -4.468  -3.840  0.00  0.00    +0.002 A 
ATOM     30  C   LIG    1       -2.152  -3.482  -4.653  0.00  0.00    +0.001 A 
ATOM     31  C   LIG    1       -2.117  -2.140  -4.277  0.00  0.00    +0.010 A 
ATOM     32  C   LIG    1       -0.045   0.054  -0.016  0.00  0.00    +0.136 C 
ATOM     33  C   LIG    1       -0.510   1.553  -0.168  0.00  0.00    +0.038 C 
ATOM     34  C   LIG    1        0.174   2.458  -1.242  0.00  0.00    +0.027 C 
ATOM     35  C   LIG    1       -0.689   3.705  -1.451  0.00  0.00    -0.022 C 
ATOM     36  C   LIG    1       -1.388   3.947  -2.582  0.00  0.00    -0.059 C 
ATOM     37  C   LIG    1       -1.513  -1.781  -3.059  0.00  0.00    +0.004 A 
ATOM     38  C   LIG    1        0.464   1.809  -2.631  0.00  0.00    +0.092 C 
ATOM     39  C   LIG    1       -1.241   3.007  -3.786  0.00  0.00    +0.115 C 
BRANCH  32  40
ATOM     40  C   LIG    1       -0.660  -0.540   1.302  0.00  0.00    +0.323 C 
ATOM     41  O   LIG    1       -0.017  -1.283   2.052  0.00  0.00    -0.249 OA
BRANCH  40  42
ATOM     42  O   LIG    1       -1.954  -0.185   1.502  0.00  0.00    -0.467 OA
ATOM     43  C   LIG    1       -2.665  -0.647   2.641  0.00  0.00    +0.280 C 
ENDBRANCH  40  42
ENDBRANCH  32  40
BRANCH  36  44
ATOM     44  C   LIG    1       -2.193   5.222  -2.778  0.00  0.00    +0.028 C 
ATOM     45  C   LIG    1       -3.710   4.990  -2.835  0.00  0.00    +0.008 C 
ENDBRANCH  36  44
ENDBRANCH   1  32
BRANCH   6  46
ATOM     46  O   LIG    1        7.844  -2.500  -0.137  0.00  0.00    -0.373 OA
ATOM     47  H   LIG    1        8.195  -3.360   0.106  0.00  0.00    +0.211 HD
ENDBRANCH   6  46
BRANCH   6  48
ATOM     48  C   LIG    1        5.923  -3.023   1.104  0.00  0.00    +0.345 C 
ATOM     49  O   LIG    1        5.030  -2.415   1.697  0.00  0.00    -0.247 OA
BRANCH  48  50
ATOM     50  O   LIG    1        6.545  -4.127   1.600  0.00  0.00    -0.466 OA
ATOM     51  C   LIG    1        6.199  -4.645   2.876  0.00  0.00    +0.280 C 
ENDBRANCH  48  50
ENDBRANCH   6  48
BRANCH   8  52
ATOM     52  C   LIG    1        3.721  -4.390  -0.680  0.00  0.00    +0.013 C 
ATOM     53  C   LIG    1        2.306  -4.860  -1.081  0.00  0.00    +0.005 C 
ENDBRANCH   8  52
BRANCH  20  54
ATOM     54  O   LIG    1        1.461   1.352   2.115  0.00  0.00    -0.495 OA
ATOM     55  C   LIG    1        2.104   2.031   3.188  0.00  0.00    +0.277 C 
ENDBRANCH  20  54
BRANCH   7  56
ATOM     56  O   LIG    1        7.023  -3.656  -2.483  0.00  0.00    -0.457 OA
BRANCH  56  57
ATOM     57  C   LIG    1        8.112  -4.434  -2.682  0.00  0.00    +0.304 C 
ATOM     58  O   LIG    1        8.528  -5.317  -1.931  0.00  0.00    -0.251 OA
ATOM     59  C   LIG    1        8.821  -4.103  -3.989  0.00  0.00    +0.136 C 
ENDBRANCH  56  57
ENDBRANCH   7  56
TORSDOF 11
