REMARK  Name = DB00662
REMARK                            x       y       z     vdW  Elec       q    Type
REMARK                         _______ _______ _______ _____ _____    ______ ____
ROOT
ATOM      1  N   LIG    1       -0.051  -0.445  -0.323  0.00  0.00    -0.307 N 
ATOM      2  H   LIG    1       -0.535  -1.144  -0.867  0.00  0.00    +0.149 HD
ATOM      3  C   LIG    1       -0.787   0.452   0.363  0.00  0.00    +0.245 C 
ATOM      4  O   LIG    1       -0.278   1.323   1.073  0.00  0.00    -0.270 OA
ENDROOT
BRANCH   3   5
ATOM      5  C   LIG    1       -2.293   0.362   0.204  0.00  0.00    +0.044 A 
ATOM      6  C   LIG    1       -2.907  -0.730  -0.428  0.00  0.00    +0.062 A 
ATOM      7  C   LIG    1       -4.302  -0.803  -0.570  0.00  0.00    +0.166 A 
ATOM      8  C   LIG    1       -5.089   0.242  -0.072  0.00  0.00    +0.204 A 
ATOM      9  C   LIG    1       -4.506   1.339   0.575  0.00  0.00    +0.166 A 
ATOM     10  C   LIG    1       -3.110   1.386   0.703  0.00  0.00    +0.062 A 
BRANCH   9  11
ATOM     11  O   LIG    1       -5.361   2.318   1.049  0.00  0.00    -0.491 OA
ATOM     12  C   LIG    1       -4.823   3.455   1.716  0.00  0.00    +0.277 C 
ENDBRANCH   9  11
BRANCH   8  13
ATOM     13  O   LIG    1       -6.457   0.177  -0.196  0.00  0.00    -0.488 OA
ATOM     14  C   LIG    1       -6.958   0.761  -1.391  0.00  0.00    +0.277 C 
ENDBRANCH   8  13
BRANCH   7  15
ATOM     15  O   LIG    1       -4.964  -1.855  -1.180  0.00  0.00    -0.491 OA
ATOM     16  C   LIG    1       -4.215  -2.944  -1.709  0.00  0.00    +0.277 C 
ENDBRANCH   7  15
ENDBRANCH   3   5
BRANCH   1  17
ATOM     17  C   LIG    1        1.408  -0.553  -0.286  0.00  0.00    +0.139 C 
BRANCH  17  21
ATOM     18  C   LIG    1        3.035  -2.003   3.448  0.00  0.00    +0.121 A 
ATOM     19  C   LIG    1        2.298  -2.860   2.615  0.00  0.00    +0.046 A 
ATOM     20  C   LIG    1        1.770  -2.389   1.416  0.00  0.00    +0.009 A 
ATOM     21  C   LIG    1        1.965  -1.058   1.040  0.00  0.00    -0.030 A 
ATOM     22  C   LIG    1        2.704  -0.205   1.861  0.00  0.00    +0.009 A 
ATOM     23  C   LIG    1        3.232  -0.678   3.059  0.00  0.00    +0.046 A 
BRANCH  18  24
ATOM     24  O   LIG    1        3.597  -2.381   4.652  0.00  0.00    -0.491 OA
BRANCH  24  25
ATOM     25  C   LIG    1        3.420  -3.717   5.121  0.00  0.00    +0.244 C 
BRANCH  25  26
ATOM     26  C   LIG    1        4.117  -3.893   6.486  0.00  0.00    +0.124 C 
BRANCH  26  27
ATOM     27  N   LIG    1        3.658  -2.954   7.517  0.00  0.00    -0.305 NA
ATOM     28  C   LIG    1        2.256  -3.157   7.876  0.00  0.00    +0.104 C 
ATOM     29  C   LIG    1        4.486  -3.089   8.712  0.00  0.00    +0.104 C 
ENDBRANCH  26  27
ENDBRANCH  25  26
ENDBRANCH  24  25
ENDBRANCH  18  24
ENDBRANCH  17  21
ENDBRANCH   1  17
TORSDOF 10
