REMARK  Name = DB00363
REMARK                            x       y       z     vdW  Elec       q    Type
REMARK                         _______ _______ _______ _____ _____    ______ ____
ROOT
ATOM      1  C   LIG    1       -0.053   0.277  -0.214  0.00  0.00    +0.323 C 
ATOM      2  C   LIG    1       -0.490  -1.145  -0.085  0.00  0.00    +0.087 A 
ATOM      3  C   LIG    1        0.447  -2.103   0.357  0.00  0.00    +0.018 A 
ATOM      4  C   LIG    1        0.150  -3.461   0.388  0.00  0.00    +0.001 A 
ATOM      5  C   LIG    1       -1.103  -3.898  -0.012  0.00  0.00    +0.002 A 
ATOM      6  C   LIG    1       -2.063  -2.966  -0.391  0.00  0.00    +0.024 A 
ATOM      7  C   LIG    1       -1.797  -1.591  -0.387  0.00  0.00    +0.046 A 
ATOM      8  N   LIG    1       -2.849  -0.701  -0.627  0.00  0.00    -0.310 N 
ATOM      9  H   LIG    1       -3.690  -1.182  -0.912  0.00  0.00    +0.152 HD
ATOM     10  C   LIG    1       -3.117   0.597  -0.176  0.00  0.00    +0.083 A 
ATOM     11  C   LIG    1       -4.455   1.005  -0.094  0.00  0.00    +0.029 A 
ATOM     12  C   LIG    1       -4.812   2.252   0.404  0.00  0.00    +0.022 A 
ATOM     13  C   LIG    1       -3.822   3.128   0.821  0.00  0.00    +0.045 A 
ATOM     14 CL   LIG    1       -4.241   4.685   1.437  0.00  0.00    -0.083 Cl
ATOM     15  C   LIG    1       -2.487   2.750   0.720  0.00  0.00    +0.077 A 
ATOM     16  C   LIG    1       -2.092   1.495   0.231  0.00  0.00    +0.199 A 
ATOM     17  N   LIG    1       -0.708   1.344   0.038  0.00  0.00    -0.040 NA
ENDROOT
BRANCH   1  18
ATOM     18  N   LIG    1        1.269   0.464  -0.662  0.00  0.00    -0.218 N 
ATOM     19  C   LIG    1        2.099   1.626  -0.283  0.00  0.00    +0.241 C 
ATOM     20  C   LIG    1        3.568   1.223  -0.021  0.00  0.00    +0.128 C 
ATOM     21  N   LIG    1        4.130   0.539  -1.184  0.00  0.00    -0.298 NA
ATOM     22  C   LIG    1        5.529   0.200  -0.943  0.00  0.00    +0.105 C 
ATOM     23  C   LIG    1        3.359  -0.671  -1.465  0.00  0.00    +0.128 C 
ATOM     24  C   LIG    1        1.883  -0.320  -1.756  0.00  0.00    +0.241 C 
ENDBRANCH   1  18
TORSDOF 1
