REMARK  Name = DB00647
REMARK                            x       y       z     vdW  Elec       q    Type
REMARK                         _______ _______ _______ _____ _____    ______ ____
ROOT
ATOM      1  C   LIG    1       -0.006  -0.255   0.073  0.00  0.00    +0.146 C 
ENDROOT
BRANCH   1   5
ATOM      2  C   LIG    1       -1.458  -2.455   3.554  0.00  0.00    +0.000 A 
ATOM      3  C   LIG    1       -1.279  -1.079   3.632  0.00  0.00    +0.000 A 
ATOM      4  C   LIG    1       -0.816  -0.380   2.521  0.00  0.00    +0.007 A 
ATOM      5  C   LIG    1       -0.526  -1.045   1.317  0.00  0.00    -0.004 A 
ATOM      6  C   LIG    1       -0.710  -2.436   1.265  0.00  0.00    +0.007 A 
ATOM      7  C   LIG    1       -1.174  -3.137   2.375  0.00  0.00    +0.000 A 
ENDBRANCH   1   5
BRANCH   1   8
ATOM      8  C   LIG    1        1.567  -0.111   0.155  0.00  0.00    +0.049 C 
ATOM      9  C   LIG    1        2.315  -1.469   0.102  0.00  0.00    +0.013 C 
BRANCH   8  10
ATOM     10  C   LIG    1        2.046   0.803   1.332  0.00  0.00    +0.091 C 
BRANCH  10  11
ATOM     11  N   LIG    1        3.502   1.011   1.390  0.00  0.00    -0.308 NA
ATOM     12  C   LIG    1        3.818   2.379   1.793  0.00  0.00    +0.104 C 
ATOM     13  C   LIG    1        4.140   0.099   2.340  0.00  0.00    +0.104 C 
ENDBRANCH  10  11
ENDBRANCH   8  10
ENDBRANCH   1   8
BRANCH   1  14
ATOM     14  O   LIG    1       -0.498   1.111   0.064  0.00  0.00    -0.453 OA
BRANCH  14  15
ATOM     15  C   LIG    1       -1.811   1.490   0.094  0.00  0.00    +0.308 C 
ATOM     16  O   LIG    1       -2.783   0.735   0.151  0.00  0.00    -0.251 OA
BRANCH  15  17
ATOM     17  C   LIG    1       -1.954   3.016   0.040  0.00  0.00    +0.117 C 
ATOM     18  C   LIG    1       -3.405   3.524   0.108  0.00  0.00    +0.015 C 
ENDBRANCH  15  17
ENDBRANCH  14  15
ENDBRANCH   1  14
BRANCH   1  19
ATOM     19  C   LIG    1       -0.458  -0.917  -1.292  0.00  0.00    +0.088 C 
BRANCH  19  20
ATOM     20  C   LIG    1       -0.146  -0.138  -2.574  0.00  0.00    -0.043 A 
ATOM     21  C   LIG    1        1.091  -0.294  -3.208  0.00  0.00    +0.004 A 
ATOM     22  C   LIG    1        1.374   0.411  -4.374  0.00  0.00    +0.000 A 
ATOM     23  C   LIG    1        0.415   1.264  -4.914  0.00  0.00    +0.000 A 
ATOM     24  C   LIG    1       -0.827   1.412  -4.302  0.00  0.00    +0.000 A 
ATOM     25  C   LIG    1       -1.109   0.707  -3.136  0.00  0.00    +0.004 A 
ENDBRANCH  19  20
ENDBRANCH   1  19
TORSDOF 9
