REMARK  Name = DB00215
REMARK                            x       y       z     vdW  Elec       q    Type
REMARK                         _______ _______ _______ _____ _____    ______ ____
ROOT
ATOM      1  C   LIG    1       -0.634   1.447   0.028  0.00  0.00    +0.120 C 
ATOM      2  C   LIG    1       -0.116   2.259   1.206  0.00  0.00    -0.006 A 
ATOM      3  C   LIG    1       -0.110   1.995   2.578  0.00  0.00    +0.008 A 
ATOM      4  C   LIG    1        0.446   2.924   3.460  0.00  0.00    +0.019 A 
ATOM      5  C   LIG    1        1.001   4.113   2.972  0.00  0.00    +0.052 A 
ATOM      6  C   LIG    1        1.003   4.366   1.596  0.00  0.00    +0.025 A 
ATOM      7  C   LIG    1        0.451   3.426   0.724  0.00  0.00    -0.014 A 
ATOM      8  C   LIG    1        0.339   3.423  -0.774  0.00  0.00    +0.197 C 
ATOM      9  O   LIG    1       -0.121   2.123  -1.127  0.00  0.00    -0.360 OA
ENDROOT
BRANCH   1  14
ATOM     10  F   LIG    1       -6.317   1.173  -0.020  0.00  0.00    -0.205 F 
ATOM     11  C   LIG    1       -4.966   1.241  -0.009  0.00  0.00    +0.123 A 
ATOM     12  C   LIG    1       -4.301   1.926  -1.022  0.00  0.00    +0.039 A 
ATOM     13  C   LIG    1       -2.910   1.996  -1.012  0.00  0.00    +0.009 A 
ATOM     14  C   LIG    1       -2.175   1.385   0.014  0.00  0.00    -0.011 A 
ATOM     15  C   LIG    1       -2.861   0.695   1.024  0.00  0.00    +0.009 A 
ATOM     16  C   LIG    1       -4.251   0.625   1.014  0.00  0.00    +0.039 A 
ENDBRANCH   1  14
BRANCH   5  17
ATOM     17  C   LIG    1        1.581   5.080   3.893  0.00  0.00    +0.099 C 
ATOM     18  N   LIG    1        2.042   5.848   4.624  0.00  0.00    -0.191 NA
ENDBRANCH   5  17
BRANCH   1  19
ATOM     19  C   LIG    1       -0.025   0.018  -0.062  0.00  0.00    +0.046 C 
BRANCH  19  20
ATOM     20  C   LIG    1        1.519  -0.044  -0.107  0.00  0.00    +0.019 C 
BRANCH  20  21
ATOM     21  C   LIG    1        2.058  -1.490  -0.148  0.00  0.00    +0.084 C 
BRANCH  21  22
ATOM     22  N   LIG    1        3.482  -1.565  -0.489  0.00  0.00    -0.308 NA
ATOM     23  C   LIG    1        3.869  -2.960  -0.678  0.00  0.00    +0.104 C 
ATOM     24  C   LIG    1        4.332  -0.965   0.538  0.00  0.00    +0.104 C 
ENDBRANCH  21  22
ENDBRANCH  20  21
ENDBRANCH  19  20
ENDBRANCH   1  19
TORSDOF 6
