REMARK  Name = DB00782
REMARK                            x       y       z     vdW  Elec       q    Type
REMARK                         _______ _______ _______ _____ _____    ______ ____
ROOT
ATOM      1  C   LIG    1        3.844  -3.155  -2.156  0.00  0.00    +0.164 C 
ATOM      2  C   LIG    1        5.313  -2.749  -2.003  0.00  0.00    +0.013 A 
ATOM      3  C   LIG    1        5.736  -1.415  -2.014  0.00  0.00    +0.008 A 
ATOM      4  C   LIG    1        7.090  -1.091  -1.912  0.00  0.00    +0.001 A 
ATOM      5  C   LIG    1        8.045  -2.103  -1.809  0.00  0.00    +0.004 A 
ATOM      6  C   LIG    1        7.647  -3.439  -1.804  0.00  0.00    +0.046 A 
ATOM      7  C   LIG    1        6.291  -3.753  -1.888  0.00  0.00    +0.133 A 
ATOM      8  O   LIG    1        5.951  -5.090  -1.907  0.00  0.00    -0.455 OA
ATOM      9  C   LIG    1        4.800  -5.467  -2.566  0.00  0.00    +0.133 A 
ATOM     10  C   LIG    1        4.765  -6.749  -3.114  0.00  0.00    +0.046 A 
ATOM     11  C   LIG    1        3.632  -7.169  -3.810  0.00  0.00    +0.004 A 
ATOM     12  C   LIG    1        2.549  -6.303  -3.965  0.00  0.00    +0.001 A 
ATOM     13  C   LIG    1        2.599  -5.015  -3.430  0.00  0.00    +0.008 A 
ATOM     14  C   LIG    1        3.724  -4.575  -2.723  0.00  0.00    +0.013 A 
ENDROOT
BRANCH   1  15
ATOM     15  C   LIG    1        3.171  -3.071  -0.769  0.00  0.00    +0.319 C 
ATOM     16  O   LIG    1        3.102  -4.033   0.001  0.00  0.00    -0.250 OA
BRANCH  15  17
ATOM     17  O   LIG    1        2.684  -1.837  -0.528  0.00  0.00    -0.466 OA
BRANCH  17  18
ATOM     18  C   LIG    1        2.020  -1.535   0.693  0.00  0.00    +0.214 C 
BRANCH  18  19
ATOM     19  C   LIG    1        1.417  -0.110   0.622  0.00  0.00    -0.033 C 
BRANCH  19  20
ATOM     20  N   LIG    1       -0.087  -0.042   0.173  0.00  0.00    +0.383 N 
ATOM     21  C   LIG    1       -0.900  -0.836   1.246  0.00  0.00    -0.091 C 
BRANCH  20  22
ATOM     22  C   LIG    1       -0.320  -0.787  -1.208  0.00  0.00    -0.072 C 
ATOM     23  C   LIG    1       -1.814  -0.943  -1.599  0.00  0.00    -0.013 C 
ATOM     24  C   LIG    1        0.490  -0.216  -2.394  0.00  0.00    -0.013 C 
ENDBRANCH  20  22
BRANCH  20  25
ATOM     25  C   LIG    1       -0.576   1.472   0.159  0.00  0.00    -0.072 C 
ATOM     26  C   LIG    1       -0.970   2.011   1.563  0.00  0.00    -0.013 C 
ATOM     27  C   LIG    1        0.428   2.470  -0.478  0.00  0.00    -0.013 C 
ENDBRANCH  20  25
ENDBRANCH  19  20
ENDBRANCH  18  19
ENDBRANCH  17  18
ENDBRANCH  15  17
ENDBRANCH   1  15
TORSDOF 7
