REMARK  Name = DB00725
REMARK                            x       y       z     vdW  Elec       q    Type
REMARK                         _______ _______ _______ _____ _____    ______ ____
ROOT
ATOM      1  O   LIG    1        0.015   0.246   0.096  0.00  0.00    -0.459 OA
ENDROOT
BRANCH   1   2
ATOM      2  C   LIG    1        1.420  -0.008   0.124  0.00  0.00    +0.174 C 
ATOM      3  C   LIG    1        1.723  -0.807   1.430  0.00  0.00    +0.030 C 
ATOM      4  C   LIG    1        1.791  -2.353   1.263  0.00  0.00    -0.062 C 
ATOM      5  C   LIG    1        0.445  -2.927   0.765  0.00  0.00    -0.016 C 
ATOM      6  C   LIG    1        0.528  -2.885  -0.768  0.00  0.00    -0.016 C 
ATOM      7  C   LIG    1        1.920  -2.294  -1.087  0.00  0.00    -0.062 C 
ATOM      8  N   LIG    1        2.787  -2.726   0.129  0.00  0.00    +0.380 N 
ATOM      9  C   LIG    1        3.095  -4.251   0.106  0.00  0.00    -0.092 C 
ATOM     10  C   LIG    1        4.179  -2.039   0.223  0.00  0.00    -0.092 C 
ATOM     11  C   LIG    1        1.871  -0.742  -1.182  0.00  0.00    +0.030 C 
ENDBRANCH   1   2
BRANCH   1  12
ATOM     12  C   LIG    1       -0.516   1.296  -0.590  0.00  0.00    +0.341 C 
ATOM     13  O   LIG    1        0.142   2.105  -1.249  0.00  0.00    -0.248 OA
BRANCH  12  14
ATOM     14  C   LIG    1       -2.062   1.412  -0.512  0.00  0.00    +0.253 C 
BRANCH  14  15
ATOM     15  C   LIG    1       -2.486   2.848  -0.193  0.00  0.00    -0.008 A 
ATOM     16  C   LIG    1       -2.107   3.464   1.007  0.00  0.00    +0.007 A 
ATOM     17  C   LIG    1       -2.512   4.768   1.281  0.00  0.00    +0.000 A 
ATOM     18  C   LIG    1       -3.300   5.453   0.359  0.00  0.00    +0.000 A 
ATOM     19  C   LIG    1       -3.689   4.846  -0.833  0.00  0.00    +0.000 A 
ATOM     20  C   LIG    1       -3.284   3.543  -1.108  0.00  0.00    +0.007 A 
ENDBRANCH  14  15
BRANCH  14  21
ATOM     21  O   LIG    1       -2.601   0.479   0.414  0.00  0.00    -0.376 OA
ATOM     22  H   LIG    1       -3.538   0.373   0.229  0.00  0.00    +0.211 HD
ENDBRANCH  14  21
ENDBRANCH  12  14
ENDBRANCH   1  12
TORSDOF 5
