REMARK  Name = DB00641
REMARK                            x       y       z     vdW  Elec       q    Type
REMARK                         _______ _______ _______ _____ _____    ______ ____
ROOT
ATOM      1  C   LIG    1       -0.171  -0.179  -0.231  0.00  0.00    +0.185 C 
ATOM      2  C   LIG    1       -0.423  -1.232  -1.325  0.00  0.00    +0.052 C 
ATOM      3  C   LIG    1       -1.945  -1.429  -1.532  0.00  0.00    +0.012 C 
ATOM      4  C   LIG    1       -2.252  -2.634  -2.437  0.00  0.00    +0.012 C 
ATOM      5  C   LIG    1       -2.650  -1.578  -0.183  0.00  0.00    -0.020 C 
ATOM      6  C   LIG    1       -2.104  -1.276   1.017  0.00  0.00    -0.044 C 
ATOM      7  C   LIG    1       -2.769  -1.675   2.244  0.00  0.00    -0.000 C 
ATOM      8  C   LIG    1       -2.092  -1.858   3.392  0.00  0.00    -0.023 C 
ATOM      9  C   LIG    1       -0.570  -1.708   3.514  0.00  0.00    +0.012 C 
ATOM     10  C   LIG    1       -0.274  -0.508   4.441  0.00  0.00    +0.012 C 
ATOM     11  C   LIG    1        0.105  -1.619   2.089  0.00  0.00    +0.007 C 
ATOM     12  C   LIG    1       -0.707  -0.641   1.161  0.00  0.00    +0.063 C 
ENDROOT
BRANCH  11  13
ATOM     13  C   LIG    1        1.636  -1.379   2.139  0.00  0.00    +0.008 C 
BRANCH  13  14
ATOM     14  C   LIG    1        2.442  -2.329   3.054  0.00  0.00    +0.045 C 
BRANCH  14  15
ATOM     15  C   LIG    1        3.974  -2.212   2.896  0.00  0.00    +0.179 C 
ATOM     16  C   LIG    1        4.569  -0.852   3.361  0.00  0.00    +0.076 C 
ATOM     17  C   LIG    1        5.968  -0.573   2.766  0.00  0.00    +0.129 C 
ATOM     18  C   LIG    1        6.646  -1.852   2.246  0.00  0.00    +0.152 C 
ATOM     19  C   LIG    1        5.724  -2.566   1.246  0.00  0.00    +0.310 C 
ATOM     20  O   LIG    1        6.042  -3.024   0.152  0.00  0.00    -0.251 OA
ATOM     21  O   LIG    1        4.406  -2.653   1.598  0.00  0.00    -0.461 OA
BRANCH  17  22
ATOM     22  O   LIG    1        6.805   0.091   3.690  0.00  0.00    -0.391 OA
ATOM     23  H   LIG    1        6.944  -0.485   4.445  0.00  0.00    +0.210 HD
ENDBRANCH  17  22
ENDBRANCH  14  15
ENDBRANCH  13  14
ENDBRANCH  11  13
BRANCH   1  24
ATOM     24  O   LIG    1        1.176   0.292  -0.183  0.00  0.00    -0.460 OA
BRANCH  24  25
ATOM     25  C   LIG    1        1.665   1.207  -1.059  0.00  0.00    +0.313 C 
ATOM     26  O   LIG    1        1.012   1.739  -1.961  0.00  0.00    -0.250 OA
BRANCH  25  27
ATOM     27  C   LIG    1        3.167   1.530  -0.810  0.00  0.00    +0.062 C 
ATOM     28  C   LIG    1        3.285   2.293   0.534  0.00  0.00    +0.022 C 
ATOM     29  C   LIG    1        3.719   2.458  -1.929  0.00  0.00    +0.022 C 
BRANCH  27  30
ATOM     30  C   LIG    1        4.034   0.232  -0.737  0.00  0.00    +0.014 C 
ATOM     31  C   LIG    1        3.927  -0.748  -1.923  0.00  0.00    +0.005 C 
ENDBRANCH  27  30
ENDBRANCH  25  27
ENDBRANCH  24  25
ENDBRANCH   1  24
TORSDOF 8
