REMARK  Name = DB00370
REMARK                            x       y       z     vdW  Elec       q    Type
REMARK                         _______ _______ _______ _____ _____    ______ ____
ROOT
ATOM      1  N   LIG    1       -2.686   0.600   0.883  0.00  0.00    -0.305 N 
ATOM      2  C   LIG    1       -3.936   0.812   1.476  0.00  0.00    +0.125 A 
ATOM      3  C   LIG    1       -4.293   2.064   2.017  0.00  0.00    -0.003 A 
ATOM      4  C   LIG    1       -5.571   2.208   2.573  0.00  0.00    +0.009 A 
ATOM      5  C   LIG    1       -6.456   1.132   2.590  0.00  0.00    +0.020 A 
ATOM      6  C   LIG    1       -6.029  -0.080   2.057  0.00  0.00    +0.113 A 
ATOM      7  C   LIG    1       -3.274   3.190   2.065  0.00  0.00    +0.074 C 
ATOM      8  C   LIG    1       -3.047   3.749   0.676  0.00  0.00    -0.038 A 
ATOM      9  C   LIG    1       -3.429   5.061   0.369  0.00  0.00    +0.004 A 
ATOM     10  C   LIG    1       -3.237   5.584  -0.906  0.00  0.00    +0.000 A 
ATOM     11  C   LIG    1       -2.654   4.797  -1.892  0.00  0.00    +0.000 A 
ATOM     12  C   LIG    1       -2.266   3.493  -1.595  0.00  0.00    +0.006 A 
ATOM     13  C   LIG    1       -2.454   2.942  -0.319  0.00  0.00    -0.022 A 
ATOM     14  N   LIG    1       -4.798  -0.247   1.517  0.00  0.00    -0.240 NA
ATOM     15  C   LIG    1       -2.156  -0.767   0.696  0.00  0.00    +0.122 C 
ATOM     16  C   LIG    1       -0.632  -0.796   0.972  0.00  0.00    +0.103 C 
ATOM     17  N   LIG    1        0.077   0.124   0.080  0.00  0.00    -0.302 NA
ATOM     18  C   LIG    1        1.510   0.090   0.354  0.00  0.00    +0.105 C 
ATOM     19  C   LIG    1       -0.446   1.482   0.260  0.00  0.00    +0.111 C 
ATOM     20  C   LIG    1       -1.966   1.504  -0.052  0.00  0.00    +0.119 C 
ENDROOT
TORSDOF 0
