REMARK  Name = DB00491
REMARK                            x       y       z     vdW  Elec       q    Type
REMARK                         _______ _______ _______ _____ _____    ______ ____
ROOT
ATOM      1  C   LIG    1       -2.071   1.454   0.007  0.00  0.00    +0.165 C 
ATOM      2  C   LIG    1       -2.651   0.564  -1.121  0.00  0.00    +0.174 C 
ATOM      3  C   LIG    1       -1.971  -0.818  -1.132  0.00  0.00    +0.159 C 
ATOM      4  C   LIG    1       -0.442  -0.661  -1.186  0.00  0.00    +0.119 C 
ATOM      5  N   LIG    1        0.071   0.138  -0.066  0.00  0.00    -0.290 NA
ATOM      6  C   LIG    1       -0.506   1.501   0.043  0.00  0.00    +0.113 C 
ENDROOT
BRANCH   1   7
ATOM      7  O   LIG    1       -2.617   2.761  -0.096  0.00  0.00    -0.388 OA
ATOM      8  H   LIG    1       -2.485   3.076  -0.994  0.00  0.00    +0.210 HD
ENDBRANCH   1   7
BRANCH   3   9
ATOM      9  O   LIG    1       -2.412  -1.629  -2.205  0.00  0.00    -0.388 OA
ATOM     10  H   LIG    1       -2.070  -2.517  -2.078  0.00  0.00    +0.210 HD
ENDBRANCH   3   9
BRANCH   2  11
ATOM     11  O   LIG    1       -4.063   0.449  -1.027  0.00  0.00    -0.387 OA
ATOM     12  H   LIG    1       -4.280   0.024  -0.194  0.00  0.00    +0.210 HD
ENDBRANCH   2  11
BRANCH   5  13
ATOM     13  C   LIG    1        1.542   0.072  -0.073  0.00  0.00    +0.112 C 
BRANCH  13  14
ATOM     14  C   LIG    1        2.081  -0.831   1.053  0.00  0.00    +0.171 C 
BRANCH  14  15
ATOM     15  O   LIG    1        1.782  -2.194   0.827  0.00  0.00    -0.394 OA
ATOM     16  H   LIG    1        2.139  -2.709   1.554  0.00  0.00    +0.209 HD
ENDBRANCH  14  15
ENDBRANCH  13  14
ENDBRANCH   5  13
BRANCH   6  17
ATOM     17  C   LIG    1       -0.020   2.316   1.283  0.00  0.00    +0.177 C 
BRANCH  17  18
ATOM     18  O   LIG    1        1.047   3.184   0.957  0.00  0.00    -0.393 OA
ATOM     19  H   LIG    1        1.291   3.676   1.744  0.00  0.00    +0.209 HD
ENDBRANCH  17  18
ENDBRANCH   6  17
TORSDOF 8
