REMARK  Name = DB00736
REMARK                            x       y       z     vdW  Elec       q    Type
REMARK                         _______ _______ _______ _____ _____    ______ ____
ROOT
ATOM      1  S   LIG    1        2.623  -0.090  -0.866  0.00  0.00    +0.095 S 
ATOM      2  O   LIG    1        4.028   0.361  -0.460  0.00  0.00    -0.249 OA
ENDROOT
BRANCH   1   3
ATOM      3  C   LIG    1        1.873   1.380  -1.678  0.00  0.00    +0.198 A 
ATOM      4  N   LIG    1        0.857   1.382  -2.503  0.00  0.00    -0.220 NA
ATOM      5  C   LIG    1        0.627   2.708  -2.758  0.00  0.00    +0.093 A 
ATOM      6  C   LIG    1       -0.353   3.293  -3.571  0.00  0.00    +0.075 A 
ATOM      7  C   LIG    1       -0.395   4.695  -3.675  0.00  0.00    +0.122 A 
ATOM      8  C   LIG    1        0.532   5.473  -2.975  0.00  0.00    +0.048 A 
ATOM      9  C   LIG    1        1.520   4.924  -2.155  0.00  0.00    +0.031 A 
ATOM     10  C   LIG    1        1.546   3.531  -2.061  0.00  0.00    +0.067 A 
ATOM     11  N   LIG    1        2.334   2.638  -1.373  0.00  0.00    -0.331 N 
ATOM     12  H   LIG    1        3.106   2.815  -0.746  0.00  0.00    +0.168 HD
BRANCH   7  13
ATOM     13  O   LIG    1       -1.314   5.385  -4.443  0.00  0.00    -0.495 OA
ATOM     14  C   LIG    1       -2.295   4.658  -5.175  0.00  0.00    +0.277 C 
ENDBRANCH   7  13
ENDBRANCH   1   3
BRANCH   1  15
ATOM     15  C   LIG    1        1.600  -0.084   0.691  0.00  0.00    +0.167 C 
BRANCH  15  18
ATOM     16  C   LIG    1       -1.724   1.495   0.475  0.00  0.00    +0.118 A 
ATOM     17  N   LIG    1       -0.414   1.268   0.727  0.00  0.00    -0.258 NA
ATOM     18  C   LIG    1        0.104   0.053   0.408  0.00  0.00    +0.060 A 
ATOM     19  C   LIG    1       -0.669  -0.976  -0.164  0.00  0.00    +0.014 A 
ATOM     20  C   LIG    1       -0.068  -2.341  -0.484  0.00  0.00    +0.049 C 
ATOM     21  C   LIG    1       -2.025  -0.711  -0.433  0.00  0.00    +0.129 A 
ATOM     22  C   LIG    1       -2.565   0.543  -0.103  0.00  0.00    +0.010 A 
ATOM     23  C   LIG    1       -4.030   0.866  -0.347  0.00  0.00    +0.049 C 
BRANCH  21  24
ATOM     24  O   LIG    1       -2.830  -1.668  -1.002  0.00  0.00    -0.494 OA
ATOM     25  C   LIG    1       -2.792  -1.687  -2.424  0.00  0.00    +0.277 C 
ENDBRANCH  21  24
ENDBRANCH  15  18
ENDBRANCH   1  15
TORSDOF 5
