REMARK  Name = DB00285
REMARK                            x       y       z     vdW  Elec       q    Type
REMARK                         _______ _______ _______ _____ _____    ______ ____
ROOT
ATOM      1  C   LIG    1        0.120   0.090   0.193  0.00  0.00    +0.065 C 
ENDROOT
BRANCH   1   2
ATOM      2  C   LIG    1       -0.490  -0.765   1.375  0.00  0.00    +0.074 C 
ATOM      3  C   LIG    1       -2.045  -0.861   1.333  0.00  0.00    +0.035 C 
ATOM      4  C   LIG    1       -2.545  -1.581   0.057  0.00  0.00    +0.003 C 
ATOM      5  C   LIG    1       -1.927  -2.993  -0.077  0.00  0.00    +0.000 C 
ATOM      6  C   LIG    1       -0.395  -3.015   0.133  0.00  0.00    +0.003 C 
ATOM      7  C   LIG    1        0.007  -2.242   1.410  0.00  0.00    +0.035 C 
BRANCH   2   8
ATOM      8  O   LIG    1       -0.126  -0.163   2.606  0.00  0.00    -0.388 OA
ATOM      9  H   LIG    1       -0.520  -0.670   3.320  0.00  0.00    +0.210 HD
ENDBRANCH   2   8
ENDBRANCH   1   2
BRANCH   1  10
ATOM     10  C   LIG    1       -0.471   1.513   0.115  0.00  0.00    -0.040 A 
ATOM     11  C   LIG    1       -0.086   2.502   1.026  0.00  0.00    +0.007 A 
ATOM     12  C   LIG    1       -0.634   3.779   0.954  0.00  0.00    +0.046 A 
ATOM     13  C   LIG    1       -1.577   4.088  -0.038  0.00  0.00    +0.120 A 
ATOM     14  C   LIG    1       -1.949   3.104  -0.953  0.00  0.00    +0.046 A 
ATOM     15  C   LIG    1       -1.401   1.827  -0.881  0.00  0.00    +0.007 A 
BRANCH  13  16
ATOM     16  O   LIG    1       -2.180   5.323  -0.183  0.00  0.00    -0.495 OA
ATOM     17  C   LIG    1       -1.861   6.363   0.736  0.00  0.00    +0.277 C 
ENDBRANCH  13  16
ENDBRANCH   1  10
BRANCH   1  18
ATOM     18  C   LIG    1        1.683   0.091   0.192  0.00  0.00    +0.094 C 
BRANCH  18  19
ATOM     19  N   LIG    1        2.308   0.963  -0.812  0.00  0.00    -0.308 NA
ATOM     20  C   LIG    1        2.051   0.508  -2.177  0.00  0.00    +0.104 C 
ATOM     21  C   LIG    1        3.749   1.025  -0.588  0.00  0.00    +0.104 C 
ENDBRANCH  18  19
ENDBRANCH   1  18
TORSDOF 6
