REMARK  Name = DB00397
REMARK                            x       y       z     vdW  Elec       q    Type
REMARK                         _______ _______ _______ _____ _____    ______ ____
ROOT
ATOM      1  C   LIG    1       -0.030   0.085   0.094  0.00  0.00    +0.161 C 
ENDROOT
BRANCH   1   2
ATOM      2  C   LIG    1       -0.559  -0.671   1.318  0.00  0.00    -0.018 A 
ATOM      3  C   LIG    1       -0.857  -0.002   2.512  0.00  0.00    +0.006 A 
ATOM      4  C   LIG    1       -1.325  -0.714   3.614  0.00  0.00    +0.000 A 
ATOM      5  C   LIG    1       -1.492  -2.094   3.524  0.00  0.00    +0.000 A 
ATOM      6  C   LIG    1       -1.193  -2.769   2.344  0.00  0.00    +0.000 A 
ATOM      7  C   LIG    1       -0.723  -2.058   1.243  0.00  0.00    +0.006 A 
ENDBRANCH   1   2
BRANCH   1   8
ATOM      8  O   LIG    1       -0.538   1.407  -0.018  0.00  0.00    -0.386 OA
ATOM      9  H   LIG    1       -1.491   1.358  -0.123  0.00  0.00    +0.210 HD
ENDBRANCH   1   8
BRANCH   1  10
ATOM     10  C   LIG    1        1.523   0.071  -0.008  0.00  0.00    +0.081 C 
ATOM     11  C   LIG    1        2.070   0.679  -1.313  0.00  0.00    +0.026 C 
BRANCH  10  12
ATOM     12  N   LIG    1        2.151   0.732   1.127  0.00  0.00    -0.325 NA
ATOM     13  H   LIG    1        1.848   1.696   1.159  0.00  0.00    +0.119 HD
ATOM     14  H   LIG    1        3.152   0.751   0.997  0.00  0.00    +0.119 HD
ENDBRANCH  10  12
ENDBRANCH   1  10
TORSDOF 4
