REMARK  Name = DB00434
REMARK                            x       y       z     vdW  Elec       q    Type
REMARK                         _______ _______ _______ _____ _____    ______ ____
ROOT
ATOM      1  N   LIG    1        0.048   0.040   0.084  0.00  0.00    -0.305 NA
ATOM      2  C   LIG    1        1.496   0.117   0.237  0.00  0.00    +0.104 C 
ATOM      3  C   LIG    1       -0.552  -0.772   1.150  0.00  0.00    +0.088 C 
ATOM      4  C   LIG    1       -2.092  -0.840   1.050  0.00  0.00    +0.047 C 
ATOM      5  C   LIG    1       -2.666   0.581   1.053  0.00  0.00    -0.059 C 
ATOM      6  C   LIG    1       -3.572   1.073   1.949  0.00  0.00    -0.010 C 
ATOM      7  C   LIG    1       -4.067   0.260   3.092  0.00  0.00    -0.010 A 
ATOM      8  C   LIG    1       -3.152  -0.255   4.023  0.00  0.00    +0.009 A 
ATOM      9  C   LIG    1       -3.575  -1.057   5.079  0.00  0.00    +0.001 A 
ATOM     10  C   LIG    1       -4.927  -1.352   5.225  0.00  0.00    +0.001 A 
ATOM     11  C   LIG    1       -5.852  -0.831   4.324  0.00  0.00    +0.008 A 
ATOM     12  C   LIG    1       -5.440  -0.015   3.263  0.00  0.00    -0.017 A 
ATOM     13  C   LIG    1       -6.481   0.550   2.381  0.00  0.00    +0.009 C 
ATOM     14  C   LIG    1       -6.478   1.730   1.736  0.00  0.00    +0.009 C 
ATOM     15  C   LIG    1       -5.433   2.773   1.739  0.00  0.00    -0.017 A 
ATOM     16  C   LIG    1       -5.839   4.108   1.624  0.00  0.00    +0.008 A 
ATOM     17  C   LIG    1       -4.911   5.144   1.675  0.00  0.00    +0.001 A 
ATOM     18  C   LIG    1       -3.561   4.858   1.849  0.00  0.00    +0.001 A 
ATOM     19  C   LIG    1       -3.142   3.534   1.955  0.00  0.00    +0.009 A 
ATOM     20  C   LIG    1       -4.061   2.476   1.882  0.00  0.00    -0.010 A 
ATOM     21  C   LIG    1       -2.083   1.344  -0.141  0.00  0.00    +0.047 C 
ATOM     22  C   LIG    1       -0.542   1.380  -0.025  0.00  0.00    +0.088 C 
ENDROOT
TORSDOF 0
