REMARK  Name = DB00347
REMARK                            x       y       z     vdW  Elec       q    Type
REMARK                         _______ _______ _______ _____ _____    ______ ____
ROOT
ATOM      1  O   LIG    1       -2.059  -0.770   0.000  0.00  0.00    -0.434 OA
ATOM      2  C   LIG    1       -0.741  -1.123   0.000  0.00  0.00    +0.410 C 
ATOM      3  N   LIG    1        0.009  -0.001   0.000  0.00  0.00    -0.207 N 
ATOM      4  C   LIG    1        1.472   0.011   0.000  0.00  0.00    +0.144 C 
ATOM      5  C   LIG    1       -0.738   1.119   0.000  0.00  0.00    +0.268 C 
ATOM      6  O   LIG    1       -0.363   2.293   0.000  0.00  0.00    -0.271 OA
ATOM      7  O   LIG    1       -0.383  -2.300   0.000  0.00  0.00    -0.226 OA
ATOM      8  C   LIG    1       -2.182   0.628   0.000  0.00  0.00    +0.185 C 
ATOM      9  C   LIG    1       -2.896   1.082   1.293  0.00  0.00    +0.066 C 
ATOM     10  C   LIG    1       -2.896   1.082  -1.293  0.00  0.00    +0.066 C 
ENDROOT
TORSDOF 0
