REMARK  Name = DB00790
REMARK                            x       y       z     vdW  Elec       q    Type
REMARK                         _______ _______ _______ _____ _____    ______ ____
ROOT
ATOM      1  N   LIG    1       -0.913   2.503   1.635  0.00  0.00    -0.283 N 
ATOM      2  C   LIG    1       -1.248   1.352   0.991  0.00  0.00    +0.233 C 
ATOM      3  O   LIG    1       -1.884   0.441   1.529  0.00  0.00    -0.274 OA
ATOM      4  CA  LIG    1       -1.248   2.703   3.061  0.00  0.00    +0.185 C 
ATOM      5  C   LIG    1       -0.014   3.392   3.676  0.00  0.00    +0.039 C 
ATOM      6  C   LIG    1        1.081   3.338   2.605  0.00  0.00    +0.012 C 
ATOM      7  C   LIG    1        2.108   4.497   2.724  0.00  0.00    +0.005 C 
ATOM      8  C   LIG    1        1.686   5.834   2.091  0.00  0.00    +0.000 C 
ATOM      9  C   LIG    1        1.129   5.650   0.677  0.00  0.00    +0.002 C 
ATOM     10  C   LIG    1       -0.065   4.687   0.683  0.00  0.00    +0.023 C 
ATOM     11  C   LIG    1        0.270   3.299   1.285  0.00  0.00    +0.080 C 
ENDROOT
BRANCH   2  12
ATOM     12  CA  LIG    1       -0.856   1.172  -0.502  0.00  0.00    +0.138 C 
ATOM     13  CB  LIG    1       -2.118   1.177  -1.385  0.00  0.00    +0.034 C 
BRANCH  12  14
ATOM     14  N   LIG    1       -0.077  -0.082  -0.660  0.00  0.00    -0.294 NA
ATOM     15  H   LIG    1       -0.153  -0.393  -1.618  0.00  0.00    +0.123 HD
BRANCH  14  16
ATOM     16  C   LIG    1        1.354   0.012  -0.281  0.00  0.00    +0.164 C 
BRANCH  16  17
ATOM     17  C   LIG    1        2.136  -0.773  -1.319  0.00  0.00    +0.324 C 
ATOM     18  O   LIG    1        2.490  -1.946  -1.168  0.00  0.00    -0.249 OA
BRANCH  17  19
ATOM     19  O   LIG    1        2.378  -0.023  -2.420  0.00  0.00    -0.464 OA
BRANCH  19  20
ATOM     20  C   LIG    1        3.100  -0.559  -3.521  0.00  0.00    +0.229 C 
ATOM     21  C   LIG    1        3.263   0.519  -4.596  0.00  0.00    +0.048 C 
ENDBRANCH  19  20
ENDBRANCH  17  19
ENDBRANCH  16  17
BRANCH  16  22
ATOM     22  C   LIG    1        1.658  -0.452   1.171  0.00  0.00    +0.030 C 
BRANCH  22  23
ATOM     23  C   LIG    1        3.088  -0.124   1.649  0.00  0.00    -0.001 C 
ATOM     24  C   LIG    1        3.306  -0.446   3.134  0.00  0.00    +0.004 C 
ENDBRANCH  22  23
ENDBRANCH  16  22
ENDBRANCH  14  16
ENDBRANCH  12  14
ENDBRANCH   2  12
BRANCH   4  25
ATOM     25  C   LIG    1       -2.557   3.501   3.260  0.00  0.00    +0.325 C 
ATOM     26  OXT LIG    1       -3.214   3.985   2.361  0.00  0.00    -0.249 OA
BRANCH  25  27
ATOM     27  O   LIG    1       -2.869   3.558   4.587  0.00  0.00    -0.479 OA
ATOM     28  H   LIG    1       -3.684   4.039   4.749  0.00  0.00    +0.295 HD
ENDBRANCH  25  27
ENDBRANCH   4  25
TORSDOF 10
