REMARK  Name = DB00209
REMARK                            x       y       z     vdW  Elec       q    Type
REMARK                         _______ _______ _______ _____ _____    ______ ____
ROOT
ATOM      1  C   LIG    1        0.071   0.043   0.164  0.00  0.00    +0.349 C 
ATOM      2  O   LIG    1       -0.542   0.967   0.709  0.00  0.00    -0.247 OA
ENDROOT
BRANCH   1   3
ATOM      3  O   LIG    1       -0.523  -1.063  -0.365  0.00  0.00    -0.459 OA
BRANCH   3  13
ATOM      4  N   LIG    1       -3.316  -3.944   0.107  0.00  0.00    +0.384 N 
ATOM      5  C   LIG    1       -3.718  -5.428   0.333  0.00  0.00    -0.074 C 
ATOM      6  C   LIG    1       -4.915  -5.677  -0.591  0.00  0.00    -0.020 C 
ATOM      7  C   LIG    1       -5.534  -4.306  -0.853  0.00  0.00    -0.020 C 
ATOM      8  C   LIG    1       -4.740  -3.330   0.016  0.00  0.00    -0.074 C 
ATOM      9  C   LIG    1       -2.394  -3.362   1.209  0.00  0.00    -0.062 C 
ATOM     10  C   LIG    1       -1.032  -4.021   0.913  0.00  0.00    -0.016 C 
ATOM     11  C   LIG    1       -1.014  -4.253  -0.604  0.00  0.00    -0.016 C 
ATOM     12  C   LIG    1       -2.355  -1.812   1.089  0.00  0.00    +0.030 C 
ATOM     13  C   LIG    1       -1.936  -1.263  -0.312  0.00  0.00    +0.174 C 
ATOM     14  C   LIG    1       -2.312  -2.218  -1.484  0.00  0.00    +0.030 C 
ATOM     15  C   LIG    1       -2.374  -3.727  -1.112  0.00  0.00    -0.062 C 
ENDBRANCH   3  13
ENDBRANCH   1   3
BRANCH   1  16
ATOM     16  C   LIG    1        1.632   0.026   0.012  0.00  0.00    +0.213 C 
BRANCH  16  17
ATOM     17  C   LIG    1        2.083   0.170  -1.473  0.00  0.00    -0.001 A 
ATOM     18  C   LIG    1        3.462   0.148  -1.736  0.00  0.00    +0.007 A 
ATOM     19  C   LIG    1        3.949   0.270  -3.033  0.00  0.00    +0.000 A 
ATOM     20  C   LIG    1        3.060   0.427  -4.090  0.00  0.00    +0.000 A 
ATOM     21  C   LIG    1        1.689   0.469  -3.858  0.00  0.00    +0.000 A 
ATOM     22  C   LIG    1        1.202   0.345  -2.559  0.00  0.00    +0.007 A 
ENDBRANCH  16  17
BRANCH  16  23
ATOM     23  C   LIG    1        2.100  -1.292   0.689  0.00  0.00    -0.001 A 
ATOM     24  C   LIG    1        2.249  -1.364   2.084  0.00  0.00    +0.007 A 
ATOM     25  C   LIG    1        2.647  -2.549   2.696  0.00  0.00    +0.000 A 
ATOM     26  C   LIG    1        2.893  -3.678   1.921  0.00  0.00    +0.000 A 
ATOM     27  C   LIG    1        2.739  -3.633   0.538  0.00  0.00    +0.000 A 
ATOM     28  C   LIG    1        2.340  -2.447  -0.073  0.00  0.00    +0.007 A 
ENDBRANCH  16  23
BRANCH  16  29
ATOM     29  O   LIG    1        2.120   1.161   0.723  0.00  0.00    -0.370 OA
ATOM     30  H   LIG    1        3.079   1.154   0.685  0.00  0.00    +0.212 HD
ENDBRANCH  16  29
ENDBRANCH   1  16
TORSDOF 6
