REMARK  Name = DB00166
REMARK                            x       y       z     vdW  Elec       q    Type
REMARK                         _______ _______ _______ _____ _____    ______ ____
ROOT
ATOM      1  C   LIG    1        0.034  -0.024   0.046  0.00  0.00    +0.002 C 
ENDROOT
BRANCH   1   2
ATOM      2  C   LIG    1       -0.534   1.407   0.144  0.00  0.00    +0.015 C 
BRANCH   2   7
ATOM      3  C   LIG    1       -2.643   2.907   0.041  0.00  0.00    +0.026 C 
ATOM      4  C   LIG    1       -4.018   3.003   0.729  0.00  0.00    +0.082 C 
ATOM      5  S   LIG    1       -4.636   1.340   1.076  0.00  0.00    -0.093 S 
ATOM      6  S   LIG    1       -2.780   0.740   1.641  0.00  0.00    -0.090 S 
ATOM      7  C   LIG    1       -2.077   1.474   0.141  0.00  0.00    +0.058 C 
ENDBRANCH   2   7
ENDBRANCH   1   2
BRANCH   1   8
ATOM      8  C   LIG    1        1.572  -0.062   0.033  0.00  0.00    +0.011 C 
BRANCH   8   9
ATOM      9  C   LIG    1        2.124  -1.497  -0.082  0.00  0.00    +0.120 C 
BRANCH   9  10
ATOM     10  C   LIG    1        3.655  -1.542  -0.075  0.00  0.00    +0.305 C 
ATOM     11  O   LIG    1        4.328  -1.747  -1.083  0.00  0.00    -0.251 OA
BRANCH  10  12
ATOM     12  O   LIG    1        4.162  -1.333   1.174  0.00  0.00    -0.481 OA
ATOM     13  H   LIG    1        5.121  -1.362   1.187  0.00  0.00    +0.295 HD
ENDBRANCH  10  12
ENDBRANCH   9  10
ENDBRANCH   8   9
ENDBRANCH   1   8
TORSDOF 6
