REMARK  Name = DB00348
REMARK                            x       y       z     vdW  Elec       q    Type
REMARK                         _______ _______ _______ _____ _____    ______ ____
ROOT
ATOM      1  C   LIG    1        4.400  -0.169  -0.084  0.00  0.00    +0.057 A 
ATOM      2  C   LIG    1        3.910   0.659   0.928  0.00  0.00    +0.013 A 
ATOM      3  C   LIG    1        2.557   0.982   0.982  0.00  0.00    +0.014 A 
ATOM      4  C   LIG    1        1.655   0.472   0.038  0.00  0.00    +0.049 A 
ATOM      5  C   LIG    1        2.150  -0.328  -1.020  0.00  0.00    +0.133 A 
ATOM      6  C   LIG    1        3.514  -0.651  -1.052  0.00  0.00    +0.045 A 
ENDROOT
BRANCH   1   8
ATOM      7  F   LIG    1        6.209  -1.208   0.970  0.00  0.00    -0.166 F 
ATOM      8  C   LIG    1        5.888  -0.513  -0.122  0.00  0.00    +0.417 C 
ATOM      9  F   LIG    1        6.219  -1.239  -1.191  0.00  0.00    -0.166 F 
ATOM     10  F   LIG    1        6.610   0.608  -0.141  0.00  0.00    -0.166 F 
ENDBRANCH   1   8
BRANCH   5  11
ATOM     11  N   LIG    1        1.297  -0.821  -2.121  0.00  0.00    +0.007 N 
ATOM     12  O   LIG    1        0.595  -0.013  -2.721  0.00  0.00    -0.130 OA
BRANCH  11  13
ATOM     13  O   LIG    1        1.350  -2.016  -2.393  0.00  0.00    -0.396 OA
ATOM     14  H   LIG    1        0.822  -2.363  -3.086  0.00  0.00    +0.329 HD
ENDBRANCH  11  13
ENDBRANCH   5  11
BRANCH   4  15
ATOM     15  C   LIG    1        0.216   0.867   0.173  0.00  0.00    +0.183 C 
ATOM     16  O   LIG    1       -0.120   2.010   0.495  0.00  0.00    -0.291 OA
BRANCH  15  17
ATOM     17  C   LIG    1       -0.810  -0.301   0.246  0.00  0.00    +0.192 C 
ATOM     18  C   LIG    1       -0.924  -0.893   1.677  0.00  0.00    +0.151 C 
ATOM     19  C   LIG    1       -1.967  -2.011   1.811  0.00  0.00    +0.076 C 
ATOM     20  C   LIG    1       -3.327  -1.582   1.224  0.00  0.00    +0.015 C 
ATOM     21  C   LIG    1       -3.238  -1.079  -0.231  0.00  0.00    +0.076 C 
ATOM     22  O   LIG    1       -0.240  -0.539   2.639  0.00  0.00    -0.296 OA
ATOM     23  C   LIG    1       -2.192   0.035  -0.382  0.00  0.00    +0.151 C 
ATOM     24  O   LIG    1       -2.453   1.075  -0.988  0.00  0.00    -0.296 OA
ENDBRANCH  15  17
ENDBRANCH   4  15
TORSDOF 5
