REMARK  Name = DB00131
REMARK                            x       y       z     vdW  Elec       q    Type
REMARK                         _______ _______ _______ _____ _____    ______ ____
ROOT
ATOM      1  C   LIG    1        0.048  -0.520  -0.470  0.00  0.00    +0.178 C 
ATOM      2  C   LIG    1       -0.313  -0.730  -1.943  0.00  0.00    +0.178 C 
ATOM      3  C   LIG    1       -1.839  -0.814  -1.931  0.00  0.00    +0.195 C 
ATOM      4  C   LIG    1       -2.149   0.213  -0.835  0.00  0.00    +0.253 C 
ATOM      5  O   LIG    1       -1.057   0.219   0.034  0.00  0.00    -0.346 OA
ENDROOT
BRANCH   4   6
ATOM      6  N   LIG    1       -2.450   1.636  -1.272  0.00  0.00    -0.286 N 
ATOM      7  C   LIG    1       -2.194   2.252  -2.446  0.00  0.00    +0.203 A 
ATOM      8  N   LIG    1       -2.517   3.521  -2.463  0.00  0.00    -0.231 NA
ATOM      9  C   LIG    1       -2.968   3.764  -1.223  0.00  0.00    +0.147 A 
ATOM     10  C   LIG    1       -3.441   4.948  -0.610  0.00  0.00    +0.147 A 
ATOM     11  N   LIG    1       -3.823   4.890   0.695  0.00  0.00    -0.219 NA
ATOM     12  C   LIG    1       -3.727   3.710   1.325  0.00  0.00    +0.225 A 
ATOM     13  N   LIG    1       -3.300   2.528   0.853  0.00  0.00    -0.216 NA
ATOM     14  C   LIG    1       -2.931   2.617  -0.449  0.00  0.00    +0.167 A 
BRANCH  10  15
ATOM     15  N   LIG    1       -3.529   6.168  -1.278  0.00  0.00    -0.341 N 
ATOM     16  H   LIG    1       -3.873   6.979  -0.784  0.00  0.00    +0.144 HD
ATOM     17  H   LIG    1       -3.247   6.225  -2.246  0.00  0.00    +0.144 HD
ENDBRANCH  10  15
ENDBRANCH   4   6
BRANCH   3  18
ATOM     18  O   LIG    1       -2.364  -2.078  -1.554  0.00  0.00    -0.385 OA
ATOM     19  H   LIG    1       -2.205  -2.702  -2.265  0.00  0.00    +0.210 HD
ENDBRANCH   3  18
BRANCH   2  20
ATOM     20  O   LIG    1        0.325  -1.855  -2.521  0.00  0.00    -0.386 OA
ATOM     21  H   LIG    1        0.087  -1.900  -3.450  0.00  0.00    +0.210 HD
ENDBRANCH   2  20
BRANCH   1  22
ATOM     22  C   LIG    1        1.336   0.287  -0.230  0.00  0.00    +0.206 C 
BRANCH  22  23
ATOM     23  O   LIG    1        1.481   0.550   1.157  0.00  0.00    -0.284 OA
BRANCH  23  24
ATOM     24  P   LIG    1        1.431   2.081   1.718  0.00  0.00    +0.472 P 
ATOM     25  O   LIG    1        2.514   2.976   1.227  0.00  0.00    -0.228 OA
BRANCH  24  26
ATOM     26  O   LIG    1        1.381   1.879   3.327  0.00  0.00    -0.303 OA
ATOM     27  H   LIG    1        2.065   2.357   3.835  0.00  0.00    +0.222 HD
ENDBRANCH  24  26
BRANCH  24  28
ATOM     28  O   LIG    1       -0.079   2.562   1.361  0.00  0.00    -0.303 OA
ATOM     29  H   LIG    1       -0.797   1.965   1.649  0.00  0.00    +0.222 HD
ENDBRANCH  24  28
ENDBRANCH  23  24
ENDBRANCH  22  23
ENDBRANCH   1  22
TORSDOF 9
