REMARK  Name = DB00747
REMARK                            x       y       z     vdW  Elec       q    Type
REMARK                         _______ _______ _______ _____ _____    ______ ____
ROOT
ATOM      1  C   LIG    1       -0.071   0.089  -0.303  0.00  0.00    +0.317 C 
ATOM      2  O   LIG    1       -0.771   1.096  -0.169  0.00  0.00    -0.250 OA
ENDROOT
BRANCH   1   3
ATOM      3  O   LIG    1       -0.524  -1.171  -0.489  0.00  0.00    -0.461 OA
BRANCH   3   9
ATOM      4  C   LIG    1       -2.104  -4.079  -0.579  0.00  0.00    +0.092 C 
ATOM      5  N   LIG    1       -3.102  -3.994   0.487  0.00  0.00    -0.294 NA
ATOM      6  C   LIG    1       -4.492  -3.735   0.115  0.00  0.00    +0.105 C 
ATOM      7  C   LIG    1       -2.461  -3.089   1.440  0.00  0.00    +0.092 C 
ATOM      8  C   LIG    1       -2.496  -1.629   0.901  0.00  0.00    +0.066 C 
ATOM      9  C   LIG    1       -1.920  -1.468  -0.546  0.00  0.00    +0.180 C 
ATOM     10  C   LIG    1       -1.008  -3.618   1.512  0.00  0.00    +0.166 C 
ATOM     11  O   LIG    1       -0.841  -5.015   1.387  0.00  0.00    -0.365 OA
ATOM     12  C   LIG    1       -2.088  -2.760  -1.406  0.00  0.00    +0.066 C 
ATOM     13  C   LIG    1       -0.775  -4.266   0.192  0.00  0.00    +0.166 C 
ENDBRANCH   3   9
ENDBRANCH   1   3
BRANCH   1  14
ATOM     14  C   LIG    1        1.468   0.147  -0.244  0.00  0.00    +0.153 C 
BRANCH  14  15
ATOM     15  C   LIG    1        1.987   0.352  -1.673  0.00  0.00    -0.032 A 
ATOM     16  C   LIG    1        2.209  -0.771  -2.479  0.00  0.00    +0.004 A 
ATOM     17  C   LIG    1        2.672  -0.619  -3.783  0.00  0.00    +0.000 A 
ATOM     18  C   LIG    1        2.914   0.657  -4.285  0.00  0.00    +0.000 A 
ATOM     19  C   LIG    1        2.693   1.783  -3.496  0.00  0.00    +0.000 A 
ATOM     20  C   LIG    1        2.228   1.632  -2.192  0.00  0.00    +0.004 A 
ENDBRANCH  14  15
BRANCH  14  21
ATOM     21  C   LIG    1        2.010   1.176   0.784  0.00  0.00    +0.175 C 
BRANCH  21  22
ATOM     22  O   LIG    1        1.698   0.791   2.110  0.00  0.00    -0.394 OA
ATOM     23  H   LIG    1        2.046   1.454   2.711  0.00  0.00    +0.209 HD
ENDBRANCH  21  22
ENDBRANCH  14  21
ENDBRANCH   1  14
TORSDOF 6
