REMARK  Name = DB00694
REMARK                            x       y       z     vdW  Elec       q    Type
REMARK                         _______ _______ _______ _____ _____    ______ ____
ROOT
ATOM      1  C   LIG    1        1.350  -0.180  -0.053  0.00  0.00    +0.158 C 
ATOM      2  C   LIG    1        1.767  -1.663  -0.172  0.00  0.00    +0.030 A 
ATOM      3  C   LIG    1        1.563  -2.348  -1.382  0.00  0.00    +0.134 A 
ATOM      4  C   LIG    1        1.825  -3.731  -1.520  0.00  0.00    +0.078 A 
ATOM      5  C   LIG    1        1.613  -4.450  -2.843  0.00  0.00    +0.202 C 
ATOM      6  C   LIG    1        2.374  -5.740  -3.040  0.00  0.00    +0.075 A 
ATOM      7  C   LIG    1        2.648  -6.255  -4.333  0.00  0.00    +0.132 A 
ATOM      8  C   LIG    1        3.343  -7.471  -4.454  0.00  0.00    +0.046 A 
ATOM      9  C   LIG    1        3.772  -8.165  -3.332  0.00  0.00    +0.004 A 
ATOM     10  C   LIG    1        3.519  -7.656  -2.067  0.00  0.00    +0.012 A 
ATOM     11  C   LIG    1        2.826  -6.449  -1.901  0.00  0.00    +0.037 A 
ATOM     12  C   LIG    1        2.593  -5.932  -0.512  0.00  0.00    +0.198 C 
ATOM     13  O   LIG    1        2.784  -6.659   0.467  0.00  0.00    -0.286 OA
ATOM     14  O   LIG    1        0.963  -3.948  -3.763  0.00  0.00    -0.286 OA
ATOM     15  C   LIG    1        2.300  -4.448  -0.393  0.00  0.00    +0.078 A 
ATOM     16  C   LIG    1        2.509  -3.753   0.820  0.00  0.00    +0.132 A 
ATOM     17  C   LIG    1        2.241  -2.381   0.948  0.00  0.00    +0.007 A 
ATOM     18  C   LIG    1        2.522  -1.657   2.283  0.00  0.00    +0.082 C 
ATOM     19  C   LIG    1        1.694  -0.366   2.485  0.00  0.00    +0.130 C 
ATOM     20  C   LIG    1        1.895   0.502   1.224  0.00  0.00    +0.079 C 
ENDROOT
BRANCH  19  21
ATOM     21  C   LIG    1        2.217   0.372   3.752  0.00  0.00    +0.162 C 
ATOM     22  C   LIG    1        1.450   0.254   5.072  0.00  0.00    +0.089 C 
ATOM     23  O   LIG    1        3.246   1.047   3.713  0.00  0.00    -0.295 OA
ENDBRANCH  19  21
BRANCH   7  24
ATOM     24  O   LIG    1        2.233  -5.541  -5.447  0.00  0.00    -0.494 OA
ATOM     25  C   LIG    1        2.503  -6.027  -6.758  0.00  0.00    +0.277 C 
ENDBRANCH   7  24
BRANCH  16  26
ATOM     26  O   LIG    1        3.017  -4.398   1.926  0.00  0.00    -0.506 OA
ATOM     27  H   LIG    1        3.119  -3.817   2.683  0.00  0.00    +0.292 HD
ENDBRANCH  16  26
BRANCH   3  28
ATOM     28  O   LIG    1        1.095  -1.607  -2.445  0.00  0.00    -0.506 OA
ATOM     29  H   LIG    1        0.934  -0.689  -2.218  0.00  0.00    +0.292 HD
ENDBRANCH   3  28
BRANCH  19  30
ATOM     30  O   LIG    1        0.329  -0.693   2.695  0.00  0.00    -0.381 OA
ATOM     31  H   LIG    1       -0.181   0.121   2.695  0.00  0.00    +0.211 HD
ENDBRANCH  19  30
BRANCH   1  32
ATOM     32  O   LIG    1       -0.073  -0.103  -0.186  0.00  0.00    -0.343 OA
BRANCH  32  33
ATOM     33  C   LIG    1       -0.627   1.167  -0.396  0.00  0.00    +0.253 C 
ATOM     34  C   LIG    1       -1.750   1.041  -1.439  0.00  0.00    +0.082 C 
ATOM     35  C   LIG    1       -3.002   0.340  -0.879  0.00  0.00    +0.087 C 
ATOM     36  C   LIG    1       -3.431   0.999   0.447  0.00  0.00    +0.160 C 
ATOM     37  C   LIG    1       -2.218   1.054   1.403  0.00  0.00    +0.148 C 
ATOM     38  C   LIG    1       -2.522   1.703   2.764  0.00  0.00    +0.041 C 
ATOM     39  O   LIG    1       -1.101   1.728   0.807  0.00  0.00    -0.346 OA
BRANCH  35  40
ATOM     40  N   LIG    1       -4.064   0.219  -1.863  0.00  0.00    -0.325 NA
ATOM     41  H   LIG    1       -4.837  -0.301  -1.473  0.00  0.00    +0.119 HD
ATOM     42  H   LIG    1       -3.735  -0.304  -2.662  0.00  0.00    +0.119 HD
ENDBRANCH  35  40
BRANCH  36  43
ATOM     43  O   LIG    1       -4.024   2.276   0.261  0.00  0.00    -0.388 OA
ATOM     44  H   LIG    1       -3.417   2.819  -0.247  0.00  0.00    +0.210 HD
ENDBRANCH  36  43
ENDBRANCH  32  33
ENDBRANCH   1  32
TORSDOF 9
