REMARK  Name = DB00306
REMARK                            x       y       z     vdW  Elec       q    Type
REMARK                         _______ _______ _______ _____ _____    ______ ____
ROOT
ATOM      1  O   LIG    1       -0.513  -0.377  -2.506  0.00  0.00    -0.274 OA
ATOM      2  C   LIG    1       -0.647  -0.769  -1.347  0.00  0.00    +0.236 C 
ATOM      3  C   LIG    1       -0.060  -0.034  -0.082  0.00  0.00    +0.129 C 
ATOM      4  C   LIG    1       -0.509  -0.635   1.306  0.00  0.00    +0.236 C 
ATOM      5  N   LIG    1       -1.224  -1.779   1.214  0.00  0.00    -0.239 N 
ATOM      6  H   LIG    1       -1.492  -2.183   2.099  0.00  0.00    +0.159 HD
ATOM      7  C   LIG    1       -1.653  -2.460   0.124  0.00  0.00    +0.312 C 
ATOM      8  O   LIG    1       -2.297  -3.502   0.210  0.00  0.00    -0.252 OA
ATOM      9  O   LIG    1       -0.235  -0.137   2.398  0.00  0.00    -0.274 OA
ATOM     10  N   LIG    1       -1.330  -1.901  -1.067  0.00  0.00    -0.239 N 
ATOM     11  H   LIG    1       -1.682  -2.394  -1.874  0.00  0.00    +0.159 HD
ENDROOT
BRANCH   3  12
ATOM     12  C   LIG    1        1.527  -0.140  -0.124  0.00  0.00    +0.010 C 
ATOM     13  C   LIG    1        2.081  -1.594  -0.156  0.00  0.00    +0.009 C 
BRANCH  12  14
ATOM     14  C   LIG    1        2.207   0.735  -1.221  0.00  0.00    +0.001 C 
ATOM     15  C   LIG    1        3.736   0.860  -1.099  0.00  0.00    +0.004 C 
ENDBRANCH  12  14
ENDBRANCH   3  12
BRANCH   3  16
ATOM     16  C   LIG    1       -0.633   1.433  -0.113  0.00  0.00    +0.052 C 
BRANCH  16  17
ATOM     17  C   LIG    1       -2.144   1.611   0.041  0.00  0.00    -0.033 C 
ATOM     18  C   LIG    1       -2.740   2.240   1.066  0.00  0.00    +0.004 C 
ENDBRANCH  16  17
ENDBRANCH   3  16
TORSDOF 4
