REMARK  Name = DB00421
REMARK                            x       y       z     vdW  Elec       q    Type
REMARK                         _______ _______ _______ _____ _____    ______ ____
ROOT
ATOM      1  C   LIG    1        1.831   0.034   0.070  0.00  0.00    +0.062 C 
ATOM      2  C   LIG    1        2.291  -0.644  -1.235  0.00  0.00    +0.046 C 
ATOM      3  C   LIG    1        1.911  -2.128  -1.259  0.00  0.00    -0.059 C 
ATOM      4  C   LIG    1        1.231  -2.653  -2.306  0.00  0.00    +0.046 C 
ATOM      5  C   LIG    1        0.882  -4.058  -2.450  0.00  0.00    +0.156 C 
ATOM      6  C   LIG    1        1.570  -5.015  -1.473  0.00  0.00    +0.080 C 
ATOM      7  C   LIG    1        1.708  -4.375  -0.078  0.00  0.00    +0.019 C 
ATOM      8  O   LIG    1        0.169  -4.456  -3.368  0.00  0.00    -0.293 OA
ATOM      9  C   LIG    1        2.407  -2.973  -0.049  0.00  0.00    -0.007 C 
ATOM     10  C   LIG    1        3.940  -3.168  -0.205  0.00  0.00    +0.016 C 
ATOM     11  C   LIG    1        2.025  -2.230   1.290  0.00  0.00    +0.003 C 
ATOM     12  C   LIG    1        2.520  -2.966   2.580  0.00  0.00    +0.005 C 
ATOM     13  C   LIG    1        2.150  -2.211   3.880  0.00  0.00    +0.011 C 
ATOM     14  C   LIG    1        2.683  -0.749   3.872  0.00  0.00    +0.011 C 
ATOM     15  C   LIG    1        4.250  -0.749   3.812  0.00  0.00    +0.015 C 
ATOM     16  C   LIG    1        2.197   0.199   5.025  0.00  0.00    +0.120 C 
ATOM     17  C   LIG    1        0.783  -0.016   5.607  0.00  0.00    +0.060 C 
ATOM     18  C   LIG    1        0.829   0.582   6.999  0.00  0.00    +0.124 C 
ATOM     19  C   LIG    1        2.284   0.317   7.346  0.00  0.00    +0.308 C 
ATOM     20  O   LIG    1        2.808   0.303   8.456  0.00  0.00    -0.251 OA
ATOM     21  C   LIG    1        2.387   1.613   4.396  0.00  0.00    +0.049 C 
ATOM     22  C   LIG    1        2.268   1.446   2.869  0.00  0.00    +0.008 C 
ATOM     23  O   LIG    1        2.984   0.066   6.217  0.00  0.00    -0.457 OA
ATOM     24  C   LIG    1        2.018  -0.054   2.659  0.00  0.00    +0.003 C 
ATOM     25  C   LIG    1        2.410  -0.710   1.301  0.00  0.00    +0.010 C 
ENDROOT
BRANCH   1  26
ATOM     26  S   LIG    1       -0.009   0.148   0.088  0.00  0.00    -0.084 S 
BRANCH  26  27
ATOM     27  C   LIG    1       -0.266   1.961  -0.118  0.00  0.00    +0.187 C 
ATOM     28  C   LIG    1       -1.734   2.371  -0.123  0.00  0.00    +0.099 C 
ATOM     29  O   LIG    1        0.625   2.800  -0.244  0.00  0.00    -0.286 OA
ENDBRANCH  26  27
ENDBRANCH   1  26
TORSDOF 2
