REMARK  Name = DB00932
REMARK                            x       y       z     vdW  Elec       q    Type
REMARK                         _______ _______ _______ _____ _____    ______ ____
ROOT
ATOM      1  C   LIG    1       -0.079  -0.392   0.839  0.00  0.00    +0.059 C 
ENDROOT
BRANCH   1   6
ATOM      2  C   LIG    1        4.081  -0.651  -0.450  0.00  0.00    +0.121 C 
ATOM      3  O   LIG    1        3.725  -0.647   0.953  0.00  0.00    -0.454 OA
ATOM      4  C   LIG    1        2.419  -0.595   1.393  0.00  0.00    +0.339 C 
ATOM      5  O   LIG    1        2.263  -0.857   2.584  0.00  0.00    -0.245 OA
ATOM      6  C   LIG    1        1.390  -0.209   0.404  0.00  0.00    +0.081 C 
ATOM      7  C   LIG    1        1.767   0.256  -0.806  0.00  0.00    +0.108 C 
ATOM      8  C   LIG    1        3.213   0.371  -1.252  0.00  0.00    +0.122 C 
BRANCH   7   9
ATOM      9  O   LIG    1        0.923   0.654  -1.797  0.00  0.00    -0.510 OA
ATOM     10  H   LIG    1        1.434   0.930  -2.562  0.00  0.00    +0.292 HD
ENDBRANCH   7   9
BRANCH   2  11
ATOM     11  C   LIG    1        3.846  -2.091  -1.011  0.00  0.00    +0.048 C 
BRANCH  11  13
ATOM     12  C   LIG    1        4.322  -4.605  -0.873  0.00  0.00    +0.004 C 
ATOM     13  C   LIG    1        4.646  -3.213  -0.316  0.00  0.00    +0.000 C 
ENDBRANCH  11  13
ENDBRANCH   2  11
BRANCH   2  14
ATOM     14  C   LIG    1        5.563  -0.176  -0.461  0.00  0.00    +0.053 C 
BRANCH  14  15
ATOM     15  C   LIG    1        6.243  -0.149  -1.847  0.00  0.00    +0.039 C 
BRANCH  15  16
ATOM     16  C   LIG    1        7.688   0.323  -1.776  0.00  0.00    -0.047 A 
ATOM     17  C   LIG    1        7.987   1.679  -1.934  0.00  0.00    +0.003 A 
ATOM     18  C   LIG    1        9.310   2.111  -1.865  0.00  0.00    +0.000 A 
ATOM     19  C   LIG    1       10.326   1.185  -1.638  0.00  0.00    +0.000 A 
ATOM     20  C   LIG    1       10.034  -0.168  -1.479  0.00  0.00    +0.000 A 
ATOM     21  C   LIG    1        8.712  -0.600  -1.548  0.00  0.00    +0.003 A 
ENDBRANCH  15  16
ENDBRANCH  14  15
ENDBRANCH   2  14
ENDBRANCH   1   6
BRANCH   1  22
ATOM     22  C   LIG    1       -0.816  -1.394  -0.070  0.00  0.00    -0.038 A 
ATOM     23  C   LIG    1       -1.958  -1.047  -0.807  0.00  0.00    +0.028 A 
ATOM     24  C   LIG    1       -2.600  -1.986  -1.624  0.00  0.00    +0.048 A 
ATOM     25  C   LIG    1       -2.088  -3.282  -1.712  0.00  0.00    +0.024 A 
ATOM     26  C   LIG    1       -0.957  -3.642  -0.982  0.00  0.00    +0.002 A 
ATOM     27  C   LIG    1       -0.328  -2.704  -0.165  0.00  0.00    +0.004 A 
BRANCH  24  28
ATOM     28  N   LIG    1       -3.738  -1.664  -2.373  0.00  0.00    -0.215 N 
ATOM     29  H   LIG    1       -4.051  -2.376  -3.016  0.00  0.00    +0.174 HD
BRANCH  28  30
ATOM     30  S   LIG    1       -5.043  -0.667  -1.695  0.00  0.00    +0.090 S 
ATOM     31  O   LIG    1       -5.478  -1.317  -0.454  0.00  0.00    -0.148 OA
ATOM     32  O   LIG    1       -4.572   0.723  -1.690  0.00  0.00    -0.148 OA
BRANCH  30  33
ATOM     33  C   LIG    1       -6.395  -0.785  -2.857  0.00  0.00    +0.197 A 
ATOM     34  N   LIG    1       -6.636  -2.027  -3.351  0.00  0.00    -0.235 NA
ATOM     35  C   LIG    1       -7.652  -2.165  -4.240  0.00  0.00    +0.125 A 
ATOM     36  C   LIG    1       -8.450  -1.096  -4.669  0.00  0.00    +0.073 A 
ATOM     37  C   LIG    1       -8.181   0.174  -4.139  0.00  0.00    +0.017 A 
ATOM     38  C   LIG    1       -7.141   0.339  -3.222  0.00  0.00    +0.050 A 
BRANCH  36  39
ATOM     39  C   LIG    1       -9.583  -1.327  -5.666  0.00  0.00    +0.419 C 
ATOM     40  F   LIG    1       -9.066  -1.509  -6.881  0.00  0.00    -0.166 F 
ATOM     41  F   LIG    1      -10.426  -0.293  -5.716  0.00  0.00    -0.166 F 
ATOM     42  F   LIG    1      -10.281  -2.413  -5.332  0.00  0.00    -0.166 F 
ENDBRANCH  36  39
ENDBRANCH  30  33
ENDBRANCH  28  30
ENDBRANCH  24  28
ENDBRANCH   1  22
BRANCH   1  43
ATOM     43  C   LIG    1       -0.813   0.958   1.072  0.00  0.00    +0.010 C 
ATOM     44  C   LIG    1       -0.147   1.872   2.115  0.00  0.00    +0.005 C 
ENDBRANCH   1  43
TORSDOF 13
