REMARK  Name = DB00376
REMARK                            x       y       z     vdW  Elec       q    Type
REMARK                         _______ _______ _______ _____ _____    ______ ____
ROOT
ATOM      1  C   LIG    1       -0.052   0.067  -0.003  0.00  0.00    +0.095 C 
ENDROOT
BRANCH   1   2
ATOM      2  C   LIG    1       -0.691   1.480  -0.044  0.00  0.00    -0.016 A 
ATOM      3  C   LIG    1       -0.505   2.353   1.038  0.00  0.00    +0.006 A 
ATOM      4  C   LIG    1       -1.065   3.627   1.027  0.00  0.00    +0.000 A 
ATOM      5  C   LIG    1       -1.818   4.040  -0.068  0.00  0.00    +0.000 A 
ATOM      6  C   LIG    1       -2.014   3.189  -1.151  0.00  0.00    +0.000 A 
ATOM      7  C   LIG    1       -1.454   1.915  -1.140  0.00  0.00    +0.006 A 
ENDBRANCH   1   2
BRANCH   1   8
ATOM      8  C   LIG    1       -0.630  -0.762   1.207  0.00  0.00    +0.025 C 
ATOM      9  C   LIG    1       -2.180  -0.908   1.169  0.00  0.00    +0.007 C 
ATOM     10  C   LIG    1       -2.731  -1.594   2.434  0.00  0.00    +0.000 C 
ATOM     11  C   LIG    1       -2.080  -2.973   2.662  0.00  0.00    +0.000 C 
ATOM     12  C   LIG    1       -0.540  -2.896   2.640  0.00  0.00    +0.000 C 
ATOM     13  C   LIG    1       -0.022  -2.186   1.373  0.00  0.00    +0.007 C 
ENDBRANCH   1   8
BRANCH   1  14
ATOM     14  O   LIG    1       -0.320  -0.688  -1.180  0.00  0.00    -0.384 OA
ATOM     15  H   LIG    1        0.098  -1.547  -1.090  0.00  0.00    +0.211 HD
ENDBRANCH   1  14
BRANCH   1  16
ATOM     16  C   LIG    1        1.503   0.191   0.037  0.00  0.00    +0.055 C 
BRANCH  16  17
ATOM     17  C   LIG    1        2.130   1.112  -1.042  0.00  0.00    +0.087 C 
BRANCH  17  18
ATOM     18  N   LIG    1        3.573   0.911  -1.211  0.00  0.00    -0.302 NA
ATOM     19  C   LIG    1        4.043   1.616  -2.412  0.00  0.00    +0.084 C 
ATOM     20  C   LIG    1        5.550   1.402  -2.664  0.00  0.00    +0.015 C 
ATOM     21  C   LIG    1        6.397   1.770  -1.438  0.00  0.00    +0.002 C 
ATOM     22  C   LIG    1        5.858   1.046  -0.196  0.00  0.00    +0.015 C 
ATOM     23  C   LIG    1        4.342   1.269  -0.007  0.00  0.00    +0.084 C 
ENDBRANCH  17  18
ENDBRANCH  16  17
ENDBRANCH   1  16
TORSDOF 6
