REMARK  Name = DB00996
REMARK                            x       y       z     vdW  Elec       q    Type
REMARK                         _______ _______ _______ _____ _____    ______ ____
ROOT
ATOM      1  C   LIG    1       -0.033   0.006   0.044  0.00  0.00    -0.007 C 
ATOM      2  C   LIG    1       -0.576  -0.737  -1.221  0.00  0.00    +0.009 C 
ATOM      3  C   LIG    1       -0.163  -0.059  -2.549  0.00  0.00    +0.001 C 
ATOM      4  C   LIG    1       -0.589   1.427  -2.583  0.00  0.00    +0.000 C 
ATOM      5  C   LIG    1       -0.203   2.208  -1.305  0.00  0.00    +0.001 C 
ATOM      6  C   LIG    1       -0.637   1.447  -0.031  0.00  0.00    +0.009 C 
ENDROOT
BRANCH   1   7
ATOM      7  C   LIG    1        1.537   0.006   0.030  0.00  0.00    +0.128 C 
BRANCH   7   8
ATOM      8  C   LIG    1        2.213   0.736   1.202  0.00  0.00    +0.305 C 
ATOM      9  O   LIG    1        2.462   1.940   1.192  0.00  0.00    -0.251 OA
BRANCH   8  10
ATOM     10  O   LIG    1        2.497  -0.109   2.235  0.00  0.00    -0.481 OA
ATOM     11  H   LIG    1        2.919   0.343   2.969  0.00  0.00    +0.295 HD
ENDBRANCH   8  10
ENDBRANCH   7   8
ENDBRANCH   1   7
BRANCH   1  12
ATOM     12  C   LIG    1       -0.581  -0.715   1.322  0.00  0.00    +0.085 C 
BRANCH  12  13
ATOM     13  N   LIG    1       -2.029  -0.837   1.402  0.00  0.00    -0.329 NA
ATOM     14  H   LIG    1       -2.281  -1.333   2.245  0.00  0.00    +0.118 HD
ATOM     15  H   LIG    1       -2.364  -1.396   0.630  0.00  0.00    +0.118 HD
ENDBRANCH  12  13
ENDBRANCH   1  12
TORSDOF 5
