REMARK  Name = DB00514
REMARK                            x       y       z     vdW  Elec       q    Type
REMARK                         _______ _______ _______ _____ _____    ______ ____
ROOT
ATOM      1  C   LIG    1       -2.863  -2.559   0.036  0.00  0.00    +0.002 C 
ATOM      2  C   LIG    1       -2.166  -3.733  -0.729  0.00  0.00    +0.012 C 
ATOM      3  C   LIG    1       -2.103  -3.517  -2.256  0.00  0.00    +0.001 C 
ATOM      4  C   LIG    1       -3.513  -3.327  -2.845  0.00  0.00    +0.000 C 
ATOM      5  C   LIG    1       -4.265  -2.199  -2.120  0.00  0.00    +0.006 C 
ATOM      6  C   LIG    1       -3.086  -2.981   1.513  0.00  0.00    +0.027 C 
ATOM      7  C   LIG    1       -3.959  -1.990   2.311  0.00  0.00    +0.085 C 
ATOM      8  N   LIG    1       -5.207  -1.667   1.607  0.00  0.00    -0.302 NA
ATOM      9  C   LIG    1       -6.058  -0.771   2.385  0.00  0.00    +0.105 C 
ATOM     10  C   LIG    1       -5.060  -1.288   0.186  0.00  0.00    +0.065 C 
ATOM     11  C   LIG    1       -4.379   0.080  -0.088  0.00  0.00    +0.054 C 
ATOM     12  C   LIG    1       -2.848   0.036  -0.036  0.00  0.00    -0.042 A 
ATOM     13  C   LIG    1       -2.142   1.242  -0.027  0.00  0.00    +0.007 A 
ATOM     14  C   LIG    1       -0.753   1.273  -0.014  0.00  0.00    +0.046 A 
ATOM     15  C   LIG    1       -0.025   0.078  -0.007  0.00  0.00    +0.120 A 
ATOM     16  C   LIG    1       -0.727  -1.126  -0.011  0.00  0.00    +0.050 A 
ATOM     17  C   LIG    1       -4.292  -2.404  -0.577  0.00  0.00    +0.017 C 
ATOM     18  C   LIG    1       -2.130  -1.188  -0.030  0.00  0.00    -0.034 A 
ENDROOT
BRANCH  15  19
ATOM     19  O   LIG    1        1.354  -0.000   0.011  0.00  0.00    -0.495 OA
ATOM     20  C   LIG    1        2.116   1.202   0.010  0.00  0.00    +0.277 C 
ENDBRANCH  15  19
TORSDOF 1
