REMARK  Name = DB00448
REMARK                            x       y       z     vdW  Elec       q    Type
REMARK                         _______ _______ _______ _____ _____    ______ ____
ROOT
ATOM      1  C   LIG    1        5.026  -0.927   0.385  0.00  0.00    +0.167 C 
ENDROOT
BRANCH   1   2
ATOM      2  C   LIG    1        3.756  -0.087   0.303  0.00  0.00    +0.060 A 
ATOM      3  C   LIG    1        2.477  -0.642   0.100  0.00  0.00    +0.013 A 
ATOM      4  C   LIG    1        2.285  -2.150  -0.043  0.00  0.00    +0.049 C 
ATOM      5  C   LIG    1        1.369   0.227   0.044  0.00  0.00    +0.127 A 
ATOM      6  C   LIG    1        1.591   1.608   0.195  0.00  0.00    +0.065 A 
ATOM      7  C   LIG    1        2.889   2.070   0.393  0.00  0.00    +0.114 A 
ATOM      8  N   LIG    1        3.962   1.248   0.447  0.00  0.00    -0.258 NA
BRANCH   5   9
ATOM      9  O   LIG    1        0.117  -0.324  -0.162  0.00  0.00    -0.483 OA
BRANCH   9  10
ATOM     10  C   LIG    1       -1.030   0.522  -0.219  0.00  0.00    +0.342 C 
BRANCH  10  11
ATOM     11  C   LIG    1       -2.287  -0.331  -0.451  0.00  0.00    +0.424 C 
ATOM     12  F   LIG    1       -2.213  -1.005  -1.599  0.00  0.00    -0.167 F 
ATOM     13  F   LIG    1       -2.467  -1.212   0.532  0.00  0.00    -0.167 F 
ATOM     14  F   LIG    1       -3.375   0.437  -0.506  0.00  0.00    -0.167 F 
ENDBRANCH  10  11
ENDBRANCH   9  10
ENDBRANCH   5   9
ENDBRANCH   1   2
BRANCH   1  15
ATOM     15  S   LIG    1        5.462  -1.257   2.159  0.00  0.00    +0.095 S 
ATOM     16  O   LIG    1        4.372  -2.160   2.740  0.00  0.00    -0.249 OA
BRANCH  15  17
ATOM     17  C   LIG    1        6.883  -2.367   1.813  0.00  0.00    +0.198 A 
ATOM     18  N   LIG    1        8.036  -2.031   1.291  0.00  0.00    -0.220 NA
ATOM     19  C   LIG    1        8.741  -3.205   1.235  0.00  0.00    +0.090 A 
ATOM     20  C   LIG    1       10.041  -3.437   0.763  0.00  0.00    +0.030 A 
ATOM     21  C   LIG    1       10.538  -4.740   0.814  0.00  0.00    +0.002 A 
ATOM     22  C   LIG    1        9.769  -5.790   1.319  0.00  0.00    +0.002 A 
ATOM     23  C   LIG    1        8.470  -5.595   1.797  0.00  0.00    +0.028 A 
ATOM     24  C   LIG    1        7.977  -4.288   1.744  0.00  0.00    +0.067 A 
ATOM     25  N   LIG    1        6.784  -3.707   2.107  0.00  0.00    -0.331 N 
ATOM     26  H   LIG    1        5.963  -4.130   2.514  0.00  0.00    +0.168 HD
ENDBRANCH  15  17
ENDBRANCH   1  15
TORSDOF 6
