REMARK  Name = DB00714
REMARK                            x       y       z     vdW  Elec       q    Type
REMARK                         _______ _______ _______ _____ _____    ______ ____
ROOT
ATOM      1  C   LIG    1        1.346   0.039  -0.077  0.00  0.00    +0.166 A 
ATOM      2  C   LIG    1        2.040   1.257  -0.072  0.00  0.00    +0.159 A 
ATOM      3  C   LIG    1        3.426   1.271   0.026  0.00  0.00    +0.049 A 
ATOM      4  C   LIG    1        4.126   0.074   0.096  0.00  0.00    +0.008 A 
ATOM      5  C   LIG    1        3.459  -1.154   0.097  0.00  0.00    -0.034 A 
ATOM      6  C   LIG    1        4.241  -2.462   0.122  0.00  0.00    +0.059 C 
ATOM      7  C   LIG    1        3.579  -3.478  -0.845  0.00  0.00    +0.092 C 
ATOM      8  C   LIG    1        2.125  -3.673  -0.366  0.00  0.00    -0.019 A 
ATOM      9  C   LIG    1        1.383  -2.545   0.060  0.00  0.00    -0.009 A 
ATOM     10  C   LIG    1        0.078  -2.744   0.534  0.00  0.00    +0.009 A 
ATOM     11  C   LIG    1       -0.507  -4.004   0.522  0.00  0.00    +0.001 A 
ATOM     12  C   LIG    1        0.214  -5.097   0.061  0.00  0.00    +0.004 A 
ATOM     13  C   LIG    1        1.534  -4.953  -0.369  0.00  0.00    -0.041 A 
ATOM     14  C   LIG    1        2.345  -6.165  -0.808  0.00  0.00    +0.051 C 
ATOM     15  C   LIG    1        3.567  -5.768  -1.654  0.00  0.00    +0.089 C 
ATOM     16  N   LIG    1        4.347  -4.734  -0.970  0.00  0.00    -0.298 NA
ATOM     17  C   LIG    1        5.612  -4.550  -1.683  0.00  0.00    +0.105 C 
ATOM     18  C   LIG    1        2.046  -1.186   0.042  0.00  0.00    +0.031 A 
ENDROOT
BRANCH   1  19
ATOM     19  O   LIG    1       -0.016   0.082  -0.250  0.00  0.00    -0.503 OA
ATOM     20  H   LIG    1       -0.344   0.980  -0.338  0.00  0.00    +0.292 HD
ENDBRANCH   1  19
BRANCH   2  21
ATOM     21  O   LIG    1        1.376   2.455  -0.175  0.00  0.00    -0.503 OA
ATOM     22  H   LIG    1        1.966   3.212  -0.164  0.00  0.00    +0.292 HD
ENDBRANCH   2  21
TORSDOF 2
