REMARK  Name = DB00678
REMARK                            x       y       z     vdW  Elec       q    Type
REMARK                         _______ _______ _______ _____ _____    ______ ____
ROOT
ATOM      1  C   LIG    1        1.884  -0.119   1.405  0.00  0.00    -0.028 A 
ATOM      2  C   LIG    1        1.007  -0.286   2.485  0.00  0.00    +0.006 A 
ATOM      3  C   LIG    1        1.493  -0.276   3.788  0.00  0.00    +0.009 A 
ATOM      4  C   LIG    1        2.859  -0.113   4.033  0.00  0.00    -0.017 A 
ATOM      5  C   LIG    1        3.732   0.053   2.954  0.00  0.00    +0.009 A 
ATOM      6  C   LIG    1        3.248   0.046   1.649  0.00  0.00    +0.006 A 
ENDROOT
BRANCH   4   7
ATOM      7  C   LIG    1        3.374  -0.092   5.428  0.00  0.00    -0.007 A 
ATOM      8  C   LIG    1        2.973   0.975   6.243  0.00  0.00    +0.009 A 
ATOM      9  C   LIG    1        3.454   1.114   7.540  0.00  0.00    +0.001 A 
ATOM     10  C   LIG    1        4.351   0.182   8.046  0.00  0.00    +0.001 A 
ATOM     11  C   LIG    1        4.751  -0.893   7.258  0.00  0.00    +0.012 A 
ATOM     12  C   LIG    1        4.264  -1.067   5.949  0.00  0.00    +0.030 A 
BRANCH  12  13
ATOM     13  C   LIG    1        4.727  -2.301   5.202  0.00  0.00    +0.205 A 
ATOM     14  N   LIG    1        4.094  -2.812   4.156  0.00  0.00    -0.108 NA
ATOM     15  N   LIG    1        4.806  -3.927   3.774  0.00  0.00    -0.049 NA
ATOM     16  N   LIG    1        5.804  -3.979   4.651  0.00  0.00    -0.176 N 
ATOM     17  H   LIG    1        6.508  -4.703   4.637  0.00  0.00    +0.214 HD
ATOM     18  N   LIG    1        5.793  -2.997   5.556  0.00  0.00    -0.133 NA
ENDBRANCH  12  13
ENDBRANCH   4   7
BRANCH   1  19
ATOM     19  C   LIG    1        1.400  -0.113  -0.047  0.00  0.00    +0.158 C 
BRANCH  19  23
ATOM     20 CL   LIG    1       -3.697  -1.163  -0.865  0.00  0.00    -0.060 Cl
ATOM     21  C   LIG    1       -2.181  -0.413  -0.561  0.00  0.00    +0.153 A 
ATOM     22  C   LIG    1       -0.938  -1.035  -0.507  0.00  0.00    +0.083 A 
ATOM     23  N   LIG    1       -0.050  -0.012  -0.240  0.00  0.00    -0.324 N 
ATOM     24  C   LIG    1       -0.820   1.128  -0.132  0.00  0.00    +0.112 A 
ATOM     25  N   LIG    1       -2.092   0.885  -0.343  0.00  0.00    -0.220 NA
BRANCH  22  26
ATOM     26  C   LIG    1       -0.534  -2.487  -0.682  0.00  0.00    +0.212 C 
BRANCH  26  27
ATOM     27  O   LIG    1       -0.156  -3.030   0.565  0.00  0.00    -0.389 OA
ATOM     28  H   LIG    1        0.084  -3.951   0.437  0.00  0.00    +0.210 HD
ENDBRANCH  26  27
ENDBRANCH  22  26
BRANCH  24  29
ATOM     29  C   LIG    1       -0.244   2.508   0.172  0.00  0.00    +0.074 C 
BRANCH  29  30
ATOM     30  C   LIG    1       -1.209   3.467   0.900  0.00  0.00    +0.007 C 
BRANCH  30  31
ATOM     31  C   LIG    1       -1.582   3.009   2.325  0.00  0.00    -0.003 C 
ATOM     32  C   LIG    1       -2.505   3.999   3.047  0.00  0.00    +0.004 C 
ENDBRANCH  30  31
ENDBRANCH  29  30
ENDBRANCH  24  29
ENDBRANCH  19  23
ENDBRANCH   1  19
TORSDOF 9
