REMARK  Name = DB00912
REMARK                            x       y       z     vdW  Elec       q    Type
REMARK                         _______ _______ _______ _____ _____    ______ ____
ROOT
ATOM      1  O   LIG    1       -0.302   1.787  -1.336  0.00  0.00    -0.275 OA
ATOM      2  C   LIG    1       -0.712   0.875  -0.616  0.00  0.00    +0.218 C 
ATOM      3  N   LIG    1        0.101   0.063   0.086  0.00  0.00    -0.308 N 
ATOM      4  H   LIG    1       -0.328  -0.604   0.711  0.00  0.00    +0.149 HD
ENDROOT
BRANCH   2   5
ATOM      5  C   LIG    1       -2.216   0.593  -0.494  0.00  0.00    +0.131 C 
BRANCH   5   6
ATOM      6  C   LIG    1       -3.036   1.864  -0.299  0.00  0.00    -0.035 A 
ATOM      7  C   LIG    1       -3.260   2.364   0.980  0.00  0.00    +0.005 A 
ATOM      8  C   LIG    1       -3.997   3.530   1.156  0.00  0.00    +0.019 A 
ATOM      9  C   LIG    1       -4.531   4.231   0.060  0.00  0.00    +0.100 A 
ATOM     10  C   LIG    1       -4.303   3.729  -1.245  0.00  0.00    +0.135 A 
ATOM     11  C   LIG    1       -3.548   2.551  -1.399  0.00  0.00    +0.050 A 
BRANCH   9  12
ATOM     12  C   LIG    1       -5.337   5.497   0.305  0.00  0.00    +0.340 C 
ATOM     13  O   LIG    1       -5.850   6.156  -0.599  0.00  0.00    -0.245 OA
BRANCH  12  14
ATOM     14  O   LIG    1       -5.458   5.862   1.616  0.00  0.00    -0.477 OA
ATOM     15  H   LIG    1       -5.975   6.664   1.721  0.00  0.00    +0.295 HD
ENDBRANCH  12  14
ENDBRANCH   9  12
BRANCH  10  16
ATOM     16  O   LIG    1       -4.815   4.425  -2.331  0.00  0.00    -0.491 OA
BRANCH  16  17
ATOM     17  C   LIG    1       -4.726   3.914  -3.662  0.00  0.00    +0.226 C 
ATOM     18  C   LIG    1       -5.699   2.748  -3.905  0.00  0.00    +0.048 C 
ENDBRANCH  16  17
ENDBRANCH  10  16
ENDBRANCH   5   6
ENDBRANCH   2   5
BRANCH   3  19
ATOM     19  C   LIG    1        1.567   0.153   0.163  0.00  0.00    +0.105 C 
BRANCH  19  20
ATOM     20  C   LIG    1        2.062   1.453   0.855  0.00  0.00    -0.006 A 
ATOM     21  C   LIG    1        2.962   2.309   0.197  0.00  0.00    +0.007 A 
ATOM     22  C   LIG    1        3.393   3.495   0.784  0.00  0.00    +0.000 A 
ATOM     23  C   LIG    1        2.937   3.848   2.048  0.00  0.00    +0.002 A 
ATOM     24  C   LIG    1        2.052   3.014   2.722  0.00  0.00    +0.023 A 
ATOM     25  C   LIG    1        1.590   1.822   2.141  0.00  0.00    +0.035 A 
BRANCH  25  26
ATOM     26  N   LIG    1        0.774   0.969   2.878  0.00  0.00    -0.330 N 
ATOM     27  C   LIG    1        1.454  -0.088   3.649  0.00  0.00    +0.105 C 
ATOM     28  C   LIG    1        0.497  -1.238   4.030  0.00  0.00    +0.019 C 
ATOM     29  C   LIG    1       -0.722  -0.731   4.811  0.00  0.00    +0.003 C 
ATOM     30  C   LIG    1       -1.363   0.450   4.072  0.00  0.00    +0.019 C 
ATOM     31  C   LIG    1       -0.319   1.524   3.697  0.00  0.00    +0.105 C 
ENDBRANCH  25  26
ENDBRANCH  19  20
BRANCH  19  32
ATOM     32  C   LIG    1        2.261  -0.212  -1.187  0.00  0.00    +0.030 C 
BRANCH  32  33
ATOM     33  C   LIG    1        1.778  -1.513  -1.883  0.00  0.00    -0.015 C 
ATOM     34  C   LIG    1        2.469  -1.696  -3.247  0.00  0.00    +0.007 C 
ATOM     35  C   LIG    1        1.962  -2.767  -1.006  0.00  0.00    +0.007 C 
ENDBRANCH  32  33
ENDBRANCH  19  32
ENDBRANCH   3  19
TORSDOF 11
