REMARK  Name = DB00304
REMARK                            x       y       z     vdW  Elec       q    Type
REMARK                         _______ _______ _______ _____ _____    ______ ____
ROOT
ATOM      1  C   LIG    1       -0.584  -0.496   1.445  0.00  0.00    +0.132 C 
ATOM      2  C   LIG    1       -0.374   0.768   2.336  0.00  0.00    +0.049 C 
ATOM      3  C   LIG    1       -0.227   1.986   1.400  0.00  0.00    +0.008 C 
ATOM      4  C   LIG    1       -0.445   1.413  -0.004  0.00  0.00    +0.003 C 
ATOM      5  C   LIG    1        0.037   2.201  -1.255  0.00  0.00    +0.001 C 
ATOM      6  C   LIG    1       -0.470   3.655  -1.257  0.00  0.00    +0.009 C 
ATOM      7  C   LIG    1        0.079   4.423  -2.463  0.00  0.00    +0.031 C 
ATOM      8  C   LIG    1       -0.416   3.757  -3.744  0.00  0.00    -0.070 C 
ATOM      9  C   LIG    1       -1.075   4.455  -4.696  0.00  0.00    -0.027 C 
ATOM     10  C   LIG    1       -1.542   3.896  -6.031  0.00  0.00    +0.027 C 
ATOM     11  C   LIG    1       -0.844   2.559  -6.336  0.00  0.00    +0.005 C 
ATOM     12  C   LIG    1       -0.838   1.636  -5.109  0.00  0.00    +0.009 C 
ATOM     13  C   LIG    1       -0.098   2.245  -3.877  0.00  0.00    +0.022 C 
ATOM     14  C   LIG    1       -0.431   1.464  -2.553  0.00  0.00    +0.025 C 
ATOM     15  C   LIG    1        0.052  -0.007  -2.476  0.00  0.00    -0.072 C 
ATOM     16  C   LIG    1        0.879  -0.607  -3.354  0.00  0.00    +0.008 C 
ATOM     17  C   LIG    1       -0.483  -0.750  -1.243  0.00  0.00    +0.041 C 
ATOM     18  C   LIG    1        0.055  -0.063   0.060  0.00  0.00    +0.017 C 
ENDROOT
BRANCH   1  19
ATOM     19  O   LIG    1        0.026  -1.616   2.056  0.00  0.00    -0.376 OA
ATOM     20  H   LIG    1       -0.009  -2.351   1.441  0.00  0.00    +0.211 HD
ENDBRANCH   1  19
BRANCH   1  21
ATOM     21  C   LIG    1       -2.028  -0.849   1.382  0.00  0.00    -0.070 C 
ATOM     22  C   LIG    1       -3.217  -1.121   1.321  0.00  0.00    +0.007 C 
ENDBRANCH   1  21
BRANCH  18  23
ATOM     23  C   LIG    1        1.637  -0.140   0.112  0.00  0.00    +0.008 C 
ATOM     24  C   LIG    1        2.297  -1.525  -0.060  0.00  0.00    +0.004 C 
ENDBRANCH  18  23
TORSDOF 3
