REMARK  Name = DB00851
REMARK                            x       y       z     vdW  Elec       q    Type
REMARK                         _______ _______ _______ _____ _____    ______ ____
ROOT
ATOM      1  C   LIG    1       -4.006   0.430   0.000  0.00  0.00    +0.199 A 
ATOM      2  N   LIG    1       -2.719  -0.018  -0.001  0.00  0.00    -0.328 N 
ATOM      3  H   LIG    1       -2.413  -0.980  -0.001  0.00  0.00    +0.168 HD
ATOM      4  C   LIG    1       -1.910   1.098  -0.002  0.00  0.00    +0.186 A 
ATOM      5  C   LIG    1       -2.814   2.182  -0.001  0.00  0.00    +0.171 A 
ATOM      6  N   LIG    1       -4.073   1.736   0.000  0.00  0.00    -0.229 NA
ENDROOT
BRANCH   5   7
ATOM      7  C   LIG    1       -2.444   3.588  -0.001  0.00  0.00    +0.264 C 
ATOM      8  N   LIG    1       -3.461   4.460  -0.001  0.00  0.00    -0.324 N 
ATOM      9  H   LIG    1       -4.414   4.127  -0.000  0.00  0.00    +0.145 HD
ATOM     10  H   LIG    1       -3.278   5.452  -0.000  0.00  0.00    +0.145 HD
ATOM     11  O   LIG    1       -1.273   3.963  -0.002  0.00  0.00    -0.269 OA
ENDBRANCH   5   7
BRANCH   4  12
ATOM     12  N   LIG    1       -0.542   1.074  -0.004  0.00  0.00    -0.113 NA
ATOM     13  N   LIG    1       -0.002  -0.069   0.006  0.00  0.00    -0.078 NA
BRANCH  13  14
ATOM     14  N   LIG    1        1.391   0.022   0.003  0.00  0.00    -0.243 N 
ATOM     15  C   LIG    1        1.966  -0.622  -1.173  0.00  0.00    +0.153 C 
ATOM     16  C   LIG    1        1.970  -0.627   1.174  0.00  0.00    +0.153 C 
ENDBRANCH  13  14
ENDBRANCH   4  12
TORSDOF 3
