REMARK  Name = DB00414
REMARK                            x       y       z     vdW  Elec       q    Type
REMARK                         _______ _______ _______ _____ _____    ______ ____
ROOT
ATOM      1  S   LIG    1       -0.006   0.027   0.139  0.00  0.00    +0.076 S 
ATOM      2  O   LIG    1       -0.564  -0.482  -1.120  0.00  0.00    -0.150 OA
ATOM      3  O   LIG    1       -0.383  -0.576   1.422  0.00  0.00    -0.150 OA
ENDROOT
BRANCH   1   4
ATOM      4  C   LIG    1        1.780  -0.059   0.019  0.00  0.00    +0.109 A 
ATOM      5  C   LIG    1        2.553   0.121   1.165  0.00  0.00    +0.029 A 
ATOM      6  C   LIG    1        3.942   0.082   1.077  0.00  0.00    +0.013 A 
ATOM      7  C   LIG    1        4.572  -0.130  -0.158  0.00  0.00    +0.017 A 
ATOM      8  C   LIG    1        3.782  -0.311  -1.303  0.00  0.00    +0.013 A 
ATOM      9  C   LIG    1        2.393  -0.275  -1.216  0.00  0.00    +0.029 A 
BRANCH   7  10
ATOM     10  C   LIG    1        6.069  -0.161  -0.223  0.00  0.00    +0.160 C 
ATOM     11  C   LIG    1        6.731  -0.281  -1.598  0.00  0.00    +0.091 C 
ATOM     12  O   LIG    1        6.797  -0.070   0.766  0.00  0.00    -0.292 OA
ENDBRANCH   7  10
ENDBRANCH   1   4
BRANCH   1  13
ATOM     13  N   LIG    1       -0.360   1.750   0.243  0.00  0.00    -0.169 N 
ATOM     14  H   LIG    1       -0.636   2.079   1.171  0.00  0.00    +0.178 HD
ATOM     15  C   LIG    1       -0.091   2.694  -0.770  0.00  0.00    +0.319 C 
ATOM     16  N   LIG    1       -0.291   3.960  -0.370  0.00  0.00    -0.295 N 
ATOM     17  H   LIG    1       -0.642   4.118   0.563  0.00  0.00    +0.151 HD
ATOM     18  O   LIG    1        0.311   2.374  -1.890  0.00  0.00    -0.251 OA
BRANCH  16  19
ATOM     19  C   LIG    1       -0.116   5.156  -1.199  0.00  0.00    +0.074 C 
ATOM     20  C   LIG    1       -1.141   5.312  -2.355  0.00  0.00    +0.022 C 
ATOM     21  C   LIG    1       -0.952   6.601  -3.179  0.00  0.00    +0.002 C 
ATOM     22  C   LIG    1       -0.876   7.855  -2.293  0.00  0.00    +0.000 C 
ATOM     23  C   LIG    1        0.224   7.720  -1.228  0.00  0.00    +0.002 C 
ATOM     24  C   LIG    1        0.052   6.452  -0.368  0.00  0.00    +0.022 C 
ENDBRANCH  16  19
ENDBRANCH   1  13
TORSDOF 4
