REMARK  Name = DB00290
REMARK                            x       y       z     vdW  Elec       q    Type
REMARK                         _______ _______ _______ _____ _____    ______ ____
ROOT
ATOM      1  C   LIG    1        0.219   0.373  -0.582  0.00  0.00    +0.194 C 
ENDROOT
BRANCH   1   2
ATOM      2  C   LIG    1        1.744   0.613  -0.686  0.00  0.00    +0.237 C 
ATOM      3  O   LIG    1        2.431  -0.047  -1.469  0.00  0.00    -0.274 OA
ATOM      4  N   LIG    1        2.262   1.551   0.128  0.00  0.00    -0.309 N 
ATOM      5  H   LIG    1        1.652   2.049   0.759  0.00  0.00    +0.149 HD
BRANCH   4   6
ATOM      6  C   LIG    1        3.693   1.861   0.211  0.00  0.00    +0.099 C 
ATOM      7  C   LIG    1        4.024   2.582   1.533  0.00  0.00    +0.030 C 
BRANCH   6   8
ATOM      8  C   LIG    1        4.259   2.559  -1.075  0.00  0.00    +0.146 C 
BRANCH   8   9
ATOM      9  O   LIG    1        3.955   3.945  -1.035  0.00  0.00    -0.389 OA
ATOM     10  H   LIG    1        4.388   4.329  -0.269  0.00  0.00    +0.210 HD
ENDBRANCH   8   9
BRANCH   8  11
ATOM     11  C   LIG    1        5.779   2.314  -1.343  0.00  0.00    +0.102 C 
ATOM     12  C   LIG    1        6.332   3.169  -2.510  0.00  0.00    +0.020 C 
BRANCH  11  13
ATOM     13  C   LIG    1        6.068   0.819  -1.615  0.00  0.00    +0.219 C 
ATOM     14  O   LIG    1        5.634   0.276  -2.632  0.00  0.00    -0.275 OA
ATOM     15  N   LIG    1        6.792   0.173  -0.687  0.00  0.00    -0.302 N 
ATOM     16  H   LIG    1        7.107   0.678   0.129  0.00  0.00    +0.150 HD
BRANCH  15  17
ATOM     17  C   LIG    1        7.132  -1.251  -0.706  0.00  0.00    +0.187 C 
BRANCH  17  18
ATOM     18  C   LIG    1        6.561  -1.935   0.552  0.00  0.00    +0.236 C 
ATOM     19  O   LIG    1        6.424  -1.298   1.599  0.00  0.00    -0.274 OA
ATOM     20  N   LIG    1        6.255  -3.236   0.413  0.00  0.00    -0.313 N 
ATOM     21  H   LIG    1        6.384  -3.670  -0.490  0.00  0.00    +0.149 HD
BRANCH  20  22
ATOM     22  C   LIG    1        5.734  -4.093   1.479  0.00  0.00    +0.111 C 
BRANCH  22  23
ATOM     23  C   LIG    1        6.795  -5.043   2.073  0.00  0.00    +0.081 C 
BRANCH  23  24
ATOM     24  C   LIG    1        8.004  -4.319   2.634  0.00  0.00    +0.081 A 
ATOM     25  S   LIG    1        8.067  -3.619   4.218  0.00  0.00    -0.080 S 
ATOM     26  C   LIG    1        9.665  -3.048   3.853  0.00  0.00    +0.077 A 
ATOM     27  C   LIG    1       10.023  -3.424   2.557  0.00  0.00    +0.103 A 
ATOM     28  N   LIG    1        9.094  -4.130   1.932  0.00  0.00    -0.242 NA
BRANCH  27  29
ATOM     29  C   LIG    1       11.283  -3.083   1.877  0.00  0.00    +0.128 A 
ATOM     30  S   LIG    1       12.522  -2.118   2.626  0.00  0.00    -0.073 S 
ATOM     31  C   LIG    1       13.441  -2.232   1.157  0.00  0.00    +0.080 A 
ATOM     32  C   LIG    1       12.746  -3.015   0.228  0.00  0.00    +0.133 A 
ATOM     33  N   LIG    1       11.564  -3.444   0.644  0.00  0.00    -0.233 NA
BRANCH  32  34
ATOM     34  C   LIG    1       13.147  -3.311  -1.131  0.00  0.00    +0.263 C 
ATOM     35  O   LIG    1       12.334  -3.616  -2.007  0.00  0.00    -0.269 OA
ATOM     36  N   LIG    1       14.476  -3.242  -1.340  0.00  0.00    -0.310 N 
ATOM     37  H   LIG    1       15.070  -2.963  -0.573  0.00  0.00    +0.149 HD
BRANCH  36  38
ATOM     38  C   LIG    1       15.142  -3.532  -2.608  0.00  0.00    +0.105 C 
BRANCH  38  39
ATOM     39  C   LIG    1       15.262  -5.039  -2.908  0.00  0.00    +0.029 C 
BRANCH  39  40
ATOM     40  C   LIG    1       16.044  -5.339  -4.197  0.00  0.00    +0.060 C 
BRANCH  40  41
ATOM     41  S   LIG    1       16.105  -7.097  -4.657  0.00  0.00    -0.214 S 
ATOM     42  C   LIG    1       17.255  -7.748  -3.412  0.00  0.00    +0.073 C 
ATOM     43  C   LIG    1       17.198  -7.027  -6.103  0.00  0.00    +0.073 C 
ENDBRANCH  40  41
ENDBRANCH  39  40
ENDBRANCH  38  39
ENDBRANCH  36  38
ENDBRANCH  32  34
ENDBRANCH  27  29
ENDBRANCH  23  24
ENDBRANCH  22  23
ENDBRANCH  20  22
ENDBRANCH  17  18
BRANCH  17  44
ATOM     44  C   LIG    1        8.674  -1.451  -0.707  0.00  0.00    +0.141 C 
ATOM     45  C   LIG    1        9.360  -0.855  -1.945  0.00  0.00    +0.040 C 
BRANCH  44  46
ATOM     46  O   LIG    1        9.289  -0.911   0.450  0.00  0.00    -0.390 OA
ATOM     47  H   LIG    1        9.238   0.046   0.404  0.00  0.00    +0.210 HD
ENDBRANCH  44  46
ENDBRANCH  17  44
ENDBRANCH  15  17
ENDBRANCH  11  13
ENDBRANCH   8  11
ENDBRANCH   6   8
ENDBRANCH   4   6
ENDBRANCH   1   2
BRANCH   1  48
ATOM     48  N   LIG    1       -0.232  -0.535  -1.641  0.00  0.00    -0.296 N 
ATOM     49  H   LIG    1        0.389  -1.312  -1.815  0.00  0.00    +0.150 HD
ATOM     50  C   LIG    1       -1.336  -0.435  -2.406  0.00  0.00    +0.263 C 
ATOM     51  O   LIG    1       -2.155   0.475  -2.270  0.00  0.00    -0.268 OA
BRANCH  50  52
ATOM     52  C   LIG    1       -1.491  -1.515  -3.467  0.00  0.00    +0.134 A 
ATOM     53  C   LIG    1       -2.291  -1.376  -4.632  0.00  0.00    +0.020 A 
ATOM     54  C   LIG    1       -3.115  -0.117  -4.921  0.00  0.00    +0.050 C 
ATOM     55  C   LIG    1       -2.272  -2.458  -5.542  0.00  0.00    +0.123 A 
ATOM     56  N   LIG    1       -1.531  -3.577  -5.337  0.00  0.00    -0.216 NA
ATOM     57  C   LIG    1       -0.812  -3.626  -4.190  0.00  0.00    +0.149 A 
ATOM     58  N   LIG    1       -0.774  -2.655  -3.247  0.00  0.00    -0.225 NA
BRANCH  55  59
ATOM     59  N   LIG    1       -3.017  -2.451  -6.722  0.00  0.00    -0.343 N 
ATOM     60  H   LIG    1       -2.973  -3.250  -7.338  0.00  0.00    +0.144 HD
ATOM     61  H   LIG    1       -3.603  -1.658  -6.936  0.00  0.00    +0.144 HD
ENDBRANCH  55  59
BRANCH  57  62
ATOM     62  C   LIG    1        0.057  -4.874  -3.961  0.00  0.00    +0.131 C 
BRANCH  62  63
ATOM     63  N   LIG    1        1.388  -4.525  -3.452  0.00  0.00    -0.304 NA
ATOM     64  H   LIG    1        1.865  -5.361  -3.145  0.00  0.00    +0.123 HD
BRANCH  63  65
ATOM     65  C   LIG    1        2.232  -3.803  -4.407  0.00  0.00    +0.109 C 
BRANCH  65  66
ATOM     66  C   LIG    1        3.075  -2.690  -3.736  0.00  0.00    +0.151 C 
BRANCH  66  67
ATOM     67  C   LIG    1        4.006  -3.206  -2.613  0.00  0.00    +0.229 C 
ATOM     68  O   LIG    1        5.013  -3.863  -2.880  0.00  0.00    -0.274 OA
ATOM     69  N   LIG    1        3.651  -2.910  -1.361  0.00  0.00    -0.328 N 
ATOM     70  H   LIG    1        2.823  -2.360  -1.182  0.00  0.00    +0.145 HD
ATOM     71  H   LIG    1        4.221  -3.216  -0.586  0.00  0.00    +0.145 HD
ENDBRANCH  66  67
BRANCH  66  72
ATOM     72  N   LIG    1        3.915  -1.966  -4.706  0.00  0.00    -0.319 NA
ATOM     73  H   LIG    1        4.481  -2.601  -5.249  0.00  0.00    +0.119 HD
ATOM     74  H   LIG    1        4.541  -1.322  -4.241  0.00  0.00    +0.119 HD
ENDBRANCH  66  72
ENDBRANCH  65  66
ENDBRANCH  63  65
ENDBRANCH  62  63
BRANCH  62  75
ATOM     75  C   LIG    1       -0.562  -5.854  -2.923  0.00  0.00    +0.122 C 
BRANCH  75  76
ATOM     76  C   LIG    1       -1.955  -6.420  -3.252  0.00  0.00    +0.212 C 
ATOM     77  O   LIG    1       -2.748  -6.667  -2.347  0.00  0.00    -0.276 OA
ATOM     78  N   LIG    1       -2.258  -6.663  -4.530  0.00  0.00    -0.329 N 
ATOM     79  H   LIG    1       -1.604  -6.436  -5.265  0.00  0.00    +0.145 HD
ATOM     80  H   LIG    1       -3.161  -7.046  -4.771  0.00  0.00    +0.145 HD
ENDBRANCH  75  76
ENDBRANCH  62  75
ENDBRANCH  57  62
ENDBRANCH  50  52
ENDBRANCH   1  48
BRANCH   1  81
ATOM     81  C   LIG    1       -0.246  -0.161   0.815  0.00  0.00    +0.200 C 
BRANCH  81  82
ATOM     82  C   LIG    1        0.215  -1.564   1.200  0.00  0.00    +0.090 A 
ATOM     83  N   LIG    1        1.524  -2.031   1.009  0.00  0.00    -0.238 NA
ATOM     84  C   LIG    1        1.527  -3.273   1.473  0.00  0.00    +0.196 A 
ATOM     85  N   LIG    1        0.345  -3.648   1.958  0.00  0.00    -0.350 N 
ATOM     86  H   LIG    1        0.118  -4.543   2.367  0.00  0.00    +0.166 HD
ATOM     87  C   LIG    1       -0.511  -2.572   1.806  0.00  0.00    +0.110 A 
ENDBRANCH  81  82
BRANCH  81  88
ATOM     88  O   LIG    1       -1.678  -0.142   0.897  0.00  0.00    -0.337 OA
BRANCH  88  89
ATOM     89  C   LIG    1       -2.318   1.092   1.066  0.00  0.00    +0.283 C 
ATOM     90  O   LIG    1       -1.815   1.781   2.183  0.00  0.00    -0.340 OA
ATOM     91  C   LIG    1       -2.362   3.098   2.316  0.00  0.00    +0.178 C 
ATOM     92  C   LIG    1       -3.874   2.972   2.627  0.00  0.00    +0.177 C 
ATOM     93  C   LIG    1       -4.574   2.127   1.534  0.00  0.00    +0.179 C 
ATOM     94  C   LIG    1       -3.814   0.798   1.269  0.00  0.00    +0.208 C 
BRANCH  93  95
ATOM     95  O   LIG    1       -5.938   1.930   1.867  0.00  0.00    -0.386 OA
ATOM     96  H   LIG    1       -6.281   1.208   1.336  0.00  0.00    +0.210 HD
ENDBRANCH  93  95
BRANCH  92  97
ATOM     97  O   LIG    1       -4.095   2.453   3.931  0.00  0.00    -0.386 OA
ATOM     98  H   LIG    1       -5.040   2.461   4.104  0.00  0.00    +0.210 HD
ENDBRANCH  92  97
BRANCH  94  99
ATOM     99  O   LIG    1       -4.262   0.080   0.109  0.00  0.00    -0.338 OA
BRANCH  99 100
ATOM    100  C   LIG    1       -5.505  -0.582   0.093  0.00  0.00    +0.283 C 
ATOM    101  O   LIG    1       -5.681  -1.267  -1.121  0.00  0.00    -0.340 OA
ATOM    102  C   LIG    1       -4.719  -2.301  -1.390  0.00  0.00    +0.179 C 
ATOM    103  C   LIG    1       -4.602  -3.339  -0.232  0.00  0.00    +0.189 C 
ATOM    104  C   LIG    1       -4.554  -2.648   1.146  0.00  0.00    +0.242 C 
ATOM    105  C   LIG    1       -5.662  -1.577   1.258  0.00  0.00    +0.213 C 
BRANCH 105 106
ATOM    106  O   LIG    1       -6.964  -2.137   1.265  0.00  0.00    -0.383 OA
ATOM    107  H   LIG    1       -6.949  -2.934   1.800  0.00  0.00    +0.210 HD
ENDBRANCH 105 106
BRANCH 103 108
ATOM    108  O   LIG    1       -3.446  -4.144  -0.390  0.00  0.00    -0.385 OA
ATOM    109  H   LIG    1       -2.670  -3.580  -0.335  0.00  0.00    +0.210 HD
ENDBRANCH 103 108
BRANCH 102 110
ATOM    110  C   LIG    1       -5.138  -2.927  -2.739  0.00  0.00    +0.190 C 
BRANCH 110 111
ATOM    111  O   LIG    1       -4.176  -3.829  -3.239  0.00  0.00    -0.392 OA
ATOM    112  H   LIG    1       -4.113  -4.576  -2.637  0.00  0.00    +0.210 HD
ENDBRANCH 110 111
ENDBRANCH 102 110
BRANCH 104 113
ATOM    113  O   LIG    1       -4.616  -3.607   2.207  0.00  0.00    -0.442 OA
BRANCH 113 114
ATOM    114  C   LIG    1       -4.166  -3.327   3.450  0.00  0.00    +0.398 C 
ATOM    115  O   LIG    1       -3.677  -2.256   3.809  0.00  0.00    -0.227 OA
ATOM    116  N   LIG    1       -4.340  -4.428   4.257  0.00  0.00    -0.295 N 
ATOM    117  H   LIG    1       -4.750  -5.266   3.869  0.00  0.00    +0.148 HD
ATOM    118  H   LIG    1       -4.055  -4.383   5.224  0.00  0.00    +0.148 HD
ENDBRANCH 113 114
ENDBRANCH 104 113
ENDBRANCH  99 100
ENDBRANCH  94  99
BRANCH  91 119
ATOM    119  C   LIG    1       -1.568   3.874   3.387  0.00  0.00    +0.190 C 
BRANCH 119 120
ATOM    120  O   LIG    1       -0.242   4.106   2.954  0.00  0.00    -0.392 OA
ATOM    121  H   LIG    1        0.227   4.575   3.649  0.00  0.00    +0.210 HD
ENDBRANCH 119 120
ENDBRANCH  91 119
ENDBRANCH  88  89
ENDBRANCH  81  88
ENDBRANCH   1  81
TORSDOF 46
