REMARK  Name = DB00559
REMARK                            x       y       z     vdW  Elec       q    Type
REMARK                         _______ _______ _______ _____ _____    ______ ____
ROOT
ATOM      1  C   LIG    1        1.948  -0.598   1.211  0.00  0.00    +0.188 A 
ATOM      2  C   LIG    1        1.291   0.057   0.158  0.00  0.00    +0.231 A 
ATOM      3  C   LIG    1        2.084   0.502  -0.914  0.00  0.00    +0.264 A 
ATOM      4  N   LIG    1        3.437   0.319  -0.933  0.00  0.00    -0.187 NA
ATOM      5  C   LIG    1        3.990  -0.322   0.131  0.00  0.00    +0.203 A 
ATOM      6  N   LIG    1        3.295  -0.785   1.204  0.00  0.00    -0.204 NA
ENDROOT
BRANCH   5   7
ATOM      7  C   LIG    1        5.467  -0.550   0.114  0.00  0.00    +0.198 A 
ATOM      8  N   LIG    1        5.933  -1.709   0.664  0.00  0.00    -0.233 NA
ATOM      9  C   LIG    1        7.277  -1.901   0.634  0.00  0.00    +0.115 A 
ATOM     10  C   LIG    1        8.156  -0.973   0.071  0.00  0.00    +0.039 A 
ATOM     11  C   LIG    1        7.588   0.182  -0.469  0.00  0.00    +0.115 A 
ATOM     12  N   LIG    1        6.249   0.412  -0.457  0.00  0.00    -0.233 NA
ENDBRANCH   5   7
BRANCH   1  13
ATOM     13  N   LIG    1        1.194  -1.077   2.294  0.00  0.00    -0.196 N 
ATOM     14  H   LIG    1        0.189  -1.024   2.219  0.00  0.00    +0.175 HD
BRANCH  13  15
ATOM     15  S   LIG    1        1.878  -1.938   3.692  0.00  0.00    +0.074 S 
ATOM     16  O   LIG    1        0.769  -2.127   4.634  0.00  0.00    -0.150 OA
ATOM     17  O   LIG    1        3.103  -1.240   4.100  0.00  0.00    -0.150 OA
BRANCH  15  18
ATOM     18  C   LIG    1        2.321  -3.552   3.055  0.00  0.00    +0.109 A 
ATOM     19  C   LIG    1        3.632  -3.808   2.658  0.00  0.00    +0.029 A 
ATOM     20  C   LIG    1        3.963  -5.050   2.125  0.00  0.00    +0.006 A 
ATOM     21  C   LIG    1        2.993  -6.054   1.978  0.00  0.00    -0.042 A 
ATOM     22  C   LIG    1        1.677  -5.776   2.382  0.00  0.00    +0.006 A 
ATOM     23  C   LIG    1        1.342  -4.534   2.914  0.00  0.00    +0.029 A 
BRANCH  21  24
ATOM     24  C   LIG    1        3.402  -7.420   1.371  0.00  0.00    -0.013 C 
ATOM     25  C   LIG    1        4.516  -8.066   2.232  0.00  0.00    +0.015 C 
ATOM     26  C   LIG    1        2.230  -8.436   1.296  0.00  0.00    +0.015 C 
ATOM     27  C   LIG    1        3.928  -7.211  -0.071  0.00  0.00    +0.015 C 
ENDBRANCH  21  24
ENDBRANCH  15  18
ENDBRANCH  13  15
ENDBRANCH   1  13
BRANCH   3  28
ATOM     28  O   LIG    1        1.479   1.128  -1.990  0.00  0.00    -0.471 OA
BRANCH  28  29
ATOM     29  C   LIG    1        2.267   1.594  -3.086  0.00  0.00    +0.258 C 
BRANCH  29  30
ATOM     30  C   LIG    1        1.359   2.305  -4.100  0.00  0.00    +0.196 C 
BRANCH  30  31
ATOM     31  O   LIG    1        0.488   1.386  -4.727  0.00  0.00    -0.392 OA
ATOM     32  H   LIG    1       -0.078   1.867  -5.336  0.00  0.00    +0.210 HD
ENDBRANCH  30  31
ENDBRANCH  29  30
ENDBRANCH  28  29
ENDBRANCH   3  28
BRANCH   2  33
ATOM     33  O   LIG    1       -0.080   0.216   0.187  0.00  0.00    -0.443 OA
BRANCH  33  34
ATOM     34  C   LIG    1       -0.612   1.478   0.048  0.00  0.00    +0.170 A 
ATOM     35  C   LIG    1       -1.423   1.736  -1.061  0.00  0.00    +0.050 A 
ATOM     36  C   LIG    1       -1.983   2.998  -1.245  0.00  0.00    +0.004 A 
ATOM     37  C   LIG    1       -1.744   4.006  -0.315  0.00  0.00    +0.004 A 
ATOM     38  C   LIG    1       -0.948   3.753   0.801  0.00  0.00    +0.049 A 
ATOM     39  C   LIG    1       -0.376   2.483   1.001  0.00  0.00    +0.162 A 
BRANCH  39  40
ATOM     40  O   LIG    1        0.410   2.155   2.091  0.00  0.00    -0.491 OA
ATOM     41  C   LIG    1        0.683   3.140   3.081  0.00  0.00    +0.277 C 
ENDBRANCH  39  40
ENDBRANCH  33  34
ENDBRANCH   2  33
TORSDOF 12
