REMARK  Name = DB00693
REMARK                            x       y       z     vdW  Elec       q    Type
REMARK                         _______ _______ _______ _____ _____    ______ ____
ROOT
ATOM      1  C   LIG    1        1.404  -0.102  -0.068  0.00  0.00    +0.120 A 
ATOM      2  C   LIG    1        2.132  -1.233   0.297  0.00  0.00    +0.092 A 
ATOM      3  C   LIG    1        3.524  -1.165   0.368  0.00  0.00    +0.140 A 
ATOM      4  O   LIG    1        4.180  -2.318   0.735  0.00  0.00    -0.455 OA
ATOM      5  C   LIG    1        5.472  -2.519   0.305  0.00  0.00    +0.140 A 
ATOM      6  C   LIG    1        5.889  -3.844   0.176  0.00  0.00    +0.092 A 
ATOM      7  C   LIG    1        7.184  -4.121  -0.255  0.00  0.00    +0.120 A 
ATOM      8  C   LIG    1        8.052  -3.074  -0.563  0.00  0.00    +0.046 A 
ATOM      9  C   LIG    1        7.620  -1.753  -0.450  0.00  0.00    +0.015 A 
ATOM     10  C   LIG    1        6.319  -1.445  -0.019  0.00  0.00    +0.047 A 
ATOM     11  C   LIG    1        5.763  -0.010   0.064  0.00  0.00    +0.196 C 
ATOM     12  C   LIG    1        6.385   0.929  -0.945  0.00  0.00    +0.019 A 
ATOM     13  C   LIG    1        6.355   0.948  -2.341  0.00  0.00    +0.009 A 
ATOM     14  C   LIG    1        7.037   1.955  -3.028  0.00  0.00    +0.000 A 
ATOM     15  C   LIG    1        7.741   2.935  -2.322  0.00  0.00    +0.001 A 
ATOM     16  C   LIG    1        7.768   2.912  -0.925  0.00  0.00    +0.015 A 
ATOM     17  C   LIG    1        7.084   1.900  -0.250  0.00  0.00    +0.067 A 
ATOM     18  C   LIG    1        6.941   1.627   1.195  0.00  0.00    +0.341 C 
ATOM     19  O   LIG    1        7.396   2.236   2.161  0.00  0.00    -0.245 OA
ATOM     20  O   LIG    1        6.169   0.515   1.324  0.00  0.00    -0.440 OA
ATOM     21  C   LIG    1        4.222   0.014   0.050  0.00  0.00    +0.047 A 
ATOM     22  C   LIG    1        3.463   1.138  -0.314  0.00  0.00    +0.015 A 
ATOM     23  C   LIG    1        2.070   1.085  -0.368  0.00  0.00    +0.046 A 
ENDROOT
BRANCH   1  24
ATOM     24  O   LIG    1        0.037  -0.158  -0.130  0.00  0.00    -0.507 OA
ATOM     25  H   LIG    1       -0.359   0.678  -0.386  0.00  0.00    +0.292 HD
ENDBRANCH   1  24
BRANCH   7  26
ATOM     26  O   LIG    1        7.605  -5.419  -0.375  0.00  0.00    -0.507 OA
ATOM     27  H   LIG    1        8.514  -5.490  -0.675  0.00  0.00    +0.292 HD
ENDBRANCH   7  26
TORSDOF 2
