REMARK  Name = DB00404
REMARK                            x       y       z     vdW  Elec       q    Type
REMARK                         _______ _______ _______ _____ _____    ______ ____
ROOT
ATOM      1 CL   LIG    1        0.274  -4.625  -2.400  0.00  0.00    -0.084 Cl
ATOM      2  C   LIG    1       -0.541  -3.527  -1.346  0.00  0.00    +0.042 A 
ATOM      3  C   LIG    1       -1.733  -3.900  -0.739  0.00  0.00    +0.022 A 
ATOM      4  C   LIG    1       -2.387  -3.009   0.105  0.00  0.00    +0.028 A 
ATOM      5  C   LIG    1       -1.853  -1.740   0.365  0.00  0.00    +0.059 A 
ATOM      6  C   LIG    1       -0.638  -1.339  -0.254  0.00  0.00    +0.026 A 
ATOM      7  C   LIG    1        0.009   0.003  -0.066  0.00  0.00    +0.075 C 
ATOM      8  N   LIG    1       -0.603   1.136  -0.025  0.00  0.00    -0.275 NA
ATOM      9  C   LIG    1       -2.051   1.202  -0.139  0.00  0.00    +0.218 C 
ATOM     10  C   LIG    1       -2.731   0.492   1.020  0.00  0.00    +0.159 A 
ATOM     11  N   LIG    1       -3.457   1.031   1.967  0.00  0.00    -0.132 NA
ATOM     12  N   LIG    1       -3.796   0.013   2.849  0.00  0.00    -0.134 NA
ATOM     13  C   LIG    1       -3.256  -1.092   2.396  0.00  0.00    +0.135 A 
ATOM     14  C   LIG    1       -3.353  -2.422   3.117  0.00  0.00    +0.088 C 
ATOM     15  N   LIG    1       -2.577  -0.863   1.211  0.00  0.00    -0.281 N 
ATOM     16  C   LIG    1       -0.008  -2.262  -1.110  0.00  0.00    +0.032 A 
ENDROOT
BRANCH   7  17
ATOM     17  C   LIG    1        1.484   0.013   0.084  0.00  0.00    +0.001 A 
ATOM     18  C   LIG    1        2.260   0.978  -0.576  0.00  0.00    +0.010 A 
ATOM     19  C   LIG    1        3.645   0.986  -0.430  0.00  0.00    +0.001 A 
ATOM     20  C   LIG    1        4.260   0.034   0.378  0.00  0.00    +0.000 A 
ATOM     21  C   LIG    1        3.503  -0.927   1.043  0.00  0.00    +0.001 A 
ATOM     22  C   LIG    1        2.119  -0.937   0.899  0.00  0.00    +0.010 A 
ENDBRANCH   7  17
TORSDOF 1
