REMARK  Name = DB00997
REMARK                            x       y       z     vdW  Elec       q    Type
REMARK                         _______ _______ _______ _____ _____    ______ ____
ROOT
ATOM      1  C   LIG    1        1.313  -0.108  -0.099  0.00  0.00    +0.158 C 
ATOM      2  C   LIG    1        1.736  -1.592  -0.179  0.00  0.00    +0.030 A 
ATOM      3  C   LIG    1        1.531  -2.311  -1.369  0.00  0.00    +0.134 A 
ATOM      4  C   LIG    1        1.799  -3.696  -1.470  0.00  0.00    +0.078 A 
ATOM      5  C   LIG    1        1.569  -4.453  -2.768  0.00  0.00    +0.202 C 
ATOM      6  C   LIG    1        2.344  -5.737  -2.945  0.00  0.00    +0.075 A 
ATOM      7  C   LIG    1        2.601  -6.283  -4.229  0.00  0.00    +0.132 A 
ATOM      8  C   LIG    1        3.309  -7.492  -4.332  0.00  0.00    +0.046 A 
ATOM      9  C   LIG    1        3.766  -8.152  -3.200  0.00  0.00    +0.004 A 
ATOM     10  C   LIG    1        3.530  -7.613  -1.944  0.00  0.00    +0.012 A 
ATOM     11  C   LIG    1        2.825  -6.410  -1.796  0.00  0.00    +0.037 A 
ATOM     12  C   LIG    1        2.610  -5.860  -0.416  0.00  0.00    +0.198 C 
ATOM     13  O   LIG    1        2.831  -6.558   0.577  0.00  0.00    -0.286 OA
ATOM     14  O   LIG    1        0.895  -3.985  -3.687  0.00  0.00    -0.286 OA
ATOM     15  C   LIG    1        2.293  -4.378  -0.330  0.00  0.00    +0.078 A 
ATOM     16  C   LIG    1        2.499  -3.650   0.864  0.00  0.00    +0.132 A 
ATOM     17  C   LIG    1        2.217  -2.277   0.958  0.00  0.00    +0.007 A 
ATOM     18  C   LIG    1        2.493  -1.517   2.272  0.00  0.00    +0.082 C 
ATOM     19  C   LIG    1        1.651  -0.227   2.442  0.00  0.00    +0.133 C 
ATOM     20  C   LIG    1        1.849   0.610   1.163  0.00  0.00    +0.079 C 
ENDROOT
BRANCH   7  21
ATOM     21  O   LIG    1        2.155  -5.602  -5.353  0.00  0.00    -0.494 OA
ATOM     22  C   LIG    1        2.394  -6.125  -6.655  0.00  0.00    +0.277 C 
ENDBRANCH   7  21
BRANCH  16  23
ATOM     23  O   LIG    1        3.016  -4.261   1.985  0.00  0.00    -0.506 OA
ATOM     24  H   LIG    1        3.116  -3.660   2.726  0.00  0.00    +0.292 HD
ENDBRANCH  16  23
BRANCH   3  25
ATOM     25  O   LIG    1        1.058  -1.601  -2.451  0.00  0.00    -0.506 OA
ATOM     26  H   LIG    1        0.893  -0.678  -2.248  0.00  0.00    +0.292 HD
ENDBRANCH   3  25
BRANCH  19  27
ATOM     27  C   LIG    1        2.141   0.603   3.666  0.00  0.00    +0.190 C 
ATOM     28  O   LIG    1        3.345   0.672   3.928  0.00  0.00    -0.292 OA
BRANCH  27  29
ATOM     29  C   LIG    1        1.093   1.351   4.519  0.00  0.00    +0.233 C 
BRANCH  29  30
ATOM     30  O   LIG    1        1.716   2.093   5.552  0.00  0.00    -0.387 OA
ATOM     31  H   LIG    1        1.037   2.518   6.080  0.00  0.00    +0.210 HD
ENDBRANCH  29  30
ENDBRANCH  27  29
ENDBRANCH  19  27
BRANCH  19  32
ATOM     32  O   LIG    1        0.288  -0.562   2.652  0.00  0.00    -0.381 OA
ATOM     33  H   LIG    1       -0.239   0.236   2.572  0.00  0.00    +0.211 HD
ENDBRANCH  19  32
BRANCH   1  34
ATOM     34  O   LIG    1       -0.110  -0.042  -0.239  0.00  0.00    -0.343 OA
BRANCH  34  35
ATOM     35  C   LIG    1       -0.675   1.221  -0.458  0.00  0.00    +0.253 C 
ATOM     36  C   LIG    1       -1.774   1.082  -1.524  0.00  0.00    +0.082 C 
ATOM     37  C   LIG    1       -3.021   0.351  -0.993  0.00  0.00    +0.087 C 
ATOM     38  C   LIG    1       -3.494   0.999   0.324  0.00  0.00    +0.160 C 
ATOM     39  C   LIG    1       -2.302   1.077   1.306  0.00  0.00    +0.148 C 
ATOM     40  C   LIG    1       -2.651   1.719   2.659  0.00  0.00    +0.041 C 
ATOM     41  O   LIG    1       -1.182   1.771   0.736  0.00  0.00    -0.346 OA
BRANCH  37  42
ATOM     42  N   LIG    1       -4.060   0.205  -1.998  0.00  0.00    -0.325 NA
ATOM     43  H   LIG    1       -3.680  -0.253  -2.814  0.00  0.00    +0.119 HD
ATOM     44  H   LIG    1       -4.367   1.119  -2.302  0.00  0.00    +0.119 HD
ENDBRANCH  37  42
BRANCH  38  45
ATOM     45  O   LIG    1       -4.106   2.264   0.121  0.00  0.00    -0.388 OA
ATOM     46  H   LIG    1       -4.912   2.131  -0.385  0.00  0.00    +0.210 HD
ENDBRANCH  38  45
ENDBRANCH  34  35
ENDBRANCH   1  34
TORSDOF 11
