REMARK  Name = DB00663
REMARK                            x       y       z     vdW  Elec       q    Type
REMARK                         _______ _______ _______ _____ _____    ______ ____
ROOT
ATOM      1  C   LIG    1       -4.793  -1.501   6.237  0.00  0.00    +0.047 C 
ATOM      2  C   LIG    1       -3.614  -1.779   5.647  0.00  0.00    -0.009 C 
ATOM      3  C   LIG    1       -3.435  -2.465   4.282  0.00  0.00    +0.047 C 
ATOM      4  C   LIG    1       -2.747  -3.830   4.569  0.00  0.00    +0.023 C 
ATOM      5  C   LIG    1       -2.660  -1.532   3.258  0.00  0.00    +0.153 C 
ATOM      6  F   LIG    1       -3.394  -0.412   3.170  0.00  0.00    -0.238 F 
ATOM      7  C   LIG    1       -1.248  -0.999   3.723  0.00  0.00    +0.154 C 
ATOM      8  C   LIG    1       -0.534  -0.154   2.627  0.00  0.00    +0.044 C 
ATOM      9  C   LIG    1       -0.443  -0.863   1.238  0.00  0.00    +0.010 C 
ATOM     10  C   LIG    1        0.458  -2.146   1.327  0.00  0.00    +0.015 C 
ATOM     11  C   LIG    1       -0.037   0.051   0.015  0.00  0.00    +0.134 C 
ATOM     12  C   LIG    1       -0.620  -0.736  -1.217  0.00  0.00    +0.026 C 
ATOM     13  C   LIG    1       -0.933   0.108  -2.472  0.00  0.00    +0.011 C 
ATOM     14  C   LIG    1       -1.841  -1.520  -0.675  0.00  0.00    +0.011 C 
ATOM     15  C   LIG    1       -1.903  -1.181   0.823  0.00  0.00    +0.005 C 
ATOM     16  C   LIG    1       -2.635  -2.139   1.806  0.00  0.00    +0.037 C 
ATOM     17  C   LIG    1       -4.066  -2.477   1.325  0.00  0.00    +0.048 C 
ATOM     18  C   LIG    1       -4.812  -3.410   2.293  0.00  0.00    +0.194 C 
ATOM     19  F   LIG    1       -6.052  -3.608   1.839  0.00  0.00    -0.241 F 
ATOM     20  C   LIG    1       -4.846  -2.762   3.687  0.00  0.00    -0.020 C 
ATOM     21  C   LIG    1       -5.999  -2.456   4.336  0.00  0.00    +0.054 C 
ATOM     22  C   LIG    1       -6.090  -1.817   5.649  0.00  0.00    +0.179 C 
ATOM     23  O   LIG    1       -7.158  -1.567   6.204  0.00  0.00    -0.288 OA
ENDROOT
BRANCH   7  24
ATOM     24  O   LIG    1       -0.379  -1.991   4.231  0.00  0.00    -0.389 OA
ATOM     25  H   LIG    1       -0.806  -2.419   4.976  0.00  0.00    +0.210 HD
ENDBRANCH   7  24
BRANCH  11  26
ATOM     26  C   LIG    1        1.509   0.276  -0.090  0.00  0.00    +0.190 C 
ATOM     27  O   LIG    1        2.210  -0.473  -0.778  0.00  0.00    -0.292 OA
BRANCH  26  28
ATOM     28  C   LIG    1        2.137   1.456   0.687  0.00  0.00    +0.233 C 
BRANCH  28  29
ATOM     29  O   LIG    1        3.545   1.475   0.528  0.00  0.00    -0.387 OA
ATOM     30  H   LIG    1        3.894   2.244   0.985  0.00  0.00    +0.210 HD
ENDBRANCH  28  29
ENDBRANCH  26  28
ENDBRANCH  11  26
BRANCH  11  31
ATOM     31  O   LIG    1       -0.603   1.359   0.101  0.00  0.00    -0.380 OA
ATOM     32  H   LIG    1       -1.559   1.277   0.095  0.00  0.00    +0.211 HD
ENDBRANCH  11  31
TORSDOF 5
