REMARK  Name = DB00568
REMARK                            x       y       z     vdW  Elec       q    Type
REMARK                         _______ _______ _______ _____ _____    ______ ____
ROOT
ATOM      1  N   LIG    1        1.334  -0.066  -0.053  0.00  0.00    -0.289 NA
ATOM      2  C   LIG    1        1.745   0.607  -1.301  0.00  0.00    +0.100 C 
ATOM      3  C   LIG    1        3.286   0.590  -1.441  0.00  0.00    +0.100 C 
ATOM      4  N   LIG    1        3.907   1.301  -0.316  0.00  0.00    -0.296 NA
ATOM      5  C   LIG    1        3.498   0.651   0.935  0.00  0.00    +0.100 C 
ATOM      6  C   LIG    1        1.957   0.664   1.069  0.00  0.00    +0.100 C 
ENDROOT
BRANCH   1   7
ATOM      7  C   LIG    1       -0.140  -0.173   0.086  0.00  0.00    +0.117 C 
BRANCH   7   9
ATOM      8  C   LIG    1       -2.034  -0.345  -1.585  0.00  0.00    +0.005 A 
ATOM      9  C   LIG    1       -0.830  -0.865  -1.100  0.00  0.00    -0.026 A 
ATOM     10  C   LIG    1       -0.271  -1.999  -1.706  0.00  0.00    +0.005 A 
ATOM     11  C   LIG    1       -0.911  -2.603  -2.785  0.00  0.00    +0.000 A 
ATOM     12  C   LIG    1       -2.109  -2.075  -3.259  0.00  0.00    +0.000 A 
ATOM     13  C   LIG    1       -2.674  -0.949  -2.664  0.00  0.00    +0.000 A 
ENDBRANCH   7   9
BRANCH   7  14
ATOM     14  C   LIG    1       -0.592  -0.838   1.397  0.00  0.00    -0.026 A 
ATOM     15  C   LIG    1        0.100  -1.931   1.937  0.00  0.00    +0.005 A 
ATOM     16  C   LIG    1       -0.322  -2.504   3.133  0.00  0.00    +0.000 A 
ATOM     17  C   LIG    1       -1.437  -1.989   3.789  0.00  0.00    +0.000 A 
ATOM     18  C   LIG    1       -2.135  -0.906   3.259  0.00  0.00    +0.000 A 
ATOM     19  C   LIG    1       -1.712  -0.332   2.063  0.00  0.00    +0.005 A 
ENDBRANCH   7  14
ENDBRANCH   1   7
BRANCH   4  20
ATOM     20  C   LIG    1        5.365   1.300  -0.433  0.00  0.00    +0.111 C 
BRANCH  20  21
ATOM     21  C   LIG    1        5.912   2.196  -1.528  0.00  0.00    -0.011 C 
ATOM     22  C   LIG    1        6.697   1.765  -2.534  0.00  0.00    +0.005 C 
BRANCH  22  23
ATOM     23  C   LIG    1        7.264   2.582  -3.626  0.00  0.00    -0.025 A 
ATOM     24  C   LIG    1        7.274   3.983  -3.584  0.00  0.00    +0.008 A 
ATOM     25  C   LIG    1        7.814   4.714  -4.639  0.00  0.00    +0.001 A 
ATOM     26  C   LIG    1        8.344   4.048  -5.741  0.00  0.00    +0.000 A 
ATOM     27  C   LIG    1        8.339   2.657  -5.796  0.00  0.00    +0.001 A 
ATOM     28  C   LIG    1        7.800   1.927  -4.740  0.00  0.00    +0.008 A 
ENDBRANCH  22  23
ENDBRANCH  20  21
ENDBRANCH   4  20
TORSDOF 6
