REMARK  Name = DB00842
REMARK                            x       y       z     vdW  Elec       q    Type
REMARK                         _______ _______ _______ _____ _____    ______ ____
ROOT
ATOM      1 CL   LIG    1       -2.006  -3.992   4.202  0.00  0.00    -0.084 Cl
ATOM      2  C   LIG    1       -0.904  -2.751   3.727  0.00  0.00    +0.042 A 
ATOM      3  C   LIG    1       -0.807  -1.583   4.473  0.00  0.00    +0.022 A 
ATOM      4  C   LIG    1        0.075  -0.584   4.077  0.00  0.00    +0.025 A 
ATOM      5  C   LIG    1        0.888  -0.730   2.947  0.00  0.00    +0.043 A 
ATOM      6  C   LIG    1        0.803  -1.929   2.184  0.00  0.00    +0.023 A 
ATOM      7  C   LIG    1        1.657  -2.207   0.989  0.00  0.00    +0.078 C 
ATOM      8  N   LIG    1        1.968  -1.340   0.092  0.00  0.00    -0.243 NA
ATOM      9  C   LIG    1        1.467   0.031   0.140  0.00  0.00    +0.320 C 
ATOM     10  C   LIG    1        2.020   0.840   1.341  0.00  0.00    +0.269 C 
ATOM     11  O   LIG    1        2.708   1.847   1.186  0.00  0.00    -0.270 OA
ATOM     12  N   LIG    1        1.683   0.366   2.561  0.00  0.00    -0.281 N 
ATOM     13  H   LIG    1        1.990   0.960   3.317  0.00  0.00    +0.155 HD
ATOM     14  C   LIG    1       -0.111  -2.917   2.596  0.00  0.00    +0.032 A 
ENDROOT
BRANCH   7  15
ATOM     15  C   LIG    1        2.204  -3.578   0.851  0.00  0.00    +0.001 A 
ATOM     16  C   LIG    1        2.218  -4.212  -0.401  0.00  0.00    +0.010 A 
ATOM     17  C   LIG    1        2.736  -5.498  -0.531  0.00  0.00    +0.001 A 
ATOM     18  C   LIG    1        3.245  -6.154   0.587  0.00  0.00    +0.000 A 
ATOM     19  C   LIG    1        3.244  -5.535   1.834  0.00  0.00    +0.001 A 
ATOM     20  C   LIG    1        2.726  -4.249   1.966  0.00  0.00    +0.010 A 
ENDBRANCH   7  15
BRANCH   9  21
ATOM     21  O   LIG    1        0.050   0.153   0.093  0.00  0.00    -0.364 OA
ATOM     22  H   LIG    1       -0.170   1.067  -0.102  0.00  0.00    +0.212 HD
ENDBRANCH   9  21
TORSDOF 2
