REMARK  Name = DB00579
REMARK                            x       y       z     vdW  Elec       q    Type
REMARK                         _______ _______ _______ _____ _____    ______ ____
ROOT
ATOM      1  C   LIG    1        1.571  -0.074  -0.071  0.00  0.00    +0.256 C 
ATOM      2  C   LIG    1        2.058  -0.534   1.301  0.00  0.00    +0.045 A 
ATOM      3  C   LIG    1        1.767  -1.712   1.997  0.00  0.00    +0.011 A 
ATOM      4  C   LIG    1        2.329  -1.940   3.254  0.00  0.00    +0.001 A 
ATOM      5  C   LIG    1        3.177  -0.990   3.826  0.00  0.00    +0.001 A 
ATOM      6  C   LIG    1        3.460   0.196   3.148  0.00  0.00    +0.016 A 
ATOM      7  C   LIG    1        2.895   0.424   1.892  0.00  0.00    +0.075 A 
ATOM      8  C   LIG    1        2.977   1.546   0.976  0.00  0.00    +0.318 C 
ATOM      9  N   LIG    1        3.549   2.677   0.933  0.00  0.00    -0.079 NA
ATOM     10  C   LIG    1        3.151   3.285  -0.326  0.00  0.00    +0.334 C 
ATOM     11  C   LIG    1        2.218   2.303  -1.053  0.00  0.00    +0.279 C 
ATOM     12  N   LIG    1        2.200   1.232  -0.096  0.00  0.00    -0.180 N 
ENDROOT
BRANCH   1  17
ATOM     13 CL   LIG    1        3.283  -3.406  -4.851  0.00  0.00    -0.084 Cl
ATOM     14  C   LIG    1        2.800  -2.463  -3.489  0.00  0.00    +0.041 A 
ATOM     15  C   LIG    1        1.862  -1.447  -3.648  0.00  0.00    +0.020 A 
ATOM     16  C   LIG    1        1.474  -0.688  -2.548  0.00  0.00    +0.012 A 
ATOM     17  C   LIG    1        2.015  -0.936  -1.277  0.00  0.00    +0.031 A 
ATOM     18  C   LIG    1        2.964  -1.961  -1.138  0.00  0.00    +0.012 A 
ATOM     19  C   LIG    1        3.352  -2.722  -2.237  0.00  0.00    +0.020 A 
ENDBRANCH   1  17
BRANCH   1  20
ATOM     20  O   LIG    1        0.157   0.024  -0.103  0.00  0.00    -0.346 OA
ATOM     21  H   LIG    1       -0.116   0.647   0.574  0.00  0.00    +0.215 HD
ENDBRANCH   1  20
TORSDOF 2
