REMARK  Name = DB00226
REMARK                            x       y       z     vdW  Elec       q    Type
REMARK                         _______ _______ _______ _____ _____    ______ ____
ROOT
ATOM      1  O   LIG    1        3.309  -1.436  -0.003  0.00  0.00    -0.340 OA
ATOM      2  C   LIG    1        1.915  -1.284  -0.157  0.00  0.00    +0.184 C 
ATOM      3  C   LIG    1        1.500  -2.458  -1.046  0.00  0.00    +0.198 C 
ATOM      4  O   LIG    1        2.693  -3.175  -1.267  0.00  0.00    -0.346 OA
ATOM      5  C   LIG    1        3.760  -2.627  -0.558  0.00  0.00    +0.171 C 
ATOM      6  C   LIG    1        4.924  -2.349  -1.515  0.00  0.00    +0.065 C 
ATOM      7  C   LIG    1        5.427  -3.668  -2.144  0.00  0.00    +0.005 C 
ATOM      8  C   LIG    1        5.801  -4.713  -1.071  0.00  0.00    +0.000 C 
ATOM      9  C   LIG    1        4.669  -4.929  -0.043  0.00  0.00    +0.005 C 
ATOM     10  C   LIG    1        4.175  -3.594   0.560  0.00  0.00    +0.065 C 
ENDROOT
BRANCH   2  11
ATOM     11  C   LIG    1        1.654   0.120  -0.744  0.00  0.00    +0.277 C 
BRANCH  11  12
ATOM     12  N   LIG    1        0.222   0.346  -0.891  0.00  0.00    -0.111 NA
ATOM     13  C   LIG    1       -0.363   1.297  -0.276  0.00  0.00    +0.377 C 
BRANCH  13  14
ATOM     14  N   LIG    1        0.245   2.394   0.382  0.00  0.00    -0.289 N 
ATOM     15  H   LIG    1       -0.223   2.773   1.193  0.00  0.00    +0.255 HD
ATOM     16  H   LIG    1        1.243   2.357   0.525  0.00  0.00    +0.255 HD
ENDBRANCH  13  14
BRANCH  13  17
ATOM     17  N   LIG    1       -1.769   1.362  -0.186  0.00  0.00    -0.289 N 
ATOM     18  H   LIG    1       -2.168   1.771   0.646  0.00  0.00    +0.255 HD
ATOM     19  H   LIG    1       -2.291   0.548  -0.475  0.00  0.00    +0.255 HD
ENDBRANCH  13  17
ENDBRANCH  11  12
ENDBRANCH   2  11
TORSDOF 4
