REMARK  Name = DB00167
REMARK                            x       y       z     vdW  Elec       q    Type
REMARK                         _______ _______ _______ _____ _____    ______ ____
ROOT
ATOM      1  CA  ILE A  1        1.551  -0.041   0.050  0.00  0.00    +0.039 C 
ENDROOT
BRANCH   1   2
ATOM      2  N   ILE A  1        2.033  -1.466   0.076  0.00  0.00    +0.387 N 
ATOM      3  H1  ILE A  1        1.676  -1.918   0.906  0.00  0.00    -0.089 HD
ATOM      4  H2  ILE A  1        1.690  -1.940  -0.747  0.00  0.00    -0.089 HD
ATOM      5  H3  ILE A  1        3.043  -1.472   0.077  0.00  0.00    -0.089 HD
ENDBRANCH   1   2
BRANCH   1   6
ATOM      6  C   ILE A  1        2.177   0.672   1.306  0.00  0.00    +0.290 C 
ATOM      7  OXT ILE A  1        2.470   1.872   1.105  0.00  0.00    -0.253 OA
BRANCH   6   8
ATOM      8  O   ILE A  1        2.241   0.011   2.370  0.00  0.00    -0.482 OA
ATOM      9  H   ILE A  1        1.893  -0.859   2.404  0.00  0.00    +0.295 HD
ENDBRANCH   6   8
ENDBRANCH   1   6
BRANCH   1  10
ATOM     10  CB  ILE A  1       -0.006   0.085  -0.036  0.00  0.00    -0.018 C 
ATOM     11  CG2 ILE A  1       -0.531   1.537   0.054  0.00  0.00    +0.006 C 
BRANCH  10  12
ATOM     12  CG1 ILE A  1       -0.564  -0.608  -1.304  0.00  0.00    -0.001 C 
ATOM     13  CD1 ILE A  1       -2.089  -0.793  -1.302  0.00  0.00    +0.004 C 
ENDBRANCH  10  12
ENDBRANCH   1  10
TORSDOF 5
