REMARK  Name = DB00811
REMARK                            x       y       z     vdW  Elec       q    Type
REMARK                         _______ _______ _______ _____ _____    ______ ____
ROOT
ATOM      1  O4* LIG    1        1.939   1.090   0.586  0.00  0.00    -0.344 OA
ATOM      2  C1* LIG    1        1.449  -0.027  -0.102  0.00  0.00    +0.270 C 
ATOM      3  C2* LIG    1        2.026   0.053  -1.516  0.00  0.00    +0.196 C 
ATOM      4  C3* LIG    1        2.094   1.571  -1.700  0.00  0.00    +0.178 C 
ATOM      5  C4* LIG    1        2.416   2.106  -0.297  0.00  0.00    +0.177 C 
ENDROOT
BRANCH   2   6
ATOM      6  N   LIG    1       -0.001  -0.069  -0.036  0.00  0.00    -0.220 N 
ATOM      7  C   LIG    1       -0.834  -1.138   0.130  0.00  0.00    +0.223 A 
ATOM      8  N   LIG    1       -2.082  -0.755   0.094  0.00  0.00    -0.211 NA
ATOM      9  C   LIG    1       -2.003   0.562  -0.110  0.00  0.00    +0.236 A 
ATOM     10  N   LIG    1       -0.764   1.017  -0.206  0.00  0.00    -0.142 NA
BRANCH   9  11
ATOM     11  C   LIG    1       -3.151   1.441  -0.223  0.00  0.00    +0.281 C 
ATOM     12  N   LIG    1       -4.351   0.860  -0.099  0.00  0.00    -0.323 N 
ATOM     13  H   LIG    1       -5.192   1.414  -0.165  0.00  0.00    +0.145 HD
ATOM     14  H   LIG    1       -4.419  -0.135   0.061  0.00  0.00    +0.145 HD
ATOM     15  O   LIG    1       -3.032   2.651  -0.419  0.00  0.00    -0.267 OA
ENDBRANCH   9  11
ENDBRANCH   2   6
BRANCH   4  16
ATOM     16  O3* LIG    1        3.018   1.986  -2.690  0.00  0.00    -0.386 OA
ATOM     17  H3* LIG    1        3.117   2.940  -2.637  0.00  0.00    +0.210 HD
ENDBRANCH   4  16
BRANCH   3  18
ATOM     18  O2* LIG    1        3.281  -0.610  -1.537  0.00  0.00    -0.385 OA
ATOM     19  H2* LIG    1        3.637  -0.556  -2.427  0.00  0.00    +0.210 HD
ENDBRANCH   3  18
BRANCH   5  20
ATOM     20  C5* LIG    1        1.757   3.458   0.038  0.00  0.00    +0.190 C 
BRANCH  20  21
ATOM     21  O5* LIG    1        2.157   3.910   1.315  0.00  0.00    -0.392 OA
ATOM     22  H5* LIG    1        1.708   4.738   1.502  0.00  0.00    +0.210 HD
ENDBRANCH  20  21
ENDBRANCH   5  20
TORSDOF 6
