REMARK  Name = DB00447
REMARK                            x       y       z     vdW  Elec       q    Type
REMARK                         _______ _______ _______ _____ _____    ______ ____
ROOT
ATOM      1  N   LIG    1       -2.263   3.771   0.537  0.00  0.00    -0.258 N 
ATOM      2  C   LIG    1       -2.291   2.374   1.055  0.00  0.00    +0.111 C 
ATOM      3  C   LIG    1       -1.365   2.338   2.304  0.00  0.00    +0.031 C 
ATOM      4  C   LIG    1       -1.745   3.419   3.347  0.00  0.00    +0.051 C 
ATOM      5  C   LIG    1       -1.962   4.777   2.673  0.00  0.00    +0.047 C 
ATOM      6 CL   LIG    1       -1.840   6.157   3.784  0.00  0.00    -0.086 Cl
ATOM      7  CA  LIG    1       -1.791   1.897  -0.339  0.00  0.00    +0.180 C 
ATOM      8  CA  LIG    1       -2.171   4.885   1.333  0.00  0.00    +0.136 C 
ATOM      9  C   LIG    1       -1.749   3.406  -0.715  0.00  0.00    +0.242 C 
ATOM     10  O   LIG    1       -1.325   4.041  -1.679  0.00  0.00    -0.273 OA
ENDROOT
BRANCH   7  11
ATOM     11  N   LIG    1       -0.471   1.268  -0.411  0.00  0.00    -0.301 N 
ATOM     12  H   LIG    1        0.254   1.784  -0.888  0.00  0.00    +0.150 HD
ATOM     13  C   LIG    1       -0.204   0.034   0.050  0.00  0.00    +0.235 C 
ATOM     14  O   LIG    1       -1.046  -0.693   0.583  0.00  0.00    -0.274 OA
BRANCH  13  15
ATOM     15  CA  LIG    1        1.254  -0.453  -0.101  0.00  0.00    +0.168 C 
BRANCH  15  16
ATOM     16  C   LIG    1        1.854  -0.868   1.230  0.00  0.00    -0.022 A 
ATOM     17  C   LIG    1        2.292  -2.181   1.458  0.00  0.00    +0.005 A 
ATOM     18  C   LIG    1        2.843  -2.538   2.686  0.00  0.00    +0.000 A 
ATOM     19  C   LIG    1        2.967  -1.583   3.692  0.00  0.00    +0.000 A 
ATOM     20  C   LIG    1        2.546  -0.274   3.479  0.00  0.00    +0.000 A 
ATOM     21  C   LIG    1        1.995   0.083   2.252  0.00  0.00    +0.005 A 
ENDBRANCH  15  16
BRANCH  15  22
ATOM     22  N   LIG    1        1.228  -1.431  -1.205  0.00  0.00    -0.316 NA
ATOM     23  H1  LIG    1        2.149  -1.815  -1.362  0.00  0.00    +0.119 HD
ATOM     24  H2  LIG    1        0.954  -0.988  -2.071  0.00  0.00    +0.119 HD
ENDBRANCH  15  22
ENDBRANCH  13  15
ENDBRANCH   7  11
BRANCH   8  25
ATOM     25  C   LIG    1       -2.377   6.179   0.706  0.00  0.00    +0.352 C 
ATOM     26  OXT LIG    1       -1.671   6.636  -0.191  0.00  0.00    -0.244 OA
BRANCH  25  27
ATOM     27  O   LIG    1       -3.484   6.816   1.188  0.00  0.00    -0.476 OA
ATOM     28  H   LIG    1       -3.632   7.662   0.761  0.00  0.00    +0.295 HD
ENDBRANCH  25  27
ENDBRANCH   8  25
TORSDOF 6
