REMARK  Name = DB00672
REMARK                            x       y       z     vdW  Elec       q    Type
REMARK                         _______ _______ _______ _____ _____    ______ ____
ROOT
ATOM      1  S   LIG    1       -3.533   1.929  -0.074  0.00  0.00    +0.076 S 
ATOM      2  O   LIG    1       -4.749   1.229  -0.504  0.00  0.00    -0.150 OA
ATOM      3  O   LIG    1       -3.148   3.204  -0.691  0.00  0.00    -0.150 OA
ENDROOT
BRANCH   1   8
ATOM      4 CL   LIG    1       -4.010   2.888   6.132  0.00  0.00    -0.084 Cl
ATOM      5  C   LIG    1       -3.881   2.627   4.431  0.00  0.00    +0.041 A 
ATOM      6  C   LIG    1       -3.080   3.470   3.660  0.00  0.00    +0.022 A 
ATOM      7  C   LIG    1       -2.977   3.260   2.288  0.00  0.00    +0.030 A 
ATOM      8  C   LIG    1       -3.675   2.207   1.691  0.00  0.00    +0.109 A 
ATOM      9  C   LIG    1       -4.472   1.361   2.466  0.00  0.00    +0.030 A 
ATOM     10  C   LIG    1       -4.576   1.573   3.838  0.00  0.00    +0.022 A 
ENDBRANCH   1   8
BRANCH   1  11
ATOM     11  N   LIG    1       -2.189   0.802  -0.246  0.00  0.00    -0.169 N 
ATOM     12  H   LIG    1       -2.454  -0.155  -0.492  0.00  0.00    +0.178 HD
ATOM     13  C   LIG    1       -0.833   1.102   0.001  0.00  0.00    +0.319 C 
ATOM     14  N   LIG    1       -0.022   0.049  -0.191  0.00  0.00    -0.298 N 
ATOM     15  H   LIG    1       -0.424  -0.826  -0.492  0.00  0.00    +0.150 HD
ATOM     16  O   LIG    1       -0.450   2.216   0.360  0.00  0.00    -0.251 OA
BRANCH  14  17
ATOM     17  C   LIG    1        1.427   0.064   0.007  0.00  0.00    +0.105 C 
BRANCH  17  18
ATOM     18  C   LIG    1        1.851  -0.003   1.487  0.00  0.00    +0.015 C 
ATOM     19  C   LIG    1        3.374  -0.012   1.672  0.00  0.00    +0.005 C 
ENDBRANCH  17  18
ENDBRANCH  14  17
ENDBRANCH   1  11
TORSDOF 4
