REMARK  Name = DB00673
REMARK                            x       y       z     vdW  Elec       q    Type
REMARK                         _______ _______ _______ _____ _____    ______ ____
ROOT
ATOM      1  C   LIG    1        1.822  -1.532  -0.654  0.00  0.00    +0.272 C 
ATOM      2  O   LIG    1        1.572  -1.942  -1.975  0.00  0.00    -0.348 OA
ATOM      3  C   LIG    1        2.252  -3.156  -2.311  0.00  0.00    +0.178 C 
ATOM      4  C   LIG    1        3.774  -3.084  -2.062  0.00  0.00    +0.113 C 
ATOM      5  N   LIG    1        4.055  -2.555  -0.726  0.00  0.00    -0.282 NA
ATOM      6  C   LIG    1        3.334  -1.304  -0.441  0.00  0.00    +0.144 C 
ENDROOT
BRANCH   6   7
ATOM      7  C   LIG    1        3.898  -0.027  -1.096  0.00  0.00    -0.025 A 
ATOM      8  C   LIG    1        4.577   0.901  -0.298  0.00  0.00    +0.008 A 
ATOM      9  C   LIG    1        5.092   2.067  -0.857  0.00  0.00    +0.038 A 
ATOM     10  C   LIG    1        4.927   2.311  -2.218  0.00  0.00    +0.123 A 
ATOM     11  F   LIG    1        5.426   3.444  -2.762  0.00  0.00    -0.205 F 
ATOM     12  C   LIG    1        4.251   1.398  -3.022  0.00  0.00    +0.038 A 
ATOM     13  C   LIG    1        3.737   0.232  -2.463  0.00  0.00    +0.008 A 
ENDBRANCH   6   7
BRANCH   5  14
ATOM     14  C   LIG    1        5.488  -2.527  -0.402  0.00  0.00    +0.161 C 
BRANCH  14  15
ATOM     15  C   LIG    1        6.018  -3.825   0.203  0.00  0.00    +0.145 A 
ATOM     16  N   LIG    1        5.396  -4.881   0.502  0.00  0.00    -0.155 NA
ATOM     17  N   LIG    1        6.328  -5.684   1.003  0.00  0.00    -0.227 N 
ATOM     18  H   LIG    1        6.053  -6.604   1.317  0.00  0.00    +0.194 HD
ATOM     19  C   LIG    1        7.558  -5.161   1.014  0.00  0.00    +0.342 A 
ATOM     20  O   LIG    1        8.617  -5.655   1.394  0.00  0.00    -0.245 OA
ATOM     21  N   LIG    1        7.322  -3.950   0.498  0.00  0.00    -0.293 N 
ATOM     22  H   LIG    1        8.035  -3.252   0.344  0.00  0.00    +0.172 HD
ENDBRANCH  14  15
ENDBRANCH   5  14
BRANCH   1  23
ATOM     23  O   LIG    1        1.168  -0.327  -0.378  0.00  0.00    -0.342 OA
BRANCH  23  24
ATOM     24  C   LIG    1       -0.250  -0.398  -0.223  0.00  0.00    +0.148 C 
ATOM     25  C   LIG    1       -0.806   1.022  -0.403  0.00  0.00    +0.043 C 
BRANCH  24  26
ATOM     26  C   LIG    1       -0.620  -0.981   1.142  0.00  0.00    -0.018 A 
ATOM     27  C   LIG    1        0.121  -0.655   2.283  0.00  0.00    +0.018 A 
ATOM     28  C   LIG    1       -0.208  -1.195   3.530  0.00  0.00    +0.056 A 
ATOM     29  C   LIG    1       -1.296  -2.072   3.627  0.00  0.00    +0.024 A 
ATOM     30  C   LIG    1       -2.050  -2.408   2.495  0.00  0.00    +0.056 A 
ATOM     31  C   LIG    1       -1.702  -1.856   1.257  0.00  0.00    +0.018 A 
BRANCH  28  32
ATOM     32  C   LIG    1        0.623  -0.819   4.755  0.00  0.00    +0.417 C 
ATOM     33  F   LIG    1        0.271  -1.510   5.842  0.00  0.00    -0.166 F 
ATOM     34  F   LIG    1        0.463   0.478   5.017  0.00  0.00    -0.166 F 
ATOM     35  F   LIG    1        1.914  -1.053   4.517  0.00  0.00    -0.166 F 
ENDBRANCH  28  32
BRANCH  30  36
ATOM     36  C   LIG    1       -3.238  -3.363   2.590  0.00  0.00    +0.417 C 
ATOM     37  F   LIG    1       -2.903  -4.532   2.045  0.00  0.00    -0.166 F 
ATOM     38  F   LIG    1       -4.286  -2.867   1.929  0.00  0.00    -0.166 F 
ATOM     39  F   LIG    1       -3.613  -3.582   3.852  0.00  0.00    -0.166 F 
ENDBRANCH  30  36
ENDBRANCH  24  26
ENDBRANCH  23  24
ENDBRANCH   1  23
TORSDOF 8
