REMARK  Name = DB00741
REMARK                            x       y       z     vdW  Elec       q    Type
REMARK                         _______ _______ _______ _____ _____    ______ ____
ROOT
ATOM      1  C   LIG    1       -4.023  -2.566   1.293  0.00  0.00    +0.008 C 
ATOM      2  C   LIG    1       -4.840  -3.416   2.284  0.00  0.00    +0.032 C 
ATOM      3  C   LIG    1       -4.888  -2.662   3.611  0.00  0.00    -0.060 C 
ATOM      4  C   LIG    1       -3.498  -2.446   4.271  0.00  0.00    -0.005 C 
ATOM      5  C   LIG    1       -2.852  -3.838   4.546  0.00  0.00    +0.016 C 
ATOM      6  C   LIG    1       -2.683  -1.552   3.248  0.00  0.00    +0.031 C 
ATOM      7  C   LIG    1       -1.282  -1.032   3.744  0.00  0.00    +0.119 C 
ATOM      8  C   LIG    1       -0.554  -0.186   2.660  0.00  0.00    +0.041 C 
ATOM      9  C   LIG    1       -0.436  -0.892   1.272  0.00  0.00    +0.009 C 
ATOM     10  C   LIG    1        0.486  -2.159   1.363  0.00  0.00    +0.015 C 
ATOM     11  C   LIG    1       -0.029   0.033   0.059  0.00  0.00    +0.131 C 
ATOM     12  C   LIG    1       -0.598  -0.739  -1.175  0.00  0.00    +0.043 C 
ATOM     13  C   LIG    1       -1.790  -1.573  -0.657  0.00  0.00    +0.008 C 
ATOM     14  C   LIG    1       -1.884  -1.235   0.839  0.00  0.00    +0.002 C 
ATOM     15  C   LIG    1       -3.692  -1.759   5.667  0.00  0.00    +0.019 C 
ATOM     16  C   LIG    1       -4.794  -0.685   5.732  0.00  0.00    +0.080 C 
ATOM     17  C   LIG    1       -6.128  -1.256   5.241  0.00  0.00    +0.156 C 
ATOM     18  O   LIG    1       -7.207  -0.909   5.717  0.00  0.00    -0.293 OA
ATOM     19  C   LIG    1       -6.039  -2.124   4.078  0.00  0.00    +0.046 C 
ATOM     20  C   LIG    1       -2.609  -2.203   1.815  0.00  0.00    -0.001 C 
ENDROOT
BRANCH   7  21
ATOM     21  O   LIG    1       -0.431  -2.040   4.251  0.00  0.00    -0.391 OA
ATOM     22  H   LIG    1       -0.882  -2.483   4.974  0.00  0.00    +0.210 HD
ENDBRANCH   7  21
BRANCH  11  23
ATOM     23  C   LIG    1        1.513   0.276  -0.037  0.00  0.00    +0.190 C 
ATOM     24  O   LIG    1        2.228  -0.464  -0.719  0.00  0.00    -0.292 OA
BRANCH  23  25
ATOM     25  C   LIG    1        2.116   1.463   0.748  0.00  0.00    +0.233 C 
BRANCH  25  26
ATOM     26  O   LIG    1        3.525   1.500   0.607  0.00  0.00    -0.387 OA
ATOM     27  H   LIG    1        3.862   2.256   1.093  0.00  0.00    +0.210 HD
ENDBRANCH  25  26
ENDBRANCH  23  25
ENDBRANCH  11  23
BRANCH  11  28
ATOM     28  O   LIG    1       -0.620   1.329   0.110  0.00  0.00    -0.380 OA
ATOM     29  H   LIG    1       -1.575   1.227   0.095  0.00  0.00    +0.211 HD
ENDBRANCH  11  28
TORSDOF 5
