REMARK  Name = DB00218
REMARK                            x       y       z     vdW  Elec       q    Type
REMARK                         _______ _______ _______ _____ _____    ______ ____
ROOT
ATOM      1  F   LIG    1        4.913  -0.234  -2.003  0.00  0.00    -0.203 F 
ATOM      2  C   LIG    1        4.015  -0.133  -0.993  0.00  0.00    +0.149 A 
ATOM      3  C   LIG    1        4.473  -0.169   0.318  0.00  0.00    +0.054 A 
ATOM      4  C   LIG    1        3.590  -0.087   1.403  0.00  0.00    +0.052 A 
ATOM      5  C   LIG    1        4.154  -0.101   2.809  0.00  0.00    +0.204 A 
ATOM      6  C   LIG    1        3.142   0.156   3.877  0.00  0.00    +0.122 A 
ATOM      7  C   LIG    1        1.829   0.195   3.527  0.00  0.00    +0.105 A 
ATOM      8  N   LIG    1        1.326  -0.033   2.258  0.00  0.00    -0.340 N 
ATOM      9  O   LIG    1        5.361  -0.271   3.002  0.00  0.00    -0.286 OA
ATOM     10  C   LIG    1        2.202   0.004   1.140  0.00  0.00    +0.097 A 
ATOM     11  C   LIG    1        1.746   0.117  -0.194  0.00  0.00    +0.168 A 
ATOM     12  C   LIG    1        2.653   0.019  -1.264  0.00  0.00    +0.110 A 
ENDROOT
BRANCH  12  13
ATOM     13  N   LIG    1        2.225   0.047  -2.596  0.00  0.00    -0.323 N 
ATOM     14  C   LIG    1        2.298   1.228  -3.457  0.00  0.00    +0.124 C 
ATOM     15  C   LIG    1        1.310   1.030  -4.615  0.00  0.00    +0.075 C 
ATOM     16  C   LIG    1        1.098  -0.489  -4.666  0.00  0.00    +0.025 C 
ATOM     17  C   LIG    1        2.066  -1.152  -5.664  0.00  0.00    +0.008 C 
ATOM     18  C   LIG    1        1.879  -0.547  -7.074  0.00  0.00    +0.015 C 
ATOM     19  C   LIG    1        1.324   0.906  -7.065  0.00  0.00    +0.081 C 
ATOM     20  N   LIG    1        1.746   1.649  -5.876  0.00  0.00    -0.311 NA
ATOM     21  H   LIG    1        1.433   2.608  -5.911  0.00  0.00    +0.122 HD
ATOM     22  C   LIG    1        1.279  -0.886  -3.202  0.00  0.00    +0.110 C 
ENDBRANCH  12  13
BRANCH   8  23
ATOM     23  C   LIG    1       -0.069  -0.488   2.185  0.00  0.00    +0.088 C 
ATOM     24  C   LIG    1       -0.364  -1.779   1.430  0.00  0.00    +0.027 C 
ATOM     25  C   LIG    1       -0.433  -1.770   2.924  0.00  0.00    +0.027 C 
ENDBRANCH   8  23
BRANCH   6  26
ATOM     26  C   LIG    1        3.548   0.384   5.268  0.00  0.00    +0.342 C 
ATOM     27  O   LIG    1        4.716   0.432   5.653  0.00  0.00    -0.245 OA
BRANCH  26  28
ATOM     28  O   LIG    1        2.507   0.544   6.142  0.00  0.00    -0.477 OA
ATOM     29  H   LIG    1        2.810   0.687   7.041  0.00  0.00    +0.295 HD
ENDBRANCH  26  28
ENDBRANCH   6  26
BRANCH  11  30
ATOM     30  O   LIG    1        0.415   0.334  -0.473  0.00  0.00    -0.491 OA
ATOM     31  C   LIG    1        0.012   1.695  -0.380  0.00  0.00    +0.277 C 
ENDBRANCH  11  30
TORSDOF 5
