REMARK  Name = DB00704
REMARK                            x       y       z     vdW  Elec       q    Type
REMARK                         _______ _______ _______ _____ _____    ______ ____
ROOT
ATOM      1  O   LIG    1       -1.972   1.468  -4.513  0.00  0.00    -0.476 OA
ATOM      2  C   LIG    1       -2.731   1.427  -3.363  0.00  0.00    +0.167 A 
ATOM      3  C   LIG    1       -4.110   1.271  -3.241  0.00  0.00    +0.159 A 
ATOM      4  C   LIG    1       -4.676   1.379  -1.963  0.00  0.00    +0.049 A 
ATOM      5  C   LIG    1       -3.870   1.662  -0.846  0.00  0.00    +0.008 A 
ATOM      6  C   LIG    1       -2.479   1.803  -0.974  0.00  0.00    -0.038 A 
ATOM      7  C   LIG    1       -1.528   2.192   0.165  0.00  0.00    +0.057 C 
ATOM      8  C   LIG    1       -0.025   1.953  -0.207  0.00  0.00    +0.094 C 
ATOM      9  C   LIG    1        0.310   2.472  -1.665  0.00  0.00    +0.096 C 
ATOM     10  C   LIG    1        0.003   3.970  -1.937  0.00  0.00    +0.045 C 
ATOM     11  C   LIG    1        0.202   4.372  -3.419  0.00  0.00    +0.081 C 
ATOM     12  C   LIG    1       -0.680   3.542  -4.364  0.00  0.00    +0.175 C 
ATOM     13  O   LIG    1       -1.390   4.080  -5.213  0.00  0.00    -0.293 OA
ATOM     14  C   LIG    1       -0.499   1.574  -2.647  0.00  0.00    +0.075 C 
ATOM     15  C   LIG    1        0.033   0.117  -2.496  0.00  0.00    +0.034 C 
ATOM     16  C   LIG    1       -0.134  -0.416  -1.054  0.00  0.00    +0.086 C 
ATOM     17  N   LIG    1        0.325   0.519  -0.003  0.00  0.00    -0.296 NA
ATOM     18  C   LIG    1       -1.950   1.616  -2.251  0.00  0.00    +0.014 A 
ATOM     19  C   LIG    1       -0.679   2.003  -4.132  0.00  0.00    +0.252 C 
ENDROOT
BRANCH   9  20
ATOM     20  O   LIG    1        1.697   2.348  -1.964  0.00  0.00    -0.386 OA
ATOM     21  H   LIG    1        1.952   1.432  -1.826  0.00  0.00    +0.210 HD
ENDBRANCH   9  20
BRANCH   3  22
ATOM     22  O   LIG    1       -4.890   1.050  -4.346  0.00  0.00    -0.503 OA
ATOM     23  H   LIG    1       -5.823   0.971  -4.135  0.00  0.00    +0.292 HD
ENDBRANCH   3  22
BRANCH  17  24
ATOM     24  C   LIG    1        1.723   0.311   0.395  0.00  0.00    +0.088 C 
BRANCH  24  25
ATOM     25  C   LIG    1        1.955  -1.059   1.071  0.00  0.00    +0.003 C 
ATOM     26  C   LIG    1        2.438  -1.106   2.501  0.00  0.00    +0.005 C 
ATOM     27  C   LIG    1        1.033  -1.561   2.160  0.00  0.00    +0.005 C 
ENDBRANCH  24  25
ENDBRANCH  17  24
TORSDOF 4
