REMARK  Name = DB00935
REMARK                            x       y       z     vdW  Elec       q    Type
REMARK                         _______ _______ _______ _____ _____    ______ ____
ROOT
ATOM      1  C   LIG    1       -2.076   1.224  -0.028  0.00  0.00    +0.124 A 
ATOM      2  C   LIG    1       -0.669   1.190   0.041  0.00  0.00    -0.005 A 
ATOM      3  C   LIG    1        0.128   2.500   0.076  0.00  0.00    +0.048 C 
ATOM      4  C   LIG    1        0.003  -0.049   0.094  0.00  0.00    -0.027 A 
ATOM      5  C   LIG    1       -0.748  -1.236   0.095  0.00  0.00    -0.046 A 
ATOM      6  C   LIG    1       -0.088  -2.609   0.181  0.00  0.00    +0.044 C 
ATOM      7  C   LIG    1       -2.139  -1.179   0.033  0.00  0.00    +0.011 A 
ATOM      8  C   LIG    1       -2.840   0.035  -0.035  0.00  0.00    -0.000 A 
ENDROOT
BRANCH   8   9
ATOM      9  C   LIG    1       -4.402   0.046  -0.111  0.00  0.00    -0.009 C 
ATOM     10  C   LIG    1       -5.005   0.790   1.110  0.00  0.00    +0.015 C 
ATOM     11  C   LIG    1       -4.878   0.708  -1.431  0.00  0.00    +0.015 C 
ATOM     12  C   LIG    1       -5.028  -1.378  -0.095  0.00  0.00    +0.015 C 
ENDBRANCH   8   9
BRANCH   1  13
ATOM     13  O   LIG    1       -2.699   2.447  -0.097  0.00  0.00    -0.506 OA
ATOM     14  H   LIG    1       -2.080   3.180  -0.076  0.00  0.00    +0.292 HD
ENDBRANCH   1  13
BRANCH   4  15
ATOM     15  C   LIG    1        1.542  -0.111   0.144  0.00  0.00    +0.163 C 
BRANCH  15  16
ATOM     16  C   LIG    1        2.147  -0.126   1.546  0.00  0.00    +0.285 C 
ATOM     17  N   LIG    1        1.548   0.066   2.652  0.00  0.00    -0.084 NA
ATOM     18  C   LIG    1        2.524  -0.064   3.706  0.00  0.00    +0.333 C 
ATOM     19  C   LIG    1        3.890  -0.124   3.037  0.00  0.00    +0.273 C 
ATOM     20  N   LIG    1        3.504  -0.318   1.665  0.00  0.00    -0.233 N 
ATOM     21  H   LIG    1        4.248  -0.056   1.035  0.00  0.00    +0.291 HD
ENDBRANCH  15  16
ENDBRANCH   4  15
TORSDOF 4
