REMARK  Name = DB00485
REMARK                            x       y       z     vdW  Elec       q    Type
REMARK                         _______ _______ _______ _____ _____    ______ ____
ROOT
ATOM      1  N   LIG    1        1.370  -0.024  -0.139  0.00  0.00    -0.298 N 
ATOM      2  H   LIG    1        1.740   0.908  -0.019  0.00  0.00    +0.150 HD
ATOM      3  C   LIG    1        2.246  -1.027  -0.311  0.00  0.00    +0.250 C 
ATOM      4  O   LIG    1        1.922  -2.212  -0.404  0.00  0.00    -0.270 OA
ENDROOT
BRANCH   1   5
ATOM      5  CA  LIG    1       -0.075  -0.153   0.018  0.00  0.00    +0.190 C 
ATOM      6  C   LIG    1       -0.638  -0.309   1.450  0.00  0.00    +0.165 C 
ATOM      7  S   LIG    1        0.305   0.117   2.938  0.00  0.00    -0.127 S 
ATOM      8  C   LIG    1       -1.023   1.182   3.577  0.00  0.00    +0.042 C 
ATOM      9  C   LIG    1       -2.037   0.215   4.254  0.00  0.00    +0.025 C 
ATOM     10  C   LIG    1       -0.520   2.157   4.661  0.00  0.00    +0.025 C 
ATOM     11  CA  LIG    1       -1.600   1.882   2.295  0.00  0.00    +0.201 C 
ATOM     12  N   LIG    1       -1.447   0.913   1.200  0.00  0.00    -0.271 N 
ATOM     13  C   LIG    1       -0.810   1.204  -0.011  0.00  0.00    +0.240 C 
ATOM     14  O   LIG    1       -0.776   2.207  -0.722  0.00  0.00    -0.273 OA
BRANCH  11  15
ATOM     15  C   LIG    1       -3.036   2.431   2.441  0.00  0.00    +0.327 C 
ATOM     16  OXT LIG    1       -4.011   1.942   1.908  0.00  0.00    -0.249 OA
BRANCH  15  17
ATOM     17  O   LIG    1       -3.038   3.553   3.216  0.00  0.00    -0.479 OA
ATOM     18  H   LIG    1       -3.916   3.929   3.310  0.00  0.00    +0.295 HD
ENDBRANCH  15  17
ENDBRANCH  11  15
ENDBRANCH   1   5
BRANCH   3  19
ATOM     19  C   LIG    1        3.625  -0.599  -0.398  0.00  0.00    +0.106 A 
ATOM     20  C   LIG    1        4.696  -1.330  -0.898  0.00  0.00    +0.147 A 
ATOM     21  C   LIG    1        4.864  -2.685  -1.550  0.00  0.00    +0.090 C 
ATOM     22  O   LIG    1        5.835  -0.611  -0.744  0.00  0.00    -0.359 OA
ATOM     23  N   LIG    1        5.530   0.593  -0.115  0.00  0.00    -0.077 NA
ATOM     24  C   LIG    1        4.235   0.573   0.108  0.00  0.00    +0.128 A 
BRANCH  24  25
ATOM     25  C   LIG    1        3.608   1.716   0.842  0.00  0.00    +0.041 A 
ATOM     26  C   LIG    1        3.008   2.775   0.137  0.00  0.00    +0.052 A 
ATOM     27 CL   LIG    1        3.004   2.820  -1.593  0.00  0.00    -0.083 Cl
ATOM     28  C   LIG    1        2.382   3.812   0.830  0.00  0.00    +0.021 A 
ATOM     29  C   LIG    1        2.347   3.807   2.222  0.00  0.00    +0.003 A 
ATOM     30  C   LIG    1        2.941   2.764   2.928  0.00  0.00    +0.021 A 
ATOM     31  C   LIG    1        3.566   1.718   2.247  0.00  0.00    +0.052 A 
ATOM     32 CL   LIG    1        4.257   0.429   3.174  0.00  0.00    -0.083 Cl
ENDBRANCH  24  25
ENDBRANCH   3  19
TORSDOF 5
