REMARK  Name = DB00695
REMARK                            x       y       z     vdW  Elec       q    Type
REMARK                         _______ _______ _______ _____ _____    ______ ____
ROOT
ATOM      1 CL   LIG    1        4.288   2.801   0.191  0.00  0.00    -0.081 Cl
ATOM      2  C   LIG    1        3.504   1.259   0.133  0.00  0.00    +0.069 A 
ATOM      3  C   LIG    1        2.118   1.226   0.244  0.00  0.00    +0.045 A 
ATOM      4  C   LIG    1        1.399   0.021   0.198  0.00  0.00    +0.043 A 
ATOM      5  C   LIG    1        2.111  -1.199   0.043  0.00  0.00    +0.082 A 
ATOM      6  C   LIG    1        3.513  -1.142  -0.063  0.00  0.00    +0.046 A 
ATOM      7  C   LIG    1        4.214   0.065  -0.020  0.00  0.00    +0.124 A 
ENDROOT
BRANCH   7   8
ATOM      8  S   LIG    1        6.008   0.043  -0.172  0.00  0.00    +0.057 S 
ATOM      9  O   LIG    1        6.446  -1.358  -0.181  0.00  0.00    -0.153 OA
ATOM     10  O   LIG    1        6.356   0.941  -1.277  0.00  0.00    -0.153 OA
BRANCH   8  11
ATOM     11  N   LIG    1        6.602   0.761   1.315  0.00  0.00    -0.203 NA
ATOM     12  H   LIG    1        6.367   1.750   1.428  0.00  0.00    +0.144 HD
ATOM     13  H   LIG    1        6.423   0.205   2.155  0.00  0.00    +0.144 HD
ENDBRANCH   8  11
ENDBRANCH   7   8
BRANCH   5  14
ATOM     14  C   LIG    1        1.428  -2.562  -0.030  0.00  0.00    +0.339 C 
ATOM     15  O   LIG    1        0.207  -2.710  -0.018  0.00  0.00    -0.245 OA
BRANCH  14  16
ATOM     16  O   LIG    1        2.273  -3.632  -0.112  0.00  0.00    -0.477 OA
ATOM     17  H   LIG    1        1.800  -4.465  -0.158  0.00  0.00    +0.295 HD
ENDBRANCH  14  16
ENDBRANCH   5  14
BRANCH   4  18
ATOM     18  N   LIG    1       -0.010   0.040   0.315  0.00  0.00    -0.336 N 
ATOM     19  H   LIG    1       -0.452  -0.823   0.029  0.00  0.00    +0.147 HD
BRANCH  18  20
ATOM     20  C   LIG    1       -0.799   1.245   0.073  0.00  0.00    +0.176 C 
BRANCH  20  21
ATOM     21  C   LIG    1       -0.896   1.636  -1.388  0.00  0.00    +0.122 A 
ATOM     22  C   LIG    1       -0.502   1.050  -2.587  0.00  0.00    +0.046 A 
ATOM     23  C   LIG    1       -0.885   1.916  -3.611  0.00  0.00    +0.041 A 
ATOM     24  C   LIG    1       -1.502   2.991  -2.997  0.00  0.00    +0.195 A 
ATOM     25  O   LIG    1       -1.513   2.818  -1.651  0.00  0.00    -0.466 OA
ENDBRANCH  20  21
ENDBRANCH  18  20
ENDBRANCH   4  18
TORSDOF 7
