REMARK  Name = DB00481
REMARK                            x       y       z     vdW  Elec       q    Type
REMARK                         _______ _______ _______ _____ _____    ______ ____
ROOT
ATOM      1  S   LIG    1        3.989   2.665   2.008  0.00  0.00    -0.087 S 
ATOM      2  C   LIG    1        2.782   2.094   3.132  0.00  0.00    +0.024 A 
ATOM      3  C   LIG    1        2.634   2.498   4.467  0.00  0.00    +0.061 A 
ATOM      4  C   LIG    1        1.622   1.919   5.227  0.00  0.00    +0.118 A 
ATOM      5  C   LIG    1        0.779   0.961   4.675  0.00  0.00    +0.046 A 
ATOM      6  C   LIG    1        0.919   0.557   3.349  0.00  0.00    +0.013 A 
ATOM      7  C   LIG    1        1.923   1.123   2.533  0.00  0.00    +0.001 A 
ATOM      8  C   LIG    1        2.240   0.866   1.151  0.00  0.00    +0.045 A 
ATOM      9  C   LIG    1        3.351   1.621   0.757  0.00  0.00    +0.031 A 
ENDROOT
BRANCH   9  10
ATOM     10  C   LIG    1        4.017   1.690  -0.579  0.00  0.00    -0.010 A 
ATOM     11  C   LIG    1        3.259   1.988  -1.716  0.00  0.00    +0.012 A 
ATOM     12  C   LIG    1        3.865   2.041  -2.967  0.00  0.00    +0.046 A 
ATOM     13  C   LIG    1        5.232   1.795  -3.083  0.00  0.00    +0.117 A 
ATOM     14  C   LIG    1        5.996   1.496  -1.956  0.00  0.00    +0.046 A 
ATOM     15  C   LIG    1        5.388   1.442  -0.704  0.00  0.00    +0.012 A 
BRANCH  13  16
ATOM     16  O   LIG    1        5.830   1.844  -4.314  0.00  0.00    -0.507 OA
ATOM     17  H   LIG    1        5.212   2.047  -5.021  0.00  0.00    +0.292 HD
ENDBRANCH  13  16
ENDBRANCH   9  10
BRANCH   4  18
ATOM     18  O   LIG    1        1.458   2.298   6.533  0.00  0.00    -0.507 OA
ATOM     19  H   LIG    1        0.737   1.839   6.971  0.00  0.00    +0.292 HD
ENDBRANCH   4  18
BRANCH   8  20
ATOM     20  C   LIG    1        1.526  -0.078   0.282  0.00  0.00    +0.195 C 
ATOM     21  O   LIG    1        2.173  -0.947  -0.306  0.00  0.00    -0.287 OA
BRANCH  20  22
ATOM     22  C   LIG    1        0.041   0.062   0.084  0.00  0.00    +0.023 A 
ATOM     23  C   LIG    1       -0.658   1.201   0.511  0.00  0.00    +0.015 A 
ATOM     24  C   LIG    1       -2.027   1.317   0.291  0.00  0.00    +0.046 A 
ATOM     25  C   LIG    1       -2.727   0.300  -0.375  0.00  0.00    +0.121 A 
ATOM     26  C   LIG    1       -2.031  -0.824  -0.815  0.00  0.00    +0.046 A 
ATOM     27  C   LIG    1       -0.661  -0.942  -0.595  0.00  0.00    +0.015 A 
BRANCH  25  28
ATOM     28  O   LIG    1       -4.083   0.331  -0.639  0.00  0.00    -0.491 OA
BRANCH  28  29
ATOM     29  C   LIG    1       -4.851   1.452  -0.210  0.00  0.00    +0.244 C 
BRANCH  29  30
ATOM     30  C   LIG    1       -6.316   1.240  -0.638  0.00  0.00    +0.125 C 
BRANCH  30  31
ATOM     31  N   LIG    1       -7.138   2.449  -0.505  0.00  0.00    -0.299 NA
ATOM     32  C   LIG    1       -7.287   2.890   0.893  0.00  0.00    +0.084 C 
ATOM     33  C   LIG    1       -8.143   4.168   1.012  0.00  0.00    +0.015 C 
ATOM     34  C   LIG    1       -9.508   4.018   0.326  0.00  0.00    +0.002 C 
ATOM     35  C   LIG    1       -9.317   3.518  -1.113  0.00  0.00    +0.015 C 
ATOM     36  C   LIG    1       -8.434   2.255  -1.174  0.00  0.00    +0.084 C 
ENDBRANCH  30  31
ENDBRANCH  29  30
ENDBRANCH  28  29
ENDBRANCH  25  28
ENDBRANCH  20  22
ENDBRANCH   8  20
TORSDOF 9
