REMARK  Name = DB00679
REMARK                            x       y       z     vdW  Elec       q    Type
REMARK                         _______ _______ _______ _____ _____    ______ ____
ROOT
ATOM      1  S   LIG    1       -2.789  -0.456  -1.491  0.00  0.00    -0.086 S 
ATOM      2  C   LIG    1       -1.786  -1.508  -0.505  0.00  0.00    +0.034 A 
ATOM      3  C   LIG    1       -2.326  -2.731  -0.097  0.00  0.00    +0.017 A 
ATOM      4  C   LIG    1       -1.574  -3.616   0.667  0.00  0.00    +0.001 A 
ATOM      5  C   LIG    1       -0.273  -3.283   1.021  0.00  0.00    +0.002 A 
ATOM      6  C   LIG    1        0.276  -2.075   0.598  0.00  0.00    +0.024 A 
ATOM      7  C   LIG    1       -0.444  -1.173  -0.215  0.00  0.00    +0.048 A 
ATOM      8  N   LIG    1        0.072   0.092  -0.580  0.00  0.00    -0.298 N 
ATOM      9  C   LIG    1       -0.761   1.232  -0.667  0.00  0.00    +0.049 A 
ATOM     10  C   LIG    1       -0.327   2.512  -0.267  0.00  0.00    +0.039 A 
ATOM     11  C   LIG    1       -1.182   3.617  -0.267  0.00  0.00    +0.009 A 
ATOM     12  C   LIG    1       -2.508   3.459  -0.655  0.00  0.00    +0.016 A 
ATOM     13  C   LIG    1       -2.977   2.203  -1.018  0.00  0.00    +0.018 A 
ATOM     14  C   LIG    1       -2.129   1.093  -0.991  0.00  0.00    +0.034 A 
ENDROOT
BRANCH  11  15
ATOM     15  S   LIG    1       -0.616   5.227   0.210  0.00  0.00    -0.129 S 
ATOM     16  C   LIG    1        0.955   5.046   1.102  0.00  0.00    +0.090 C 
ENDBRANCH  11  15
BRANCH   8  17
ATOM     17  C   LIG    1        1.538   0.279  -0.516  0.00  0.00    +0.112 C 
BRANCH  17  18
ATOM     18  C   LIG    1        2.115   0.578   0.898  0.00  0.00    +0.038 C 
BRANCH  18  19
ATOM     19  C   LIG    1        3.563   0.062   1.121  0.00  0.00    +0.058 C 
ATOM     20  C   LIG    1        4.533   0.673   0.065  0.00  0.00    +0.019 C 
ATOM     21  C   LIG    1        5.983   0.191   0.214  0.00  0.00    +0.003 C 
ATOM     22  C   LIG    1        6.459   0.378   1.655  0.00  0.00    +0.015 C 
ATOM     23  C   LIG    1        5.479  -0.260   2.654  0.00  0.00    +0.084 C 
ATOM     24  N   LIG    1        4.109   0.251   2.487  0.00  0.00    -0.302 NA
ATOM     25  C   LIG    1        3.271  -0.352   3.526  0.00  0.00    +0.105 C 
ENDBRANCH  18  19
ENDBRANCH  17  18
ENDBRANCH   8  17
TORSDOF 4
