REMARK  Name = DB00437
REMARK                            x       y       z     vdW  Elec       q    Type
REMARK                         _______ _______ _______ _____ _____    ______ ____
ROOT
ATOM      1  C   LIG    1       -2.020   1.192   0.000  0.00  0.00    +0.227 A 
ATOM      2  N   LIG    1       -0.661   1.225   0.000  0.00  0.00    -0.201 NA
ATOM      3  C   LIG    1        0.008   0.040   0.000  0.00  0.00    +0.226 A 
ATOM      4  C   LIG    1       -0.726  -1.162   0.000  0.00  0.00    +0.100 A 
ATOM      5  C   LIG    1       -0.485  -2.569   0.000  0.00  0.00    +0.149 A 
ATOM      6  N   LIG    1       -1.611  -3.242   0.000  0.00  0.00    -0.180 NA
ATOM      7  N   LIG    1       -2.616  -2.342   0.000  0.00  0.00    -0.260 N 
ATOM      8  H   LIG    1       -3.579  -2.646   0.000  0.00  0.00    +0.191 HD
ATOM      9  C   LIG    1       -2.134  -1.050   0.000  0.00  0.00    +0.162 A 
ATOM     10  N   LIG    1       -2.825   0.095   0.000  0.00  0.00    -0.216 NA
ENDROOT
BRANCH   3  11
ATOM     11  O   LIG    1        1.373  -0.067   0.000  0.00  0.00    -0.492 OA
ATOM     12  H   LIG    1        1.805   0.791   0.000  0.00  0.00    +0.294 HD
ENDBRANCH   3  11
TORSDOF 1
