REMARK  Name = DB00748
REMARK                            x       y       z     vdW  Elec       q    Type
REMARK                         _______ _______ _______ _____ _____    ______ ____
ROOT
ATOM      1  C   LIG    1       -0.599   1.236   0.180  0.00  0.00    +0.197 C 
ENDROOT
BRANCH   1   6
ATOM      2 CL   LIG    1        1.185   4.319   5.060  0.00  0.00    -0.084 Cl
ATOM      3  C   LIG    1        0.668   3.440   3.667  0.00  0.00    +0.041 A 
ATOM      4  C   LIG    1        0.225   2.126   3.804  0.00  0.00    +0.020 A 
ATOM      5  C   LIG    1       -0.189   1.416   2.680  0.00  0.00    +0.008 A 
ATOM      6  C   LIG    1       -0.165   2.024   1.420  0.00  0.00    -0.013 A 
ATOM      7  C   LIG    1        0.284   3.341   1.290  0.00  0.00    +0.008 A 
ATOM      8  C   LIG    1        0.698   4.050   2.414  0.00  0.00    +0.020 A 
ENDBRANCH   1   6
BRANCH   1   9
ATOM      9  C   LIG    1       -2.111   0.997   0.128  0.00  0.00    +0.074 A 
ATOM     10  C   LIG    1       -2.672  -0.289   0.144  0.00  0.00    +0.026 A 
ATOM     11  C   LIG    1       -4.061  -0.417   0.086  0.00  0.00    +0.003 A 
ATOM     12  C   LIG    1       -4.856   0.728   0.013  0.00  0.00    +0.020 A 
ATOM     13  C   LIG    1       -4.228   1.974   0.001  0.00  0.00    +0.111 A 
ATOM     14  N   LIG    1       -2.879   2.120   0.055  0.00  0.00    -0.257 NA
ENDBRANCH   1   9
BRANCH   1  15
ATOM     15  O   LIG    1        0.102  -0.009   0.110  0.00  0.00    -0.365 OA
BRANCH  15  16
ATOM     16  C   LIG    1        1.495   0.071  -0.178  0.00  0.00    +0.176 C 
BRANCH  16  17
ATOM     17  C   LIG    1        2.102  -1.344  -0.283  0.00  0.00    +0.112 C 
BRANCH  17  18
ATOM     18  N   LIG    1        1.829  -2.027  -1.555  0.00  0.00    -0.306 NA
ATOM     19  C   LIG    1        2.580  -3.278  -1.605  0.00  0.00    +0.104 C 
ATOM     20  C   LIG    1        0.410  -2.313  -1.762  0.00  0.00    +0.104 C 
ENDBRANCH  17  18
ENDBRANCH  16  17
ENDBRANCH  15  16
ENDBRANCH   1  15
TORSDOF 6
