REMARK  Name = DB00967
REMARK                            x       y       z     vdW  Elec       q    Type
REMARK                         _______ _______ _______ _____ _____    ______ ____
ROOT
ATOM      1 CL   LIG    1        1.167   4.224  -3.441  0.00  0.00    -0.084 Cl
ATOM      2  C   LIG    1        0.832   2.956  -2.319  0.00  0.00    +0.041 A 
ATOM      3  C   LIG    1       -0.225   3.082  -1.420  0.00  0.00    +0.020 A 
ATOM      4  C   LIG    1       -0.495   2.054  -0.518  0.00  0.00    +0.010 A 
ATOM      5  C   LIG    1        0.293   0.896  -0.502  0.00  0.00    -0.013 A 
ATOM      6  C   LIG    1        1.360   0.768  -1.407  0.00  0.00    -0.038 A 
ATOM      7  C   LIG    1        2.190  -0.510  -1.382  0.00  0.00    +0.040 C 
ATOM      8  C   LIG    1        1.452  -1.805  -1.787  0.00  0.00    +0.042 C 
ATOM      9  C   LIG    1        0.071  -2.144  -1.206  0.00  0.00    -0.021 A 
ATOM     10  C   LIG    1       -0.617  -3.251  -1.722  0.00  0.00    +0.007 A 
ATOM     11  C   LIG    1       -1.875  -3.605  -1.238  0.00  0.00    +0.020 A 
ATOM     12  C   LIG    1       -2.432  -2.829  -0.228  0.00  0.00    +0.111 A 
ATOM     13  N   LIG    1       -1.799  -1.756   0.300  0.00  0.00    -0.255 NA
ATOM     14  C   LIG    1       -0.558  -1.427  -0.160  0.00  0.00    +0.075 A 
ATOM     15  C   LIG    1        0.000  -0.196   0.450  0.00  0.00    +0.007 C 
ATOM     16  C   LIG    1        0.206  -0.050   1.790  0.00  0.00    -0.057 C 
ATOM     17  C   LIG    1       -0.046  -1.121   2.853  0.00  0.00    +0.046 C 
ATOM     18  C   LIG    1       -1.050  -0.586   3.898  0.00  0.00    +0.085 C 
ATOM     19  N   LIG    1       -0.632   0.680   4.501  0.00  0.00    -0.315 NA
ATOM     20  H   LIG    1       -1.343   1.024   5.132  0.00  0.00    +0.122 HD
ATOM     21  C   LIG    1       -0.271   1.706   3.523  0.00  0.00    +0.085 C 
ATOM     22  C   LIG    1        0.743   1.213   2.467  0.00  0.00    +0.046 C 
ATOM     23  C   LIG    1        1.617   1.804  -2.312  0.00  0.00    +0.024 A 
ENDROOT
TORSDOF 0
