REMARK  Name = DB00334
REMARK                            x       y       z     vdW  Elec       q    Type
REMARK                         _______ _______ _______ _____ _____    ______ ____
ROOT
ATOM      1  N   LIG    1       -0.682   1.347   0.146  0.00  0.00    -0.040 NA
ATOM      2  C   LIG    1       -2.066   1.519  -0.067  0.00  0.00    +0.197 A 
ATOM      3  C   LIG    1       -2.426   2.769  -0.595  0.00  0.00    +0.057 A 
ATOM      4  C   LIG    1       -3.749   3.161  -0.762  0.00  0.00    +0.004 A 
ATOM      5  C   LIG    1       -4.769   2.307  -0.373  0.00  0.00    +0.002 A 
ATOM      6  C   LIG    1       -4.451   1.071   0.174  0.00  0.00    +0.027 A 
ATOM      7  C   LIG    1       -3.124   0.649   0.335  0.00  0.00    +0.083 A 
ATOM      8  N   LIG    1       -2.906  -0.624   0.883  0.00  0.00    -0.305 N 
ATOM      9  H   LIG    1       -3.757  -1.107   1.132  0.00  0.00    +0.153 HD
ATOM     10  C   LIG    1       -1.874  -1.453   0.546  0.00  0.00    +0.085 A 
ATOM     11  S   LIG    1       -2.109  -3.170   0.486  0.00  0.00    -0.078 S 
ATOM     12  C   LIG    1       -0.492  -3.451  -0.077  0.00  0.00    -0.011 A 
ATOM     13  C   LIG    1       -0.002  -4.843  -0.394  0.00  0.00    +0.051 C 
ATOM     14  C   LIG    1        0.182  -2.238  -0.153  0.00  0.00    +0.028 A 
ATOM     15  C   LIG    1       -0.559  -1.110   0.248  0.00  0.00    +0.094 A 
ATOM     16  C   LIG    1       -0.033   0.263   0.354  0.00  0.00    +0.324 C 
ENDROOT
BRANCH  16  17
ATOM     17  N   LIG    1        1.322   0.416   0.699  0.00  0.00    -0.218 N 
ATOM     18  C   LIG    1        2.111   1.633   0.409  0.00  0.00    +0.241 C 
ATOM     19  C   LIG    1        3.589   1.301   0.097  0.00  0.00    +0.128 C 
ATOM     20  N   LIG    1        4.191   0.534   1.187  0.00  0.00    -0.298 NA
ATOM     21  C   LIG    1        5.591   0.249   0.889  0.00  0.00    +0.105 C 
ATOM     22  C   LIG    1        3.450  -0.711   1.381  0.00  0.00    +0.128 C 
ATOM     23  C   LIG    1        1.978  -0.407   1.736  0.00  0.00    +0.241 C 
ENDBRANCH  16  17
TORSDOF 1
