REMARK  Name = DB00957
REMARK                            x       y       z     vdW  Elec       q    Type
REMARK                         _______ _______ _______ _____ _____    ______ ____
ROOT
ATOM      1  C   LIG    1       -1.893  -1.490  -0.718  0.00  0.00    +0.009 C 
ATOM      2  C   LIG    1       -0.733  -0.648  -1.288  0.00  0.00    +0.062 C 
ATOM      3  C   LIG    1       -0.137   0.195  -0.111  0.00  0.00    +0.179 C 
ATOM      4  C   LIG    1       -0.513  -0.686   1.158  0.00  0.00    +0.025 C 
ATOM      5  C   LIG    1       -0.652   0.042   2.536  0.00  0.00    +0.012 C 
ATOM      6  C   LIG    1       -1.294  -0.882   3.601  0.00  0.00    +0.005 C 
ATOM      7  C   LIG    1       -2.715  -1.359   3.176  0.00  0.00    -0.000 C 
ATOM      8  C   LIG    1       -2.666  -2.047   1.777  0.00  0.00    -0.003 C 
ATOM      9  C   LIG    1       -4.102  -2.399   1.356  0.00  0.00    +0.008 C 
ATOM     10  C   LIG    1       -4.702  -3.432   2.317  0.00  0.00    +0.031 C 
ATOM     11  C   LIG    1       -4.715  -2.885   3.746  0.00  0.00    -0.064 C 
ATOM     12  C   LIG    1       -5.818  -2.974   4.522  0.00  0.00    +0.026 C 
ATOM     13  C   LIG    1       -5.929  -2.628   5.912  0.00  0.00    +0.080 C 
ATOM     14  N   LIG    1       -7.047  -2.765   6.517  0.00  0.00    -0.092 NA
ATOM     15  C   LIG    1       -4.613  -2.163   6.581  0.00  0.00    +0.059 C 
ATOM     16  C   LIG    1       -3.646  -1.498   5.578  0.00  0.00    +0.014 C 
ATOM     17  C   LIG    1       -3.388  -2.274   4.257  0.00  0.00    +0.019 C 
ATOM     18  C   LIG    1       -1.969  -1.093   0.761  0.00  0.00    +0.004 C 
ENDROOT
BRANCH   3  19
ATOM     19  C   LIG    1       -0.715   1.577  -0.096  0.00  0.00    -0.058 C 
ATOM     20  C   LIG    1       -1.180   2.706  -0.097  0.00  0.00    +0.008 C 
ENDBRANCH   3  19
BRANCH   4  21
ATOM     21  C   LIG    1        0.445  -1.944   1.284  0.00  0.00    +0.009 C 
ATOM     22  C   LIG    1        1.792  -1.743   2.012  0.00  0.00    +0.004 C 
ENDBRANCH   4  21
BRANCH  14  23
ATOM     23  O   LIG    1       -7.023  -2.456   7.888  0.00  0.00    -0.409 OA
ATOM     24  H   LIG    1       -7.933  -2.619   8.147  0.00  0.00    +0.328 HD
ENDBRANCH  14  23
BRANCH   3  25
ATOM     25  O   LIG    1        1.304   0.287  -0.219  0.00  0.00    -0.445 OA
BRANCH  25  26
ATOM     26  C   LIG    1        2.002   0.797  -1.281  0.00  0.00    +0.305 C 
ATOM     27  O   LIG    1        1.525   1.242  -2.325  0.00  0.00    -0.251 OA
ATOM     28  C   LIG    1        3.507   0.755  -1.052  0.00  0.00    +0.136 C 
ENDBRANCH  25  26
ENDBRANCH   3  25
TORSDOF 5
