REMARK  Name = DB00280
REMARK                            x       y       z     vdW  Elec       q    Type
REMARK                         _______ _______ _______ _____ _____    ______ ____
ROOT
ATOM      1  C   LIG    1       -2.180   1.440   0.049  0.00  0.00    +0.114 C 
ENDROOT
BRANCH   1   3
ATOM      2  N   LIG    1       -3.103  -0.547  -1.212  0.00  0.00    -0.259 NA
ATOM      3  C   LIG    1       -2.630   0.735  -1.275  0.00  0.00    +0.061 A 
ATOM      4  C   LIG    1       -2.416   1.361  -2.515  0.00  0.00    +0.025 A 
ATOM      5  C   LIG    1       -2.736   0.684  -3.692  0.00  0.00    +0.003 A 
ATOM      6  C   LIG    1       -3.245  -0.613  -3.622  0.00  0.00    +0.020 A 
ATOM      7  C   LIG    1       -3.410  -1.192  -2.365  0.00  0.00    +0.111 A 
ENDBRANCH   1   3
BRANCH   1   8
ATOM      8  C   LIG    1       -2.582   2.950   0.020  0.00  0.00    -0.027 A 
ATOM      9  C   LIG    1       -1.692   3.975   0.389  0.00  0.00    +0.005 A 
ATOM     10  C   LIG    1       -2.088   5.310   0.358  0.00  0.00    +0.000 A 
ATOM     11  C   LIG    1       -3.379   5.641  -0.039  0.00  0.00    +0.000 A 
ATOM     12  C   LIG    1       -4.280   4.646  -0.404  0.00  0.00    +0.000 A 
ATOM     13  C   LIG    1       -3.884   3.313  -0.371  0.00  0.00    +0.005 A 
ENDBRANCH   1   8
BRANCH   1  14
ATOM     14  C   LIG    1       -2.852   0.880   1.357  0.00  0.00    +0.227 C 
ATOM     15  O   LIG    1       -2.234   0.843   2.420  0.00  0.00    -0.275 OA
ATOM     16  N   LIG    1       -4.142   0.520   1.329  0.00  0.00    -0.328 N 
ATOM     17  H   LIG    1       -4.663   0.558   0.465  0.00  0.00    +0.145 HD
ATOM     18  H   LIG    1       -4.593   0.191   2.169  0.00  0.00    +0.145 HD
ENDBRANCH   1  14
BRANCH   1  19
ATOM     19  C   LIG    1       -0.616   1.250   0.124  0.00  0.00    +0.042 C 
BRANCH  19  20
ATOM     20  C   LIG    1       -0.094  -0.210   0.139  0.00  0.00    +0.086 C 
BRANCH  20  21
ATOM     21  N   LIG    1        1.379  -0.241   0.063  0.00  0.00    -0.297 NA
BRANCH  21  22
ATOM     22  C   LIG    1        2.014  -0.740   1.309  0.00  0.00    +0.051 C 
ATOM     23  C   LIG    1        3.557  -0.827   1.217  0.00  0.00    +0.024 C 
ATOM     24  C   LIG    1        1.648   0.158   2.517  0.00  0.00    +0.024 C 
ENDBRANCH  21  22
BRANCH  21  25
ATOM     25  C   LIG    1        1.883  -0.797  -1.214  0.00  0.00    +0.051 C 
ATOM     26  C   LIG    1        1.625  -2.314  -1.367  0.00  0.00    +0.024 C 
ATOM     27  C   LIG    1        1.377  -0.002  -2.439  0.00  0.00    +0.024 C 
ENDBRANCH  21  25
ENDBRANCH  20  21
ENDBRANCH  19  20
ENDBRANCH   1  19
TORSDOF 8
