REMARK  Name = DB00387
REMARK                            x       y       z     vdW  Elec       q    Type
REMARK                         _______ _______ _______ _____ _____    ______ ____
ROOT
ATOM      1  C   LIG    1       -0.077  -0.024   0.013  0.00  0.00    +0.095 C 
ENDROOT
BRANCH   1   2
ATOM      2  C   LIG    1       -0.495   1.461  -0.158  0.00  0.00    -0.016 A 
ATOM      3  C   LIG    1        0.263   2.486   0.428  0.00  0.00    +0.006 A 
ATOM      4  C   LIG    1       -0.100   3.821   0.266  0.00  0.00    +0.000 A 
ATOM      5  C   LIG    1       -1.226   4.144  -0.484  0.00  0.00    +0.000 A 
ATOM      6  C   LIG    1       -1.993   3.143  -1.072  0.00  0.00    +0.000 A 
ATOM      7  C   LIG    1       -1.629   1.809  -0.910  0.00  0.00    +0.006 A 
ENDBRANCH   1   2
BRANCH   1   8
ATOM      8  C   LIG    1       -0.611  -0.634   1.364  0.00  0.00    +0.025 C 
ATOM      9  C   LIG    1        0.001  -0.007   2.648  0.00  0.00    +0.007 C 
ATOM     10  C   LIG    1       -0.451  -0.748   3.923  0.00  0.00    +0.000 C 
ATOM     11  C   LIG    1       -1.987  -0.790   4.041  0.00  0.00    +0.000 C 
ATOM     12  C   LIG    1       -2.653  -1.330   2.760  0.00  0.00    +0.000 C 
ATOM     13  C   LIG    1       -2.160  -0.580   1.506  0.00  0.00    +0.007 C 
ENDBRANCH   1   8
BRANCH   1  14
ATOM     14  O   LIG    1       -0.629  -0.852  -1.008  0.00  0.00    -0.384 OA
ATOM     15  H   LIG    1       -0.350  -1.756  -0.848  0.00  0.00    +0.211 HD
ENDBRANCH   1  14
BRANCH   1  16
ATOM     16  C   LIG    1        1.467  -0.210  -0.149  0.00  0.00    +0.055 C 
BRANCH  16  17
ATOM     17  C   LIG    1        2.036   0.151  -1.546  0.00  0.00    +0.087 C 
BRANCH  17  18
ATOM     18  N   LIG    1        3.484   0.362  -1.538  0.00  0.00    -0.302 NA
ATOM     19  C   LIG    1        3.897   1.599  -0.883  0.00  0.00    +0.084 C 
ATOM     20  C   LIG    1        5.325   1.865  -1.367  0.00  0.00    +0.017 C 
ATOM     21  C   LIG    1        5.420   1.105  -2.692  0.00  0.00    +0.017 C 
ATOM     22  C   LIG    1        4.021   0.519  -2.882  0.00  0.00    +0.084 C 
ENDBRANCH  17  18
ENDBRANCH  16  17
ENDBRANCH   1  16
TORSDOF 6
