REMARK  Name = DB00500
REMARK                            x       y       z     vdW  Elec       q    Type
REMARK                         _______ _______ _______ _____ _____    ______ ____
ROOT
ATOM      1  C   LIG    1       -0.125  -0.164   0.398  0.00  0.00    +0.090 A 
ATOM      2  C   LIG    1       -1.067   0.776   0.794  0.00  0.00    +0.031 A 
ATOM      3  C   LIG    1       -2.322   0.201   0.658  0.00  0.00    +0.024 A 
ATOM      4  C   LIG    1       -2.171  -1.087   0.165  0.00  0.00    +0.030 A 
ATOM      5  N   LIG    1       -0.806  -1.324   0.021  0.00  0.00    -0.344 N 
ATOM      6  C   LIG    1       -0.217  -2.605  -0.390  0.00  0.00    +0.149 C 
ENDROOT
BRANCH   1   8
ATOM      7  O   LIG    1        1.987  -0.761  -0.469  0.00  0.00    -0.285 OA
ATOM      8  C   LIG    1        1.350  -0.056   0.317  0.00  0.00    +0.209 C 
BRANCH   8   9
ATOM      9  C   LIG    1        2.056   1.003   1.116  0.00  0.00    +0.024 A 
ATOM     10  C   LIG    1        1.578   1.421   2.367  0.00  0.00    +0.012 A 
ATOM     11  C   LIG    1        2.270   2.378   3.104  0.00  0.00    +0.004 A 
ATOM     12  C   LIG    1        3.454   2.921   2.606  0.00  0.00    -0.050 A 
ATOM     13  C   LIG    1        4.217   3.956   3.412  0.00  0.00    +0.044 C 
ATOM     14  C   LIG    1        3.954   2.493   1.376  0.00  0.00    +0.004 A 
ATOM     15  C   LIG    1        3.263   1.535   0.640  0.00  0.00    +0.012 A 
ENDBRANCH   8   9
ENDBRANCH   1   8
BRANCH   4  16
ATOM     16  C   LIG    1       -3.254  -2.116  -0.142  0.00  0.00    +0.173 C 
BRANCH  16  17
ATOM     17  C   LIG    1       -3.359  -2.476  -1.630  0.00  0.00    +0.311 C 
ATOM     18  O   LIG    1       -3.228  -3.621  -2.055  0.00  0.00    -0.251 OA
BRANCH  17  19
ATOM     19  O   LIG    1       -3.620  -1.382  -2.403  0.00  0.00    -0.480 OA
ATOM     20  H   LIG    1       -3.688  -1.601  -3.335  0.00  0.00    +0.295 HD
ENDBRANCH  17  19
ENDBRANCH  16  17
ENDBRANCH   4  16
TORSDOF 5
