REMARK  Name = DB00878
REMARK                            x       y       z     vdW  Elec       q    Type
REMARK                         _______ _______ _______ _____ _____    ______ ____
ROOT
ATOM      1  C   LIG    1       -0.023   0.061  -0.294  0.00  0.00    +0.003 C 
ENDROOT
BRANCH   1   2
ATOM      2  C   LIG    1       -0.632   1.476  -0.263  0.00  0.00    +0.037 C 
BRANCH   2   3
ATOM      3  C   LIG    1       -0.027   2.441  -1.307  0.00  0.00    +0.196 C 
BRANCH   3   4
ATOM      4  N   LIG    1       -0.740   3.716  -1.361  0.00  0.00    -0.276 N 
ATOM      5  H   LIG    1       -0.145   4.532  -1.352  0.00  0.00    +0.258 HD
BRANCH   4   6
ATOM      6  C   LIG    1       -2.001   3.845  -2.023  0.00  0.00    +0.388 C 
ATOM      7  N   LIG    1       -2.636   2.885  -2.546  0.00  0.00    -0.129 NA
ATOM      8  H   LIG    1       -3.507   3.171  -2.968  0.00  0.00    +0.306 HD
BRANCH   6   9
ATOM      9  N   LIG    1       -2.527   5.170  -2.062  0.00  0.00    -0.186 N 
ATOM     10  H   LIG    1       -3.499   5.208  -2.332  0.00  0.00    +0.271 HD
BRANCH   9  11
ATOM     11  C   LIG    1       -1.838   6.407  -2.259  0.00  0.00    +0.393 C 
ATOM     12  N   LIG    1       -0.613   6.527  -2.545  0.00  0.00    -0.129 NA
ATOM     13  H   LIG    1       -0.334   7.487  -2.684  0.00  0.00    +0.306 HD
BRANCH  11  14
ATOM     14  N   LIG    1       -2.697   7.539  -2.213  0.00  0.00    -0.243 N 
ATOM     15  H   LIG    1       -2.411   8.311  -2.797  0.00  0.00    +0.265 HD
BRANCH  14  16
ATOM     16  C   LIG    1       -3.729   7.866  -1.317  0.00  0.00    +0.100 A 
ATOM     17  C   LIG    1       -3.869   7.250  -0.065  0.00  0.00    +0.043 A 
ATOM     18  C   LIG    1       -4.911   7.611   0.785  0.00  0.00    +0.023 A 
ATOM     19  C   LIG    1       -5.815   8.595   0.390  0.00  0.00    +0.041 A 
ATOM     20 CL   LIG    1       -7.107   9.044   1.442  0.00  0.00    -0.084 Cl
ATOM     21  C   LIG    1       -5.681   9.220  -0.848  0.00  0.00    +0.023 A 
ATOM     22  C   LIG    1       -4.639   8.856  -1.697  0.00  0.00    +0.043 A 
ENDBRANCH  14  16
ENDBRANCH  11  14
ENDBRANCH   9  11
ENDBRANCH   6   9
ENDBRANCH   4   6
ENDBRANCH   3   4
ENDBRANCH   2   3
ENDBRANCH   1   2
BRANCH   1  23
ATOM     23  C   LIG    1        1.472  -0.005   0.074  0.00  0.00    +0.003 C 
BRANCH  23  24
ATOM     24  C   LIG    1        2.017  -1.444   0.070  0.00  0.00    +0.037 C 
BRANCH  24  25
ATOM     25  C   LIG    1        3.514  -1.516   0.413  0.00  0.00    +0.196 C 
BRANCH  25  26
ATOM     26  N   LIG    1        3.975  -2.898   0.328  0.00  0.00    -0.276 N 
ATOM     27  H   LIG    1        3.583  -3.429  -0.437  0.00  0.00    +0.258 HD
BRANCH  26  28
ATOM     28  C   LIG    1        5.281  -3.265   0.770  0.00  0.00    +0.388 C 
ATOM     29  N   LIG    1        6.069  -2.494   1.388  0.00  0.00    -0.129 NA
ATOM     30  H   LIG    1        6.949  -2.931   1.620  0.00  0.00    +0.306 HD
BRANCH  28  31
ATOM     31  N   LIG    1        5.658  -4.607   0.466  0.00  0.00    -0.186 N 
ATOM     32  H   LIG    1        6.464  -4.923   0.985  0.00  0.00    +0.271 HD
BRANCH  31  33
ATOM     33  C   LIG    1        5.447  -5.340  -0.744  0.00  0.00    +0.393 C 
ATOM     34  N   LIG    1        4.857  -4.907  -1.774  0.00  0.00    -0.129 NA
ATOM     35  H   LIG    1        4.797  -5.595  -2.511  0.00  0.00    +0.306 HD
BRANCH  33  36
ATOM     36  N   LIG    1        5.919  -6.680  -0.677  0.00  0.00    -0.243 N 
ATOM     37  H   LIG    1        5.389  -7.342  -1.224  0.00  0.00    +0.265 HD
BRANCH  36  38
ATOM     38  C   LIG    1        7.135  -7.195  -0.198  0.00  0.00    +0.100 A 
ATOM     39  C   LIG    1        8.270  -6.394  -0.000  0.00  0.00    +0.043 A 
ATOM     40  C   LIG    1        9.453  -6.957   0.470  0.00  0.00    +0.023 A 
ATOM     41  C   LIG    1        9.510  -8.322   0.741  0.00  0.00    +0.041 A 
ATOM     42 CL   LIG    1       10.977  -9.021   1.324  0.00  0.00    -0.084 Cl
ATOM     43  C   LIG    1        8.391  -9.128   0.542  0.00  0.00    +0.023 A 
ATOM     44  C   LIG    1        7.208  -8.564   0.071  0.00  0.00    +0.043 A 
ENDBRANCH  36  38
ENDBRANCH  33  36
ENDBRANCH  31  33
ENDBRANCH  28  31
ENDBRANCH  26  28
ENDBRANCH  25  26
ENDBRANCH  24  25
ENDBRANCH  23  24
ENDBRANCH   1  23
TORSDOF 17
