REMARK  Name = DB00186
REMARK                            x       y       z     vdW  Elec       q    Type
REMARK                         _______ _______ _______ _____ _____    ______ ____
ROOT
ATOM      1 CL   LIG    1       -2.192  -4.106   3.758  0.00  0.00    -0.084 Cl
ATOM      2  C   LIG    1       -1.062  -2.839   3.451  0.00  0.00    +0.042 A 
ATOM      3  C   LIG    1       -1.055  -1.703   4.249  0.00  0.00    +0.022 A 
ATOM      4  C   LIG    1       -0.144  -0.684   3.990  0.00  0.00    +0.025 A 
ATOM      5  C   LIG    1        0.783  -0.778   2.946  0.00  0.00    +0.043 A 
ATOM      6  C   LIG    1        0.782  -1.939   2.122  0.00  0.00    +0.023 A 
ATOM      7  C   LIG    1        1.755  -2.156   1.012  0.00  0.00    +0.079 C 
ATOM      8  N   LIG    1        2.191  -1.258   0.205  0.00  0.00    -0.243 NA
ATOM      9  C   LIG    1        1.706   0.118   0.266  0.00  0.00    +0.320 C 
ATOM     10  C   LIG    1        2.111   0.858   1.567  0.00  0.00    +0.269 C 
ATOM     11  O   LIG    1        2.821   1.861   1.550  0.00  0.00    -0.270 OA
ATOM     12  N   LIG    1        1.620   0.330   2.709  0.00  0.00    -0.281 N 
ATOM     13  H   LIG    1        1.833   0.885   3.525  0.00  0.00    +0.155 HD
ATOM     14  C   LIG    1       -0.155  -2.952   2.402  0.00  0.00    +0.032 A 
ENDROOT
BRANCH   7  15
ATOM     15  C   LIG    1        2.279  -3.522   0.854  0.00  0.00    +0.019 A 
ATOM     16  C   LIG    1        3.246  -3.972   1.763  0.00  0.00    +0.011 A 
ATOM     17  C   LIG    1        3.763  -5.263   1.664  0.00  0.00    +0.001 A 
ATOM     18  C   LIG    1        3.318  -6.117   0.657  0.00  0.00    +0.001 A 
ATOM     19  C   LIG    1        2.354  -5.681  -0.251  0.00  0.00    +0.020 A 
ATOM     20  C   LIG    1        1.827  -4.391  -0.161  0.00  0.00    +0.050 A 
ATOM     21 CL   LIG    1        0.619  -3.921  -1.313  0.00  0.00    -0.083 Cl
ENDBRANCH   7  15
BRANCH   9  22
ATOM     22  O   LIG    1        0.308   0.270   0.049  0.00  0.00    -0.364 OA
ATOM     23  H   LIG    1        0.130   1.191  -0.154  0.00  0.00    +0.212 HD
ENDBRANCH   9  22
TORSDOF 2
