REMARK  Name = DB00305
REMARK                            x       y       z     vdW  Elec       q    Type
REMARK                         _______ _______ _______ _____ _____    ______ ____
ROOT
ATOM      1  C   LIG    1       -0.385  -0.533  -1.432  0.00  0.00    +0.037 C 
ATOM      2  C   LIG    1       -1.261   0.323  -1.997  0.00  0.00    +0.087 C 
ATOM      3  N   LIG    1       -1.405   1.477  -1.240  0.00  0.00    -0.295 N 
ATOM      4  C   LIG    1       -1.422   2.794  -1.884  0.00  0.00    +0.128 C 
ATOM      5  C   LIG    1       -0.117   3.463  -1.445  0.00  0.00    +0.093 C 
ATOM      6  N   LIG    1        1.076   2.697  -1.777  0.00  0.00    -0.302 NA
ATOM      7  H   LIG    1        1.845   3.351  -1.730  0.00  0.00    +0.123 HD
ATOM      8  C   LIG    1        0.552   2.611  -0.418  0.00  0.00    +0.124 C 
ATOM      9  C   LIG    1       -0.467   1.469  -0.142  0.00  0.00    +0.163 C 
ATOM     10  C   LIG    1       -2.005   0.048  -3.250  0.00  0.00    +0.205 C 
ATOM     11  O   LIG    1       -2.865   0.802  -3.713  0.00  0.00    -0.286 OA
ATOM     12  C   LIG    1       -1.607  -1.245  -3.872  0.00  0.00    +0.022 C 
ATOM     13  C   LIG    1       -2.302  -1.499  -5.215  0.00  0.00    +0.050 C 
ATOM     14  C   LIG    1       -0.715  -2.110  -3.302  0.00  0.00    +0.079 C 
ATOM     15  C   LIG    1        0.117   0.036  -0.119  0.00  0.00    +0.114 C 
ATOM     16  C   LIG    1       -0.048  -1.852  -1.999  0.00  0.00    +0.205 C 
ATOM     17  O   LIG    1        0.712  -2.643  -1.436  0.00  0.00    -0.286 OA
ENDROOT
BRANCH  14  18
ATOM     18  N   LIG    1       -0.377  -3.297  -3.911  0.00  0.00    -0.355 N 
ATOM     19  H   LIG    1       -0.777  -3.563  -4.799  0.00  0.00    +0.142 HD
ATOM     20  H   LIG    1        0.279  -3.932  -3.479  0.00  0.00    +0.142 HD
ENDBRANCH  14  18
BRANCH   9  21
ATOM     21  O   LIG    1       -1.059   1.677   1.120  0.00  0.00    -0.357 OA
ATOM     22  C   LIG    1       -1.773   2.885   1.379  0.00  0.00    +0.196 C 
ENDBRANCH   9  21
BRANCH  15  23
ATOM     23  C   LIG    1        1.652  -0.034   0.079  0.00  0.00    +0.246 C 
BRANCH  23  24
ATOM     24  O   LIG    1        2.003   0.509   1.347  0.00  0.00    -0.450 OA
BRANCH  24  25
ATOM     25  C   LIG    1        3.293   0.674   1.691  0.00  0.00    +0.398 C 
ATOM     26  O   LIG    1        4.263   0.393   0.988  0.00  0.00    -0.227 OA
ATOM     27  N   LIG    1        3.360   1.214   2.954  0.00  0.00    -0.295 N 
ATOM     28  H   LIG    1        2.506   1.404   3.458  0.00  0.00    +0.148 HD
ATOM     29  H   LIG    1        4.263   1.404   3.363  0.00  0.00    +0.148 HD
ENDBRANCH  24  25
ENDBRANCH  23  24
ENDBRANCH  15  23
TORSDOF 5
