REMARK  Name = DB00213
REMARK                            x       y       z     vdW  Elec       q    Type
REMARK                         _______ _______ _______ _____ _____    ______ ____
ROOT
ATOM      1  C   LIG    1       -2.438   1.231  -0.430  0.00  0.00    +0.198 A 
ATOM      2  N   LIG    1       -3.081   0.349  -1.154  0.00  0.00    -0.220 NA
ATOM      3  C   LIG    1       -4.390   0.482  -0.768  0.00  0.00    +0.090 A 
ATOM      4  C   LIG    1       -5.519  -0.215  -1.214  0.00  0.00    +0.033 A 
ATOM      5  C   LIG    1       -6.756   0.112  -0.655  0.00  0.00    +0.048 A 
ATOM      6  C   LIG    1       -6.895   1.105   0.319  0.00  0.00    +0.129 A 
ATOM      7  C   LIG    1       -5.771   1.814   0.785  0.00  0.00    +0.073 A 
ATOM      8  C   LIG    1       -4.535   1.485   0.223  0.00  0.00    +0.070 A 
ATOM      9  N   LIG    1       -3.253   1.946   0.414  0.00  0.00    -0.331 N 
ATOM     10  H   LIG    1       -2.920   2.667   1.039  0.00  0.00    +0.168 HD
ENDROOT
BRANCH   1  11
ATOM     11  S   LIG    1       -0.640   1.592  -0.449  0.00  0.00    +0.095 S 
ATOM     12  O   LIG    1       -0.297   1.807  -1.924  0.00  0.00    -0.249 OA
BRANCH  11  13
ATOM     13  C   LIG    1       -0.074  -0.115   0.010  0.00  0.00    +0.171 C 
BRANCH  13  14
ATOM     14  C   LIG    1        1.447  -0.160   0.045  0.00  0.00    +0.099 A 
ATOM     15  C   LIG    1        2.205  -0.470  -1.095  0.00  0.00    +0.184 A 
ATOM     16  C   LIG    1        3.610  -0.494  -0.983  0.00  0.00    +0.165 A 
ATOM     17  C   LIG    1        4.186  -0.177   0.261  0.00  0.00    +0.069 A 
ATOM     18  C   LIG    1        3.356   0.136   1.336  0.00  0.00    +0.115 A 
ATOM     19  N   LIG    1        2.006   0.145   1.245  0.00  0.00    -0.255 NA
BRANCH  16  20
ATOM     20  O   LIG    1        4.351  -0.851  -2.095  0.00  0.00    -0.491 OA
ATOM     21  C   LIG    1        5.772  -0.834  -2.027  0.00  0.00    +0.277 C 
ENDBRANCH  16  20
BRANCH  15  22
ATOM     22  O   LIG    1        1.540  -0.768  -2.267  0.00  0.00    -0.490 OA
ATOM     23  C   LIG    1        1.900  -0.014  -3.420  0.00  0.00    +0.277 C 
ENDBRANCH  15  22
ENDBRANCH  13  14
ENDBRANCH  11  13
ENDBRANCH   1  11
BRANCH   6  24
ATOM     24  O   LIG    1       -8.177   1.315   0.788  0.00  0.00    -0.434 OA
BRANCH  24  25
ATOM     25  C   LIG    1       -8.468   2.498   1.527  0.00  0.00    +0.541 C 
ATOM     26  F   LIG    1       -9.781   2.719   1.486  0.00  0.00    -0.166 F 
ATOM     27  F   LIG    1       -8.091   2.372   2.800  0.00  0.00    -0.166 F 
ENDBRANCH  24  25
ENDBRANCH   6  24
TORSDOF 7
