REMARK  Name = DB00458
REMARK                            x       y       z     vdW  Elec       q    Type
REMARK                         _______ _______ _______ _____ _____    ______ ____
ROOT
ATOM      1  N   LIG    1        3.090  -1.696   2.733  0.00  0.00    -0.300 N 
ATOM      2  C   LIG    1        3.617  -2.972   2.441  0.00  0.00    +0.037 A 
ATOM      3  C   LIG    1        2.872  -3.834   1.618  0.00  0.00    +0.024 A 
ATOM      4  C   LIG    1        3.366  -5.071   1.213  0.00  0.00    +0.002 A 
ATOM      5  C   LIG    1        4.630  -5.475   1.623  0.00  0.00    +0.000 A 
ATOM      6  C   LIG    1        5.383  -4.645   2.446  0.00  0.00    +0.005 A 
ATOM      7  C   LIG    1        4.893  -3.400   2.863  0.00  0.00    -0.026 A 
ATOM      8  C   LIG    1        5.697  -2.554   3.825  0.00  0.00    +0.042 C 
ATOM      9  C   LIG    1        4.947  -2.304   5.133  0.00  0.00    +0.042 C 
ATOM     10  C   LIG    1        3.841  -1.256   5.105  0.00  0.00    -0.026 A 
ATOM     11  C   LIG    1        3.631  -0.531   6.288  0.00  0.00    +0.005 A 
ATOM     12  C   LIG    1        2.666   0.463   6.374  0.00  0.00    +0.000 A 
ATOM     13  C   LIG    1        1.881   0.747   5.268  0.00  0.00    +0.002 A 
ATOM     14  C   LIG    1        2.064   0.029   4.092  0.00  0.00    +0.024 A 
ATOM     15  C   LIG    1        3.036  -0.987   3.963  0.00  0.00    +0.037 A 
ENDROOT
BRANCH   1  16
ATOM     16  C   LIG    1        3.050  -0.834   1.530  0.00  0.00    +0.112 C 
BRANCH  16  17
ATOM     17  C   LIG    1        1.671  -0.824   0.832  0.00  0.00    +0.035 C 
BRANCH  17  18
ATOM     18  C   LIG    1        1.449   0.386  -0.099  0.00  0.00    +0.085 C 
BRANCH  18  19
ATOM     19  N   LIG    1        0.041   0.583  -0.460  0.00  0.00    -0.308 NA
ATOM     20  C   LIG    1       -0.486  -0.522  -1.260  0.00  0.00    +0.104 C 
ATOM     21  C   LIG    1       -0.107   1.829  -1.206  0.00  0.00    +0.104 C 
ENDBRANCH  18  19
ENDBRANCH  17  18
ENDBRANCH  16  17
ENDBRANCH   1  16
TORSDOF 4
