REMARK  Name = DB00357
REMARK                            x       y       z     vdW  Elec       q    Type
REMARK                         _______ _______ _______ _____ _____    ______ ____
ROOT
ATOM      1  O   LIG    1        0.069  -1.647   1.925  0.00  0.00    -0.274 OA
ATOM      2  C   LIG    1       -0.518  -0.716   1.374  0.00  0.00    +0.230 C 
ATOM      3  C   LIG    1       -0.022  -0.021   0.051  0.00  0.00    +0.072 C 
ATOM      4  C   LIG    1       -0.596   1.431   0.051  0.00  0.00    +0.030 C 
ATOM      5  C   LIG    1       -2.131   1.467   0.191  0.00  0.00    +0.097 C 
ATOM      6  C   LIG    1       -2.604   0.624   1.395  0.00  0.00    +0.219 C 
ATOM      7  O   LIG    1       -3.701   0.776   1.927  0.00  0.00    -0.275 OA
ATOM      8  N   LIG    1       -1.733  -0.319   1.825  0.00  0.00    -0.256 N 
ATOM      9  H   LIG    1       -2.057  -0.836   2.630  0.00  0.00    +0.157 HD
ENDROOT
BRANCH   3  10
ATOM     10  C   LIG    1       -0.497  -0.812  -1.212  0.00  0.00    -0.032 A 
ATOM     11  C   LIG    1       -1.184  -2.043  -1.162  0.00  0.00    +0.006 A 
ATOM     12  C   LIG    1       -1.575  -2.695  -2.328  0.00  0.00    +0.023 A 
ATOM     13  C   LIG    1       -1.284  -2.133  -3.568  0.00  0.00    +0.025 A 
ATOM     14  C   LIG    1       -0.602  -0.923  -3.645  0.00  0.00    +0.023 A 
ATOM     15  C   LIG    1       -0.212  -0.274  -2.478  0.00  0.00    +0.006 A 
BRANCH  13  16
ATOM     16  N   LIG    1       -1.676  -2.786  -4.736  0.00  0.00    -0.358 N 
ATOM     17  H   LIG    1       -1.464  -2.371  -5.632  0.00  0.00    +0.142 HD
ATOM     18  H   LIG    1       -2.174  -3.662  -4.673  0.00  0.00    +0.142 HD
ENDBRANCH  13  16
ENDBRANCH   3  10
BRANCH   3  19
ATOM     19  C   LIG    1        1.548   0.004   0.062  0.00  0.00    +0.017 C 
ATOM     20  C   LIG    1        2.251   0.739   1.226  0.00  0.00    +0.005 C 
ENDBRANCH   3  19
TORSDOF 3
