REMARK  Name = DB00452
REMARK                            x       y       z     vdW  Elec       q    Type
REMARK                         _______ _______ _______ _____ _____    ______ ____
ROOT
ATOM      1  C   LIG    1        1.843  -0.855  -0.810  0.00  0.00    +0.182 C 
ATOM      2  C   LIG    1        3.353  -0.488  -0.855  0.00  0.00    +0.169 C 
ATOM      3  C   LIG    1        4.006  -0.810  -2.226  0.00  0.00    +0.084 C 
ATOM      4  C   LIG    1        3.763  -2.284  -2.592  0.00  0.00    +0.042 C 
ATOM      5  C   LIG    1        2.266  -2.615  -2.690  0.00  0.00    +0.084 C 
ATOM      6  C   LIG    1        1.526  -2.280  -1.366  0.00  0.00    +0.163 C 
ENDROOT
BRANCH   3   7
ATOM      7  N   LIG    1        5.423  -0.503  -2.293  0.00  0.00    -0.325 NA
ATOM      8  H   LIG    1        5.790  -0.783  -3.191  0.00  0.00    +0.119 HD
ATOM      9  H   LIG    1        5.922  -1.041  -1.598  0.00  0.00    +0.119 HD
ENDBRANCH   3   7
BRANCH   5  10
ATOM     10  N   LIG    1        2.062  -3.984  -3.138  0.00  0.00    -0.325 NA
ATOM     11  H   LIG    1        2.459  -4.108  -4.058  0.00  0.00    +0.119 HD
ATOM     12  H   LIG    1        1.071  -4.169  -3.219  0.00  0.00    +0.119 HD
ENDBRANCH   5  10
BRANCH   6  13
ATOM     13  O   LIG    1        0.136  -2.476  -1.569  0.00  0.00    -0.388 OA
ATOM     14  H   LIG    1       -0.170  -1.841  -2.220  0.00  0.00    +0.210 HD
ENDBRANCH   6  13
BRANCH   1  15
ATOM     15  O   LIG    1        1.446  -0.664   0.557  0.00  0.00    -0.340 OA
BRANCH  15  19
ATOM     16  C   LIG    1       -1.517   0.259   2.300  0.00  0.00    +0.186 C 
ATOM     17  C   LIG    1       -1.650   0.939   0.929  0.00  0.00    +0.178 C 
ATOM     18  O   LIG    1       -0.600   0.361   0.154  0.00  0.00    -0.341 OA
ATOM     19  C   LIG    1        0.083  -0.633   0.865  0.00  0.00    +0.282 C 
ATOM     20  C   LIG    1       -0.077  -0.244   2.327  0.00  0.00    +0.202 C 
BRANCH  20  21
ATOM     21  O   LIG    1        0.188  -1.324   3.202  0.00  0.00    -0.384 OA
ATOM     22  H   LIG    1       -0.496  -1.986   3.080  0.00  0.00    +0.210 HD
ENDBRANCH  20  21
BRANCH  16  23
ATOM     23  O   LIG    1       -2.414  -0.860   2.318  0.00  0.00    -0.341 OA
BRANCH  23  26
ATOM     24  C   LIG    1       -5.871  -1.333   3.159  0.00  0.00    +0.166 C 
ATOM     25  O   LIG    1       -4.590  -1.545   2.546  0.00  0.00    -0.343 OA
ATOM     26  C   LIG    1       -3.586  -0.708   3.063  0.00  0.00    +0.270 C 
ATOM     27  C   LIG    1       -3.304  -1.073   4.536  0.00  0.00    +0.139 C 
ATOM     28  C   LIG    1       -4.617  -0.940   5.351  0.00  0.00    +0.167 C 
ATOM     29  C   LIG    1       -5.801  -1.674   4.676  0.00  0.00    +0.175 C 
BRANCH  27  30
ATOM     30  N   LIG    1       -2.639  -2.354   4.727  0.00  0.00    -0.321 NA
ATOM     31  H   LIG    1       -3.269  -3.102   4.469  0.00  0.00    +0.119 HD
ATOM     32  H   LIG    1       -2.410  -2.485   5.701  0.00  0.00    +0.119 HD
ENDBRANCH  27  30
BRANCH  28  33
ATOM     33  O   LIG    1       -4.927   0.422   5.592  0.00  0.00    -0.387 OA
ATOM     34  H   LIG    1       -4.109   0.896   5.758  0.00  0.00    +0.210 HD
ENDBRANCH  28  33
BRANCH  29  35
ATOM     35  O   LIG    1       -5.736  -3.071   4.914  0.00  0.00    -0.387 OA
ATOM     36  H   LIG    1       -5.833  -3.224   5.857  0.00  0.00    +0.210 HD
ENDBRANCH  29  35
BRANCH  24  37
ATOM     37  C   LIG    1       -6.924  -2.135   2.360  0.00  0.00    +0.112 C 
BRANCH  37  38
ATOM     38  N   LIG    1       -8.274  -1.883   2.832  0.00  0.00    -0.328 NA
ATOM     39  H   LIG    1       -8.364  -2.207   3.785  0.00  0.00    +0.118 HD
ATOM     40  H   LIG    1       -8.931  -2.421   2.285  0.00  0.00    +0.118 HD
ENDBRANCH  37  38
ENDBRANCH  24  37
ENDBRANCH  23  26
ENDBRANCH  16  23
BRANCH  17  41
ATOM     41  C   LIG    1       -1.508   2.477   0.901  0.00  0.00    +0.190 C 
BRANCH  41  42
ATOM     42  O   LIG    1       -0.381   2.947   1.612  0.00  0.00    -0.392 OA
ATOM     43  H   LIG    1       -0.319   3.898   1.500  0.00  0.00    +0.210 HD
ENDBRANCH  41  42
ENDBRANCH  17  41
ENDBRANCH  15  19
ENDBRANCH   1  15
BRANCH   2  44
ATOM     44  O   LIG    1        3.432   0.909  -0.537  0.00  0.00    -0.342 OA
BRANCH  44  45
ATOM     45  C   LIG    1        4.450   1.350   0.328  0.00  0.00    +0.270 C 
ATOM     46  O   LIG    1        5.627   1.692  -0.358  0.00  0.00    -0.343 OA
ATOM     47  C   LIG    1        5.465   2.702  -1.365  0.00  0.00    +0.166 C 
ATOM     48  C   LIG    1        4.936   4.019  -0.734  0.00  0.00    +0.175 C 
ATOM     49  C   LIG    1        3.701   3.762   0.160  0.00  0.00    +0.167 C 
ATOM     50  C   LIG    1        3.935   2.567   1.114  0.00  0.00    +0.139 C 
BRANCH  50  51
ATOM     51  N   LIG    1        2.791   2.236   1.947  0.00  0.00    -0.321 NA
ATOM     52  H   LIG    1        2.529   3.048   2.487  0.00  0.00    +0.119 HD
ATOM     53  H   LIG    1        3.054   1.529   2.619  0.00  0.00    +0.119 HD
ENDBRANCH  50  51
BRANCH  48  54
ATOM     54  O   LIG    1        4.637   4.998  -1.714  0.00  0.00    -0.387 OA
ATOM     55  H   LIG    1        3.946   4.654  -2.286  0.00  0.00    +0.210 HD
ENDBRANCH  48  54
BRANCH  49  56
ATOM     56  O   LIG    1        3.376   4.934   0.892  0.00  0.00    -0.387 OA
ATOM     57  H   LIG    1        3.525   5.695   0.326  0.00  0.00    +0.210 HD
ENDBRANCH  49  56
BRANCH  47  58
ATOM     58  C   LIG    1        6.839   2.836  -2.062  0.00  0.00    +0.112 C 
BRANCH  58  59
ATOM     59  N   LIG    1        6.764   3.545  -3.327  0.00  0.00    -0.328 NA
ATOM     60  H   LIG    1        6.180   3.028  -3.969  0.00  0.00    +0.118 HD
ATOM     61  H   LIG    1        7.682   3.587  -3.747  0.00  0.00    +0.118 HD
ENDBRANCH  58  59
ENDBRANCH  47  58
ENDBRANCH  44  45
ENDBRANCH   2  44
TORSDOF 22
