REMARK  Name = DB00368
REMARK                            x       y       z     vdW  Elec       q    Type
REMARK                         _______ _______ _______ _____ _____    ______ ____
ROOT
ATOM      1  C   LIG    1        1.567  -0.034  -0.052  0.00  0.00    -0.014 A 
ATOM      2  C   LIG    1        2.304  -0.233  -1.224  0.00  0.00    +0.010 A 
ATOM      3  C   LIG    1        3.698  -0.248  -1.188  0.00  0.00    +0.049 A 
ATOM      4  C   LIG    1        4.372  -0.065   0.020  0.00  0.00    +0.158 A 
ATOM      5  C   LIG    1        3.643   0.138   1.200  0.00  0.00    +0.159 A 
ATOM      6  C   LIG    1        2.247   0.153   1.158  0.00  0.00    +0.055 A 
ENDROOT
BRANCH   5   7
ATOM      7  O   LIG    1        4.278   0.325   2.402  0.00  0.00    -0.503 OA
ATOM      8  H   LIG    1        3.670   0.463   3.131  0.00  0.00    +0.292 HD
ENDBRANCH   5   7
BRANCH   4   9
ATOM      9  O   LIG    1        5.744  -0.085   0.029  0.00  0.00    -0.503 OA
ATOM     10  H   LIG    1        6.123  -0.232  -0.840  0.00  0.00    +0.292 HD
ENDBRANCH   4   9
BRANCH   1  11
ATOM     11  C   LIG    1        0.038  -0.012  -0.103  0.00  0.00    +0.158 C 
BRANCH  11  12
ATOM     12  O   LIG    1       -0.539  -0.870   0.863  0.00  0.00    -0.386 OA
ATOM     13  H   LIG    1       -0.291  -1.774   0.653  0.00  0.00    +0.210 HD
ENDBRANCH  11  12
BRANCH  11  14
ATOM     14  C   LIG    1       -0.555   1.400   0.109  0.00  0.00    +0.114 C 
BRANCH  14  15
ATOM     15  N   LIG    1       -0.174   2.313  -0.955  0.00  0.00    -0.327 NA
ATOM     16  H   LIG    1       -0.576   3.223  -0.784  0.00  0.00    +0.118 HD
ATOM     17  H   LIG    1       -0.557   1.992  -1.833  0.00  0.00    +0.118 HD
ENDBRANCH  14  15
ENDBRANCH  11  14
ENDBRANCH   1  11
TORSDOF 6
