REMARK  Name = DB00908
REMARK                            x       y       z     vdW  Elec       q    Type
REMARK                         _______ _______ _______ _____ _____    ______ ____
ROOT
ATOM      1  C   LIG    1        0.116   0.526   0.465  0.00  0.00    +0.162 C 
ENDROOT
BRANCH   1   2
ATOM      2  C   LIG    1        1.639   0.433   0.276  0.00  0.00    -0.007 A 
ATOM      3  C   LIG    1        2.472   0.608   1.386  0.00  0.00    +0.026 A 
ATOM      4  C   LIG    1        3.849   0.511   1.235  0.00  0.00    +0.112 A 
ATOM      5  N   LIG    1        4.452   0.248   0.055  0.00  0.00    -0.255 NA
ATOM      6  C   LIG    1        3.672   0.066  -1.045  0.00  0.00    +0.072 A 
ATOM      7  C   LIG    1        4.321  -0.215  -2.269  0.00  0.00    +0.032 A 
ATOM      8  C   LIG    1        3.581  -0.415  -3.429  0.00  0.00    +0.048 A 
ATOM      9  C   LIG    1        2.183  -0.341  -3.413  0.00  0.00    +0.121 A 
ATOM     10  C   LIG    1        1.528  -0.062  -2.214  0.00  0.00    +0.056 A 
ATOM     11  C   LIG    1        2.243   0.147  -0.999  0.00  0.00    +0.010 A 
BRANCH   9  12
ATOM     12  O   LIG    1        1.381  -0.529  -4.522  0.00  0.00    -0.495 OA
ATOM     13  C   LIG    1        1.985  -0.824  -5.776  0.00  0.00    +0.277 C 
ENDBRANCH   9  12
ENDBRANCH   1   2
BRANCH   1  14
ATOM     14  C   LIG    1       -0.477  -0.701   1.222  0.00  0.00    +0.090 C 
ATOM     15  C   LIG    1       -2.043  -0.696   1.308  0.00  0.00    +0.026 C 
ATOM     16  C   LIG    1       -2.604  -2.128   1.124  0.00  0.00    -0.000 C 
ATOM     17  C   LIG    1       -1.913  -3.016   2.189  0.00  0.00    +0.019 C 
ATOM     18  C   LIG    1       -0.360  -2.957   2.020  0.00  0.00    +0.085 C 
ATOM     19  C   LIG    1       -2.100  -2.652  -0.252  0.00  0.00    +0.028 C 
ATOM     20  C   LIG    1       -0.541  -2.555  -0.327  0.00  0.00    +0.092 C 
ATOM     21  N   LIG    1        0.066  -2.054   0.926  0.00  0.00    -0.296 NA
BRANCH  19  22
ATOM     22  C   LIG    1       -2.752  -1.942  -1.434  0.00  0.00    -0.030 C 
ATOM     23  C   LIG    1       -3.572  -2.524  -2.324  0.00  0.00    +0.004 C 
ENDBRANCH  19  22
ENDBRANCH   1  14
BRANCH   1  24
ATOM     24  O   LIG    1       -0.252   1.714   1.148  0.00  0.00    -0.386 OA
ATOM     25  H   LIG    1       -0.014   2.465   0.600  0.00  0.00    +0.210 HD
ENDBRANCH   1  24
TORSDOF 5
