REMARK  Name = DB00884
REMARK                            x       y       z     vdW  Elec       q    Type
REMARK                         _______ _______ _______ _____ _____    ______ ____
ROOT
ATOM      1  C   LIG    1        1.735  -0.014   0.193  0.00  0.00    +0.271 C 
ENDROOT
BRANCH   1   2
ATOM      2  P   LIG    1       -0.155  -0.014   0.135  0.00  0.00    +0.371 P 
ATOM      3  O   LIG    1       -0.815   1.343   0.042  0.00  0.00    -0.255 OA
BRANCH   2   4
ATOM      4  O   LIG    1       -0.521  -1.067  -1.169  0.00  0.00    -0.322 OA
ATOM      5  H   LIG    1       -0.194  -0.939  -2.081  0.00  0.00    +0.220 HD
ENDBRANCH   2   4
BRANCH   2   6
ATOM      6  O   LIG    1       -0.568  -0.879   1.559  0.00  0.00    -0.322 OA
ATOM      7  H   LIG    1        0.072  -1.355   2.121  0.00  0.00    +0.220 HD
ENDBRANCH   2   6
ENDBRANCH   1   2
BRANCH   1   8
ATOM      8  O   LIG    1        2.105  -1.375   0.345  0.00  0.00    -0.367 OA
ATOM      9  H   LIG    1        1.362  -1.858   0.715  0.00  0.00    +0.212 HD
ENDBRANCH   1   8
BRANCH   1  10
ATOM     10  P   LIG    1        2.578   0.887   1.624  0.00  0.00    +0.371 P 
ATOM     11  O   LIG    1        2.119   2.306   1.869  0.00  0.00    -0.255 OA
BRANCH  10  12
ATOM     12  O   LIG    1        2.279  -0.165   2.948  0.00  0.00    -0.322 OA
ATOM     13  H   LIG    1        1.387  -0.411   3.260  0.00  0.00    +0.220 HD
ENDBRANCH  10  12
BRANCH  10  14
ATOM     14  O   LIG    1        4.249   0.747   1.256  0.00  0.00    -0.322 OA
ATOM     15  H   LIG    1        4.605   0.192   0.536  0.00  0.00    +0.220 HD
ENDBRANCH  10  14
ENDBRANCH   1  10
BRANCH   1  16
ATOM     16  C   LIG    1        2.362   0.521  -1.132  0.00  0.00    +0.097 C 
BRANCH  16  17
ATOM     17  C   LIG    1        1.924  -0.143  -2.435  0.00  0.00    -0.025 A 
ATOM     18  C   LIG    1        2.439  -1.385  -2.823  0.00  0.00    +0.114 A 
ATOM     19  N   LIG    1        2.080  -2.009  -3.974  0.00  0.00    -0.263 NA
ATOM     20  C   LIG    1        1.185  -1.385  -4.781  0.00  0.00    +0.111 A 
ATOM     21  C   LIG    1        0.629  -0.141  -4.477  0.00  0.00    +0.020 A 
ATOM     22  C   LIG    1        1.009   0.486  -3.289  0.00  0.00    +0.007 A 
ENDBRANCH  16  17
ENDBRANCH   1  16
TORSDOF 9
