REMARK  Name = DB00750
REMARK                            x       y       z     vdW  Elec       q    Type
REMARK                         _______ _______ _______ _____ _____    ______ ____
ROOT
ATOM      1  O   LIG    1        0.911  -1.633  -1.668  0.00  0.00    -0.274 OA
ATOM      2  C   LIG    1        1.560  -0.622  -1.385  0.00  0.00    +0.234 C 
ATOM      3  N   LIG    1        2.420   0.015  -2.211  0.00  0.00    -0.284 N 
ATOM      4  H   LIG    1        2.816   0.878  -1.869  0.00  0.00    +0.155 HD
ENDROOT
BRANCH   3   5
ATOM      5  C   LIG    1        2.781  -0.315  -3.534  0.00  0.00    +0.036 A 
ATOM      6  C   LIG    1        2.722  -1.629  -4.032  0.00  0.00    +0.023 A 
ATOM      7  C   LIG    1        3.101  -1.907  -5.345  0.00  0.00    +0.002 A 
ATOM      8  C   LIG    1        3.548  -0.882  -6.174  0.00  0.00    +0.000 A 
ATOM      9  C   LIG    1        3.623   0.422  -5.689  0.00  0.00    +0.005 A 
ATOM     10  C   LIG    1        3.248   0.716  -4.373  0.00  0.00    -0.029 A 
ATOM     11  C   LIG    1        3.348   2.159  -3.890  0.00  0.00    +0.045 C 
ENDBRANCH   3   5
BRANCH   2  12
ATOM     12  C   LIG    1        1.401   0.018   0.016  0.00  0.00    +0.138 C 
ATOM     13  C   LIG    1        2.159  -0.797   1.079  0.00  0.00    +0.034 C 
BRANCH  12  14
ATOM     14  N   LIG    1       -0.047   0.128   0.316  0.00  0.00    -0.306 NA
ATOM     15  H   LIG    1       -0.517  -0.572  -0.243  0.00  0.00    +0.123 HD
BRANCH  14  16
ATOM     16  C   LIG    1       -0.622   1.399  -0.110  0.00  0.00    +0.081 C 
BRANCH  16  17
ATOM     17  C   LIG    1       -2.098   1.476   0.311  0.00  0.00    +0.012 C 
ATOM     18  C   LIG    1       -2.763   2.791  -0.117  0.00  0.00    +0.005 C 
ENDBRANCH  16  17
ENDBRANCH  14  16
ENDBRANCH  12  14
ENDBRANCH   2  12
TORSDOF 5
