REMARK  Name = DB00184
REMARK                            x       y       z     vdW  Elec       q    Type
REMARK                         _______ _______ _______ _____ _____    ______ ____
ROOT
ATOM      1  N   LIG    1        0.042  -0.007  -0.082  0.00  0.00    -0.298 NA
ATOM      2  C   LIG    1        1.501   0.025  -0.060  0.00  0.00    +0.105 C 
ATOM      3  C   LIG    1       -0.479  -0.524  -1.340  0.00  0.00    +0.085 C 
ATOM      4  C   LIG    1       -1.951  -0.111  -1.372  0.00  0.00    +0.017 C 
ATOM      5  C   LIG    1       -2.028   1.083  -0.417  0.00  0.00    +0.025 C 
ATOM      6  C   LIG    1       -0.580   1.311   0.045  0.00  0.00    +0.088 C 
ENDROOT
BRANCH   6   7
ATOM      7  C   LIG    1       -0.444   1.973   1.415  0.00  0.00    -0.012 A 
ATOM      8  C   LIG    1       -0.692   1.267   2.600  0.00  0.00    +0.008 A 
ATOM      9  C   LIG    1       -0.570   1.916   3.830  0.00  0.00    +0.020 A 
ATOM     10  C   LIG    1       -0.204   3.263   3.839  0.00  0.00    +0.111 A 
ATOM     11  N   LIG    1        0.036   3.969   2.704  0.00  0.00    -0.263 NA
ATOM     12  C   LIG    1       -0.088   3.322   1.517  0.00  0.00    +0.115 A 
ENDBRANCH   6   7
TORSDOF 1
