REMARK  Name = DB00818
REMARK                            x       y       z     vdW  Elec       q    Type
REMARK                         _______ _______ _______ _____ _____    ______ ____
ROOT
ATOM      1  C   LIG    1        2.208   0.998  -0.580  0.00  0.00    +0.124 A 
ATOM      2  C   LIG    1        3.617   1.035  -0.571  0.00  0.00    -0.003 A 
ATOM      3  C   LIG    1        4.318   0.022   0.094  0.00  0.00    +0.007 A 
ATOM      4  C   LIG    1        3.641  -1.006   0.740  0.00  0.00    +0.001 A 
ATOM      5  C   LIG    1        2.251  -1.036   0.731  0.00  0.00    +0.007 A 
ATOM      6  C   LIG    1        1.513  -0.039   0.077  0.00  0.00    -0.003 A 
ENDROOT
BRANCH   2   7
ATOM      7  C   LIG    1        4.411   2.150  -1.272  0.00  0.00    +0.016 C 
ATOM      8  C   LIG    1        5.284   2.948  -0.283  0.00  0.00    +0.012 C 
ATOM      9  C   LIG    1        5.237   1.609  -2.454  0.00  0.00    +0.012 C 
ENDBRANCH   2   7
BRANCH   6  10
ATOM     10  C   LIG    1       -0.028  -0.082   0.067  0.00  0.00    +0.016 C 
ATOM     11  C   LIG    1       -0.569  -0.572  -1.290  0.00  0.00    +0.012 C 
ATOM     12  C   LIG    1       -0.666  -0.876   1.228  0.00  0.00    +0.012 C 
ENDBRANCH   6  10
BRANCH   1  13
ATOM     13  O   LIG    1        1.500   1.981  -1.228  0.00  0.00    -0.506 OA
ATOM     14  H   LIG    1        0.550   1.851  -1.173  0.00  0.00    +0.292 HD
ENDBRANCH   1  13
TORSDOF 3
