REMARK  Name = DB00649
REMARK                            x       y       z     vdW  Elec       q    Type
REMARK                         _______ _______ _______ _____ _____    ______ ____
ROOT
ATOM      1  N   LIG    1        0.087  -0.076   0.033  0.00  0.00    -0.270 N 
ATOM      2  C   LIG    1       -0.589  -1.253  -0.234  0.00  0.00    +0.332 A 
ATOM      3  N   LIG    1       -1.950  -1.108  -0.311  0.00  0.00    -0.275 N 
ATOM      4  H   LIG    1       -2.460  -1.959  -0.495  0.00  0.00    +0.173 HD
ATOM      5  C   LIG    1       -2.723   0.010  -0.183  0.00  0.00    +0.257 A 
ATOM      6  C   LIG    1       -1.948   1.223   0.067  0.00  0.00    +0.030 A 
ATOM      7  C   LIG    1       -2.701   2.541   0.202  0.00  0.00    +0.051 C 
ATOM      8  O   LIG    1       -3.949  -0.042  -0.279  0.00  0.00    -0.267 OA
ATOM      9  O   LIG    1       -0.077  -2.361  -0.402  0.00  0.00    -0.246 OA
ATOM     10  C   LIG    1       -0.604   1.113   0.158  0.00  0.00    +0.102 A 
ENDROOT
BRANCH   1  15
ATOM     11  O   LIG    1        2.078   0.927   0.839  0.00  0.00    -0.343 OA
ATOM     12  C   LIG    1        3.189   1.484   0.145  0.00  0.00    +0.169 C 
ATOM     13  C   LIG    1        3.169   0.825  -1.217  0.00  0.00    +0.007 C 
ATOM     14  C   LIG    1        2.219  -0.114  -1.238  0.00  0.00    +0.025 C 
ATOM     15  C   LIG    1        1.547  -0.129   0.107  0.00  0.00    +0.248 C 
BRANCH  12  16
ATOM     16  C   LIG    1        3.015   3.012   0.064  0.00  0.00    +0.191 C 
BRANCH  16  17
ATOM     17  O   LIG    1        3.148   3.600   1.343  0.00  0.00    -0.392 OA
ATOM     18  H   LIG    1        3.036   4.550   1.257  0.00  0.00    +0.210 HD
ENDBRANCH  16  17
ENDBRANCH  12  16
ENDBRANCH   1  15
TORSDOF 3
