REMARK  Name = DB00846
REMARK                            x       y       z     vdW  Elec       q    Type
REMARK                         _______ _______ _______ _____ _____    ______ ____
ROOT
ATOM      1  F   LIG    1       -5.896  -3.875   1.280  0.00  0.00    -0.241 F 
ATOM      2  C   LIG    1       -4.695  -3.696   1.837  0.00  0.00    +0.193 C 
ATOM      3  C   LIG    1       -4.831  -2.975   3.186  0.00  0.00    -0.027 C 
ATOM      4  C   LIG    1       -6.002  -2.447   3.623  0.00  0.00    +0.049 C 
ATOM      5  C   LIG    1       -6.144  -1.615   4.808  0.00  0.00    +0.156 C 
ATOM      6  C   LIG    1       -4.836  -1.062   5.379  0.00  0.00    +0.080 C 
ATOM      7  C   LIG    1       -3.735  -2.136   5.330  0.00  0.00    +0.019 C 
ATOM      8  O   LIG    1       -7.244  -1.282   5.242  0.00  0.00    -0.293 OA
ATOM      9  C   LIG    1       -3.473  -2.773   3.921  0.00  0.00    -0.002 C 
ATOM     10  C   LIG    1       -2.826  -4.168   4.185  0.00  0.00    +0.016 C 
ATOM     11  C   LIG    1       -2.617  -1.838   2.971  0.00  0.00    +0.031 C 
ATOM     12  C   LIG    1       -1.249  -1.320   3.553  0.00  0.00    +0.119 C 
ATOM     13  C   LIG    1       -0.474  -0.433   2.536  0.00  0.00    +0.042 C 
ATOM     14  C   LIG    1       -0.280  -1.094   1.138  0.00  0.00    +0.012 C 
ATOM     15  C   LIG    1        0.651  -2.353   1.224  0.00  0.00    +0.015 C 
ATOM     16  C   LIG    1        0.181  -0.114  -0.005  0.00  0.00    +0.164 C 
ATOM     17  C   LIG    1       -0.429  -0.712  -1.305  0.00  0.00    +0.162 C 
ATOM     18  C   LIG    1       -1.502  -1.735  -0.874  0.00  0.00    +0.039 C 
ATOM     19  O   LIG    1       -1.026   0.389  -1.969  0.00  0.00    -0.343 OA
ATOM     20  C   LIG    1       -0.910   1.546  -1.213  0.00  0.00    +0.166 C 
ATOM     21  C   LIG    1        0.109   2.476  -1.869  0.00  0.00    +0.074 C 
ATOM     22  C   LIG    1       -2.287   2.175  -1.062  0.00  0.00    +0.074 C 
ATOM     23  O   LIG    1       -0.464   1.153   0.048  0.00  0.00    -0.332 OA
ATOM     24  C   LIG    1       -1.695  -1.441   0.620  0.00  0.00    +0.004 C 
ATOM     25  C   LIG    1       -2.461  -2.444   1.525  0.00  0.00    +0.002 C 
ATOM     26  C   LIG    1       -3.841  -2.802   0.918  0.00  0.00    +0.045 C 
ENDROOT
BRANCH  16  27
ATOM     27  C   LIG    1        1.724   0.105  -0.055  0.00  0.00    +0.193 C 
ATOM     28  O   LIG    1        2.442  -0.565  -0.802  0.00  0.00    -0.292 OA
BRANCH  27  29
ATOM     29  C   LIG    1        2.298   1.208   0.854  0.00  0.00    +0.233 C 
BRANCH  29  30
ATOM     30  O   LIG    1        3.702   1.310   0.697  0.00  0.00    -0.387 OA
ATOM     31  H   LIG    1        4.024   2.013   1.265  0.00  0.00    +0.210 HD
ENDBRANCH  29  30
ENDBRANCH  27  29
ENDBRANCH  16  27
BRANCH  12  32
ATOM     32  O   LIG    1       -0.414  -2.337   4.068  0.00  0.00    -0.391 OA
ATOM     33  H   LIG    1       -0.892  -2.804   4.757  0.00  0.00    +0.210 HD
ENDBRANCH  12  32
TORSDOF 4
