REMARK  Name = DB00860
REMARK                            x       y       z     vdW  Elec       q    Type
REMARK                         _______ _______ _______ _____ _____    ______ ____
ROOT
ATOM      1  C   LIG    1       -1.785  -1.600  -0.679  0.00  0.00    +0.008 C 
ATOM      2  C   LIG    1       -0.593  -0.778  -1.216  0.00  0.00    +0.043 C 
ATOM      3  C   LIG    1       -0.010   0.005   0.004  0.00  0.00    +0.131 C 
ATOM      4  C   LIG    1       -0.420  -0.895   1.234  0.00  0.00    +0.009 C 
ATOM      5  C   LIG    1        0.490  -2.170   1.343  0.00  0.00    +0.015 C 
ATOM      6  C   LIG    1       -0.531  -0.163   2.609  0.00  0.00    +0.041 C 
ATOM      7  C   LIG    1       -1.249  -0.995   3.710  0.00  0.00    +0.120 C 
ATOM      8  C   LIG    1       -2.653  -1.522   3.227  0.00  0.00    +0.035 C 
ATOM      9  C   LIG    1       -2.603  -2.185   1.804  0.00  0.00    -0.000 C 
ATOM     10  C   LIG    1       -4.036  -2.493   1.311  0.00  0.00    +0.008 C 
ATOM     11  C   LIG    1       -4.824  -3.373   2.293  0.00  0.00    +0.032 C 
ATOM     12  C   LIG    1       -4.858  -2.678   3.654  0.00  0.00    -0.056 C 
ATOM     13  C   LIG    1       -6.022  -2.317   4.245  0.00  0.00    +0.051 C 
ATOM     14  C   LIG    1       -6.136  -1.618   5.524  0.00  0.00    +0.179 C 
ATOM     15  O   LIG    1       -7.214  -1.316   6.034  0.00  0.00    -0.288 OA
ATOM     16  C   LIG    1       -4.848  -1.306   6.135  0.00  0.00    +0.047 C 
ATOM     17  C   LIG    1       -3.659  -1.639   5.595  0.00  0.00    -0.012 C 
ATOM     18  C   LIG    1       -3.458  -2.394   4.271  0.00  0.00    +0.013 C 
ATOM     19  C   LIG    1       -2.805  -3.759   4.628  0.00  0.00    +0.020 C 
ATOM     20  C   LIG    1       -1.872  -1.237   0.811  0.00  0.00    +0.002 C 
ENDROOT
BRANCH   3  21
ATOM     21  C   LIG    1        1.534   0.229  -0.102  0.00  0.00    +0.190 C 
ATOM     22  O   LIG    1        2.240  -0.539  -0.764  0.00  0.00    -0.292 OA
BRANCH  21  23
ATOM     23  C   LIG    1        2.153   1.432   0.645  0.00  0.00    +0.233 C 
BRANCH  23  24
ATOM     24  O   LIG    1        3.562   1.449   0.499  0.00  0.00    -0.387 OA
ATOM     25  H   LIG    1        3.906   2.228   0.941  0.00  0.00    +0.210 HD
ENDBRANCH  23  24
ENDBRANCH  21  23
ENDBRANCH   3  21
BRANCH   3  26
ATOM     26  O   LIG    1       -0.588   1.308   0.040  0.00  0.00    -0.380 OA
ATOM     27  H   LIG    1       -1.543   1.216   0.039  0.00  0.00    +0.211 HD
ENDBRANCH   3  26
BRANCH   7  28
ATOM     28  O   LIG    1       -0.388  -1.992   4.221  0.00  0.00    -0.391 OA
ATOM     29  H   LIG    1       -0.830  -2.432   4.950  0.00  0.00    +0.210 HD
ENDBRANCH   7  28
TORSDOF 5
