REMARK  Name = DB00813
REMARK                            x       y       z     vdW  Elec       q    Type
REMARK                         _______ _______ _______ _____ _____    ______ ____
ROOT
ATOM      1  C   LIG    1        1.385   0.113  -0.392  0.00  0.00    +0.084 C 
ATOM      2  C   LIG    1        2.136  -0.955   0.437  0.00  0.00    +0.038 C 
ATOM      3  C   LIG    1        3.659  -0.937   0.202  0.00  0.00    +0.086 C 
ATOM      4  N   LIG    1        4.013  -1.016  -1.221  0.00  0.00    -0.302 NA
ATOM      5  C   LIG    1        3.416   0.091  -1.982  0.00  0.00    +0.086 C 
ATOM      6  C   LIG    1        1.879   0.138  -1.855  0.00  0.00    +0.038 C 
ENDROOT
BRANCH   1   9
ATOM      7  O   LIG    1       -0.495  -1.883  -1.051  0.00  0.00    -0.275 OA
ATOM      8  C   LIG    1       -0.909  -0.848  -0.521  0.00  0.00    +0.220 C 
ATOM      9  N   LIG    1       -0.081   0.190  -0.199  0.00  0.00    -0.268 N 
BRANCH   9  10
ATOM     10  C   LIG    1       -0.597   1.470   0.079  0.00  0.00    +0.037 A 
ATOM     11  C   LIG    1       -0.479   1.982   1.375  0.00  0.00    +0.023 A 
ATOM     12  C   LIG    1       -0.960   3.257   1.659  0.00  0.00    +0.002 A 
ATOM     13  C   LIG    1       -1.549   4.015   0.648  0.00  0.00    +0.000 A 
ATOM     14  C   LIG    1       -1.658   3.513  -0.648  0.00  0.00    +0.002 A 
ATOM     15  C   LIG    1       -1.177   2.240  -0.937  0.00  0.00    +0.023 A 
ENDBRANCH   9  10
BRANCH   8  16
ATOM     16  C   LIG    1       -2.413  -0.750  -0.166  0.00  0.00    +0.093 C 
ATOM     17  C   LIG    1       -3.167  -2.093  -0.185  0.00  0.00    +0.013 C 
ENDBRANCH   8  16
ENDBRANCH   1   9
BRANCH   4  18
ATOM     18  C   LIG    1        5.473  -1.084  -1.361  0.00  0.00    +0.089 C 
BRANCH  18  19
ATOM     19  C   LIG    1        5.938  -1.421  -2.794  0.00  0.00    +0.050 C 
BRANCH  19  20
ATOM     20  C   LIG    1        7.444  -1.629  -2.868  0.00  0.00    -0.046 A 
ATOM     21  C   LIG    1        8.293  -0.527  -2.996  0.00  0.00    +0.003 A 
ATOM     22  C   LIG    1        9.672  -0.714  -3.056  0.00  0.00    +0.000 A 
ATOM     23  C   LIG    1       10.197  -2.003  -2.988  0.00  0.00    +0.000 A 
ATOM     24  C   LIG    1        9.356  -3.106  -2.859  0.00  0.00    +0.000 A 
ATOM     25  C   LIG    1        7.977  -2.920  -2.798  0.00  0.00    +0.003 A 
ENDBRANCH  19  20
ENDBRANCH  18  19
ENDBRANCH   4  18
TORSDOF 6
