REMARK  Name = DB00728
REMARK                            x       y       z     vdW  Elec       q    Type
REMARK                         _______ _______ _______ _____ _____    ______ ____
ROOT
ATOM      1  C   LIG    1       -5.336  -6.991  -1.845  0.00  0.00    +0.086 C 
ATOM      2  C   LIG    1       -4.635  -5.789  -1.115  0.00  0.00    +0.028 C 
ATOM      3  C   LIG    1       -3.197  -5.408  -1.635  0.00  0.00    -0.025 C 
ATOM      4  C   LIG    1       -2.169  -6.553  -1.367  0.00  0.00    +0.012 C 
ATOM      5  C   LIG    1       -2.713  -4.057  -0.969  0.00  0.00    -0.001 C 
ATOM      6  C   LIG    1       -2.656  -4.089   0.594  0.00  0.00    +0.005 C 
ATOM      7  C   LIG    1       -2.148  -2.761   1.212  0.00  0.00    +0.011 C 
ATOM      8  C   LIG    1       -0.776  -2.343   0.625  0.00  0.00    +0.007 C 
ATOM      9  C   LIG    1        0.328  -3.386   1.000  0.00  0.00    +0.015 C 
ATOM     10  C   LIG    1       -0.323  -0.896   0.999  0.00  0.00    +0.170 C 
ATOM     11  C   LIG    1        0.394  -0.319  -0.266  0.00  0.00    -0.023 C 
ATOM     12  C   LIG    1        0.251  -1.399  -1.367  0.00  0.00    -0.007 C 
ATOM     13  C   LIG    1       -0.978  -2.184  -0.900  0.00  0.00    +0.000 C 
ATOM     14  C   LIG    1       -1.373  -3.513  -1.596  0.00  0.00    -0.004 C 
ATOM     15  C   LIG    1       -1.512  -3.352  -3.130  0.00  0.00    +0.004 C 
ATOM     16  C   LIG    1       -2.016  -4.645  -3.797  0.00  0.00    +0.004 C 
ATOM     17  C   LIG    1       -3.356  -5.093  -3.168  0.00  0.00    -0.002 C 
ATOM     18  C   LIG    1       -4.037  -6.260  -3.933  0.00  0.00    +0.037 C 
ATOM     19  C   LIG    1       -5.436  -6.550  -3.343  0.00  0.00    +0.132 C 
ENDROOT
BRANCH   1  20
ATOM     20  N   LIG    1       -4.681  -8.296  -1.586  0.00  0.00    -0.293 NA
ATOM     21  C   LIG    1       -5.113  -9.382  -2.483  0.00  0.00    +0.113 C 
ATOM     22  C   LIG    1       -4.453 -10.734  -2.139  0.00  0.00    +0.175 C 
ATOM     23  O   LIG    1       -4.673 -11.054  -0.772  0.00  0.00    -0.377 OA
ATOM     24  C   LIG    1       -4.124 -10.073   0.096  0.00  0.00    +0.175 C 
ATOM     25  C   LIG    1       -4.781  -8.703  -0.172  0.00  0.00    +0.113 C 
ENDBRANCH   1  20
BRANCH  11  26
ATOM     26  N   LIG    1        1.708   0.531  -0.156  0.00  0.00    +0.387 N 
ATOM     27  C   LIG    1        2.226   0.979  -1.551  0.00  0.00    -0.074 C 
ATOM     28  C   LIG    1        3.714   1.275  -1.357  0.00  0.00    -0.020 C 
ATOM     29  C   LIG    1        4.171   0.356  -0.225  0.00  0.00    -0.020 C 
ATOM     30  C   LIG    1        2.910  -0.320   0.333  0.00  0.00    -0.074 C 
BRANCH  26  31
ATOM     31  C   LIG    1        1.521   1.775   0.776  0.00  0.00    -0.047 C 
BRANCH  31  32
ATOM     32  C   LIG    1        0.443   2.766   0.363  0.00  0.00    -0.053 C 
ATOM     33  C   LIG    1        0.680   3.990  -0.134  0.00  0.00    +0.002 C 
ENDBRANCH  31  32
ENDBRANCH  26  31
ENDBRANCH  11  26
BRANCH  19  34
ATOM     34  O   LIG    1       -6.344  -5.476  -3.529  0.00  0.00    -0.390 OA
ATOM     35  H   LIG    1       -7.023  -5.754  -4.148  0.00  0.00    +0.210 HD
ENDBRANCH  19  34
BRANCH  10  36
ATOM     36  O   LIG    1        0.481  -0.870   2.184  0.00  0.00    -0.463 OA
BRANCH  36  37
ATOM     37  C   LIG    1       -0.061  -0.732   3.415  0.00  0.00    +0.304 C 
ATOM     38  O   LIG    1       -1.255  -0.587   3.678  0.00  0.00    -0.251 OA
ATOM     39  C   LIG    1        0.994  -0.765   4.513  0.00  0.00    +0.136 C 
ENDBRANCH  36  37
ENDBRANCH  10  36
TORSDOF 7
