REMARK  Name = DB00354
REMARK                            x       y       z     vdW  Elec       q    Type
REMARK                         _______ _______ _______ _____ _____    ______ ____
ROOT
ATOM      1  N   LIG    1        0.038  -0.073  -0.057  0.00  0.00    -0.289 NA
ATOM      2  C   LIG    1       -0.482  -0.890   1.057  0.00  0.00    +0.100 C 
ATOM      3  C   LIG    1       -2.029  -0.858   1.079  0.00  0.00    +0.100 C 
ATOM      4  N   LIG    1       -2.507   0.520   1.267  0.00  0.00    -0.296 NA
ATOM      5  C   LIG    1       -1.996   1.337   0.160  0.00  0.00    +0.100 C 
ATOM      6  C   LIG    1       -0.450   1.306   0.141  0.00  0.00    +0.100 C 
ENDROOT
BRANCH   1   7
ATOM      7  C   LIG    1        1.516  -0.138  -0.177  0.00  0.00    +0.117 C 
BRANCH   7  12
ATOM      8 CL   LIG    1        3.790   3.375  -4.547  0.00  0.00    -0.084 Cl
ATOM      9  C   LIG    1        3.139   2.365  -3.309  0.00  0.00    +0.041 A 
ATOM     10  C   LIG    1        1.965   1.652  -3.545  0.00  0.00    +0.020 A 
ATOM     11  C   LIG    1        1.438   0.839  -2.545  0.00  0.00    +0.007 A 
ATOM     12  C   LIG    1        2.084   0.739  -1.305  0.00  0.00    -0.026 A 
ATOM     13  C   LIG    1        3.263   1.456  -1.081  0.00  0.00    +0.007 A 
ATOM     14  C   LIG    1        3.790   2.269  -2.081  0.00  0.00    +0.020 A 
ENDBRANCH   7  12
BRANCH   7  15
ATOM     15  C   LIG    1        2.074  -1.563  -0.310  0.00  0.00    -0.026 A 
ATOM     16  C   LIG    1        1.429  -2.529  -1.095  0.00  0.00    +0.005 A 
ATOM     17  C   LIG    1        1.951  -3.816  -1.191  0.00  0.00    +0.000 A 
ATOM     18  C   LIG    1        3.118  -4.139  -0.503  0.00  0.00    +0.000 A 
ATOM     19  C   LIG    1        3.768  -3.187   0.279  0.00  0.00    +0.000 A 
ATOM     20  C   LIG    1        3.246  -1.900   0.374  0.00  0.00    +0.005 A 
ENDBRANCH   7  15
ENDBRANCH   1   7
BRANCH   4  21
ATOM     21  C   LIG    1       -3.971   0.592   1.299  0.00  0.00    +0.119 C 
BRANCH  21  22
ATOM     22  C   LIG    1       -4.558   0.013   2.581  0.00  0.00    -0.033 A 
ATOM     23  C   LIG    1       -5.136  -1.257   2.575  0.00  0.00    +0.005 A 
ATOM     24  C   LIG    1       -5.640  -1.796   3.754  0.00  0.00    +0.004 A 
ATOM     25  C   LIG    1       -5.566  -1.087   4.962  0.00  0.00    -0.042 A 
ATOM     26  C   LIG    1       -4.962   0.181   4.955  0.00  0.00    +0.004 A 
ATOM     27  C   LIG    1       -4.458   0.723   3.777  0.00  0.00    +0.005 A 
BRANCH  25  28
ATOM     28  C   LIG    1       -6.145  -1.721   6.253  0.00  0.00    -0.013 C 
ATOM     29  C   LIG    1       -5.417  -3.055   6.551  0.00  0.00    +0.015 C 
ATOM     30  C   LIG    1       -5.993  -0.816   7.505  0.00  0.00    +0.015 C 
ATOM     31  C   LIG    1       -7.658  -1.998   6.064  0.00  0.00    +0.015 C 
ENDBRANCH  25  28
ENDBRANCH  21  22
ENDBRANCH   4  21
TORSDOF 6
