REMARK  Name = DB00422
REMARK                            x       y       z     vdW  Elec       q    Type
REMARK                         _______ _______ _______ _____ _____    ______ ____
ROOT
ATOM      1  C   LIG    1        0.065   0.068   0.070  0.00  0.00    +0.144 C 
ENDROOT
BRANCH   1   2
ATOM      2  C   LIG    1       -0.494   1.522  -0.035  0.00  0.00    +0.072 C 
ATOM      3  C   LIG    1       -0.087   2.229  -1.361  0.00  0.00    +0.020 C 
ATOM      4  C   LIG    1       -0.648   3.656  -1.476  0.00  0.00    +0.003 C 
ATOM      5  C   LIG    1       -2.158   3.659  -1.209  0.00  0.00    +0.015 C 
ATOM      6  C   LIG    1       -2.498   2.958   0.118  0.00  0.00    +0.081 C 
ATOM      7  N   LIG    1       -1.948   1.604   0.175  0.00  0.00    -0.312 NA
ATOM      8  H   LIG    1       -2.176   1.196   1.070  0.00  0.00    +0.122 HD
ENDBRANCH   1   2
BRANCH   1   9
ATOM      9  C   LIG    1       -0.463  -0.713   1.283  0.00  0.00    -0.032 A 
ATOM     10  C   LIG    1       -0.340  -0.203   2.582  0.00  0.00    +0.004 A 
ATOM     11  C   LIG    1       -0.839  -0.921   3.666  0.00  0.00    +0.000 A 
ATOM     12  C   LIG    1       -1.462  -2.148   3.452  0.00  0.00    +0.000 A 
ATOM     13  C   LIG    1       -1.589  -2.664   2.164  0.00  0.00    +0.000 A 
ATOM     14  C   LIG    1       -1.091  -1.947   1.080  0.00  0.00    +0.004 A 
ENDBRANCH   1   9
BRANCH   1  15
ATOM     15  C   LIG    1        1.606  -0.009   0.099  0.00  0.00    +0.316 C 
ATOM     16  O   LIG    1        2.293   0.858   0.646  0.00  0.00    -0.250 OA
BRANCH  15  17
ATOM     17  O   LIG    1        2.076  -1.097  -0.547  0.00  0.00    -0.467 OA
ATOM     18  C   LIG    1        3.473  -1.340  -0.628  0.00  0.00    +0.280 C 
ENDBRANCH  15  17
ENDBRANCH   1  15
TORSDOF 4
