REMARK  Name = DB00260
REMARK                            x       y       z     vdW  Elec       q    Type
REMARK                         _______ _______ _______ _____ _____    ______ ____
ROOT
ATOM      1  O   LIG    1       -1.667   1.253   0.823  0.00  0.00    -0.278 OA
ATOM      2  N   LIG    1       -1.247   0.377   1.820  0.00  0.00    -0.193 N 
ATOM      3  H   LIG    1       -1.906   0.468   2.580  0.00  0.00    +0.182 HD
ATOM      4  C   LIG    1       -0.606  -0.665   1.273  0.00  0.00    +0.255 C 
ATOM      5  O   LIG    1       -0.520  -1.818   1.692  0.00  0.00    -0.272 OA
ATOM      6  C   LIG    1       -0.004  -0.095  -0.003  0.00  0.00    +0.168 C 
ATOM      7  C   LIG    1       -0.577   1.318  -0.075  0.00  0.00    +0.218 C 
ENDROOT
BRANCH   6   8
ATOM      8  N   LIG    1        1.448  -0.124   0.083  0.00  0.00    -0.318 NA
ATOM      9  H   LIG    1        1.833   0.783  -0.139  0.00  0.00    +0.119 HD
ATOM     10  H   LIG    1        1.826  -0.783  -0.583  0.00  0.00    +0.119 HD
ENDBRANCH   6   8
TORSDOF 1
