REMARK  Name = DB00752
REMARK                            x       y       z     vdW  Elec       q    Type
REMARK                         _______ _______ _______ _____ _____    ______ ____
ROOT
ATOM      1  C   LIG    1        1.468  -0.022  -0.076  0.00  0.00    +0.059 C 
ATOM      2  C   LIG    1        2.095   0.141   1.298  0.00  0.00    +0.037 C 
ATOM      3  C   LIG    1        2.220  -1.171   0.563  0.00  0.00    +0.028 C 
ENDROOT
BRANCH   2   4
ATOM      4  C   LIG    1        1.320   0.233   2.606  0.00  0.00    -0.043 A 
ATOM      5  C   LIG    1        1.529  -0.715   3.612  0.00  0.00    +0.004 A 
ATOM      6  C   LIG    1        0.833  -0.616   4.814  0.00  0.00    +0.000 A 
ATOM      7  C   LIG    1       -0.061   0.434   5.010  0.00  0.00    +0.000 A 
ATOM      8  C   LIG    1       -0.265   1.389   4.015  0.00  0.00    +0.000 A 
ATOM      9  C   LIG    1        0.431   1.290   2.813  0.00  0.00    +0.004 A 
ENDBRANCH   2   4
BRANCH   1  10
ATOM     10  N   LIG    1        0.022  -0.098  -0.169  0.00  0.00    -0.327 NA
ATOM     11  H   LIG    1       -0.261  -0.604  -0.996  0.00  0.00    +0.118 HD
ATOM     12  H   LIG    1       -0.387   0.826  -0.205  0.00  0.00    +0.118 HD
ENDBRANCH   1  10
TORSDOF 2
