REMARK  Name = DB00497
REMARK                            x       y       z     vdW  Elec       q    Type
REMARK                         _______ _______ _______ _____ _____    ______ ____
ROOT
ATOM      1  C   LIG    1       -2.107   1.240  -0.094  0.00  0.00    +0.014 A 
ATOM      2  C   LIG    1       -2.920   0.113  -0.209  0.00  0.00    -0.038 A 
ATOM      3  C   LIG    1       -2.275  -1.130  -0.133  0.00  0.00    +0.008 A 
ATOM      4  C   LIG    1       -0.880  -1.218   0.015  0.00  0.00    +0.050 A 
ATOM      5  C   LIG    1       -0.082  -0.054   0.049  0.00  0.00    +0.162 A 
ATOM      6  C   LIG    1       -4.421   0.309  -0.454  0.00  0.00    +0.057 C 
ATOM      7  C   LIG    1       -4.883   1.776  -0.155  0.00  0.00    +0.093 C 
ATOM      8  N   LIG    1       -5.092   1.946   1.310  0.00  0.00    -0.299 NA
ATOM      9  C   LIG    1       -3.878   2.131   2.129  0.00  0.00    +0.085 C 
ATOM     10  C   LIG    1       -2.809   3.046   1.486  0.00  0.00    +0.034 C 
ATOM     11  C   LIG    1       -6.125   2.928   1.638  0.00  0.00    +0.105 C 
ATOM     12  C   LIG    1       -3.887   2.842  -0.774  0.00  0.00    +0.096 C 
ATOM     13  C   LIG    1       -3.642   2.733  -2.304  0.00  0.00    +0.045 C 
ATOM     14  C   LIG    1       -2.538   3.692  -2.814  0.00  0.00    +0.081 C 
ATOM     15  C   LIG    1       -1.194   3.447  -2.114  0.00  0.00    +0.175 C 
ATOM     16  O   LIG    1       -0.156   3.299  -2.757  0.00  0.00    -0.293 OA
ATOM     17  C   LIG    1       -1.238   3.320  -0.563  0.00  0.00    +0.252 C 
ATOM     18  O   LIG    1       -0.179   2.429  -0.131  0.00  0.00    -0.476 OA
ATOM     19  C   LIG    1       -0.739   1.172  -0.040  0.00  0.00    +0.167 A 
ATOM     20  C   LIG    1       -2.542   2.679  -0.005  0.00  0.00    +0.075 C 
ENDROOT
BRANCH   5  21
ATOM     21  O   LIG    1        1.295  -0.022   0.136  0.00  0.00    -0.491 OA
ATOM     22  C   LIG    1        2.000  -1.255   0.211  0.00  0.00    +0.277 C 
ENDBRANCH   5  21
BRANCH  12  23
ATOM     23  O   LIG    1       -4.357   4.177  -0.603  0.00  0.00    -0.386 OA
ATOM     24  H   LIG    1       -5.197   4.263  -1.059  0.00  0.00    +0.210 HD
ENDBRANCH  12  23
TORSDOF 2
