REMARK  Name = DB00733
REMARK                            x       y       z     vdW  Elec       q    Type
REMARK                         _______ _______ _______ _____ _____    ______ ____
ROOT
ATOM      1  C   LIG    1       -2.123  -1.047   0.000  0.00  0.00    +0.003 C 
ATOM      2  C   LIG    1       -0.734  -1.149   0.000  0.00  0.00    +0.026 C 
ATOM      3  C   LIG    1        0.079   0.002   0.000  0.00  0.00    +0.088 C 
ATOM      4  N   LIG    1       -0.542   1.239   0.000  0.00  0.00    -0.288 NA
ATOM      5  C   LIG    1        0.141   2.566   0.000  0.00  0.00    +0.106 C 
ATOM      6  C   LIG    1       -1.899   1.341   0.000  0.00  0.00    +0.078 C 
ATOM      7  C   LIG    1       -2.712   0.211   0.000  0.00  0.00    +0.016 C 
ENDROOT
BRANCH   3   8
ATOM      8  C   LIG    1        1.561  -0.118   0.000  0.00  0.00    +0.150 C 
ATOM      9  N   LIG    1        2.161  -1.239   0.000  0.00  0.00    -0.098 NA
BRANCH   9  10
ATOM     10  O   LIG    1        3.555  -1.081   0.000  0.00  0.00    -0.409 OA
ATOM     11  H   LIG    1        3.862  -1.991   0.000  0.00  0.00    +0.328 HD
ENDBRANCH   9  10
ENDBRANCH   3   8
TORSDOF 2
