REMARK  Name = DB00444
REMARK                            x       y       z     vdW  Elec       q    Type
REMARK                         _______ _______ _______ _____ _____    ______ ____
ROOT
ATOM      1  C   LIG    1        0.152   2.387  -1.337  0.00  0.00    +0.075 C 
ATOM      2  C   LIG    1        0.167   3.865  -0.961  0.00  0.00    +0.239 C 
ATOM      3  O   LIG    1        0.655   3.848   0.380  0.00  0.00    -0.464 OA
ATOM      4  C   LIG    1        0.503   2.629   0.954  0.00  0.00    +0.312 C 
ATOM      5  O   LIG    1        0.912   2.384   2.087  0.00  0.00    -0.250 OA
ATOM      6  C   LIG    1       -0.183   1.692  -0.039  0.00  0.00    +0.118 C 
ATOM      7  C   LIG    1        0.142   0.178  -0.112  0.00  0.00    +0.064 C 
ATOM      8  C   LIG    1       -0.463  -0.439  -1.393  0.00  0.00    -0.030 A 
ATOM      9  C   LIG    1       -0.593  -1.838  -1.476  0.00  0.00    +0.054 A 
ATOM     10  C   LIG    1       -1.082  -2.401  -2.644  0.00  0.00    +0.167 A 
ATOM     11  O   LIG    1       -1.309  -3.710  -2.930  0.00  0.00    -0.453 OA
ATOM     12  C   LIG    1       -1.637  -3.745  -4.294  0.00  0.00    +0.466 C 
ATOM     13  O   LIG    1       -1.918  -2.432  -4.699  0.00  0.00    -0.453 OA
ATOM     14  C   LIG    1       -1.445  -1.635  -3.706  0.00  0.00    +0.167 A 
ATOM     15  C   LIG    1       -1.348  -0.252  -3.671  0.00  0.00    +0.056 A 
ATOM     16  C   LIG    1       -0.843   0.370  -2.515  0.00  0.00    -0.011 A 
ATOM     17  C   LIG    1       -0.797   1.909  -2.452  0.00  0.00    +0.159 C 
ENDROOT
BRANCH   7  18
ATOM     18  C   LIG    1        1.631  -0.170   0.074  0.00  0.00    -0.032 A 
ATOM     19  C   LIG    1        2.113  -0.490   1.346  0.00  0.00    +0.054 A 
ATOM     20  C   LIG    1        3.462  -0.816   1.553  0.00  0.00    +0.165 A 
ATOM     21  C   LIG    1        4.328  -0.830   0.451  0.00  0.00    +0.201 A 
ATOM     22  C   LIG    1        3.868  -0.528  -0.837  0.00  0.00    +0.165 A 
ATOM     23  C   LIG    1        2.514  -0.199  -1.010  0.00  0.00    +0.054 A 
BRANCH  20  24
ATOM     24  O   LIG    1        3.995  -1.127   2.793  0.00  0.00    -0.491 OA
ATOM     25  C   LIG    1        3.154  -1.113   3.941  0.00  0.00    +0.277 C 
ENDBRANCH  20  24
BRANCH  22  26
ATOM     26  O   LIG    1        4.786  -0.575  -1.873  0.00  0.00    -0.491 OA
ATOM     27  C   LIG    1        4.355  -0.309  -3.203  0.00  0.00    +0.277 C 
ENDBRANCH  22  26
BRANCH  21  28
ATOM     28  O   LIG    1        5.653  -1.148   0.634  0.00  0.00    -0.501 OA
ATOM     29  H   LIG    1        6.154  -1.119  -0.184  0.00  0.00    +0.292 HD
ENDBRANCH  21  28
ENDBRANCH   7  18
BRANCH  17  30
ATOM     30  O   LIG    1       -2.085   2.435  -2.125  0.00  0.00    -0.340 OA
BRANCH  30  31
ATOM     31  C   LIG    1       -2.872   2.897  -3.181  0.00  0.00    +0.282 C 
ATOM     32  O   LIG    1       -2.304   4.072  -3.715  0.00  0.00    -0.340 OA
ATOM     33  C   LIG    1       -3.066   4.590  -4.804  0.00  0.00    +0.178 C 
ATOM     34  C   LIG    1       -2.368   5.785  -5.465  0.00  0.00    +0.197 C 
ATOM     35  O   LIG    1       -3.215   6.301  -6.498  0.00  0.00    -0.344 OA
ATOM     36  C   LIG    1       -4.481   6.682  -6.002  0.00  0.00    +0.289 C 
ATOM     37  O   LIG    1       -5.142   5.572  -5.434  0.00  0.00    -0.338 OA
ATOM     38  C   LIG    1       -4.431   5.070  -4.298  0.00  0.00    +0.184 C 
ATOM     39  C   LIG    1       -5.177   3.893  -3.650  0.00  0.00    +0.179 C 
ATOM     40  C   LIG    1       -4.272   3.197  -2.597  0.00  0.00    +0.201 C 
BRANCH  36  41
ATOM     41  C   LIG    1       -5.297   7.153  -7.151  0.00  0.00    +0.045 A 
ATOM     42  C   LIG    1       -5.874   8.408  -7.327  0.00  0.00    +0.016 A 
ATOM     43  C   LIG    1       -6.587   8.529  -8.525  0.00  0.00    +0.008 A 
ATOM     44  C   LIG    1       -6.561   7.367  -9.280  0.00  0.00    +0.045 A 
ATOM     45  S   LIG    1       -5.651   6.112  -8.505  0.00  0.00    -0.097 S 
ENDBRANCH  36  41
BRANCH  39  46
ATOM     46  O   LIG    1       -6.394   4.335  -3.076  0.00  0.00    -0.386 OA
ATOM     47  H   LIG    1       -6.929   4.731  -3.767  0.00  0.00    +0.210 HD
ENDBRANCH  39  46
BRANCH  40  48
ATOM     48  O   LIG    1       -4.875   2.017  -2.096  0.00  0.00    -0.384 OA
ATOM     49  H   LIG    1       -5.301   1.557  -2.824  0.00  0.00    +0.210 HD
ENDBRANCH  40  48
ENDBRANCH  30  31
ENDBRANCH  17  30
TORSDOF 9
