REMARK  Name = DB00772
REMARK                            x       y       z     vdW  Elec       q    Type
REMARK                         _______ _______ _______ _____ _____    ______ ____
ROOT
ATOM      1  C   LIG    1        1.699   0.046  -0.436  0.00  0.00    +0.174 C 
ENDROOT
BRANCH   1   2
ATOM      2  C   LIG    1        2.273  -0.217   0.977  0.00  0.00    +0.321 C 
ATOM      3  O   LIG    1        1.569  -0.336   1.983  0.00  0.00    -0.250 OA
BRANCH   2   4
ATOM      4  O   LIG    1        3.627  -0.277   0.964  0.00  0.00    -0.464 OA
BRANCH   4   5
ATOM      5  C   LIG    1        4.375  -0.536   2.149  0.00  0.00    +0.229 C 
ATOM      6  C   LIG    1        4.400  -2.035   2.490  0.00  0.00    +0.048 C 
ENDBRANCH   4   5
ENDBRANCH   2   4
ENDBRANCH   1   2
BRANCH   1   7
ATOM      7  S   LIG    1       -0.111   0.335  -0.361  0.00  0.00    -0.059 S 
BRANCH   7   8
ATOM      8  P   LIG    1       -0.214   2.360   0.336  0.00  0.00    +0.229 P 
ATOM      9  S   LIG    1        1.100   3.602  -0.437  0.00  0.00    +0.003 S 
BRANCH   8  10
ATOM     10  O   LIG    1       -0.162   2.154   1.953  0.00  0.00    -0.327 OA
ATOM     11  C   LIG    1       -0.256   3.257   2.839  0.00  0.00    +0.203 C 
ENDBRANCH   8  10
BRANCH   8  12
ATOM     12  O   LIG    1       -1.789   2.721   0.105  0.00  0.00    -0.327 OA
ATOM     13  C   LIG    1       -2.318   2.921  -1.195  0.00  0.00    +0.203 C 
ENDBRANCH   8  12
ENDBRANCH   7   8
ENDBRANCH   1   7
BRANCH   1  14
ATOM     14  C   LIG    1        2.125  -1.004  -1.503  0.00  0.00    +0.146 C 
BRANCH  14  15
ATOM     15  C   LIG    1        1.677  -2.463  -1.296  0.00  0.00    +0.309 C 
ATOM     16  O   LIG    1        0.992  -2.820  -0.335  0.00  0.00    -0.251 OA
BRANCH  15  17
ATOM     17  O   LIG    1        2.131  -3.265  -2.280  0.00  0.00    -0.465 OA
BRANCH  17  18
ATOM     18  C   LIG    1        1.837  -4.655  -2.276  0.00  0.00    +0.229 C 
ATOM     19  C   LIG    1        2.473  -5.315  -3.503  0.00  0.00    +0.048 C 
ENDBRANCH  17  18
ENDBRANCH  15  17
ENDBRANCH  14  15
ENDBRANCH   1  14
TORSDOF 11
