REMARK  Name = DB00169
REMARK                            x       y       z     vdW  Elec       q    Type
REMARK                         _______ _______ _______ _____ _____    ______ ____
ROOT
ATOM      1  C   LIG    1       -2.959   1.410   1.404  0.00  0.00    +0.008 C 
ATOM      2  C   LIG    1       -4.450   1.799   1.286  0.00  0.00    +0.005 C 
ATOM      3  C   LIG    1       -4.670   3.075   0.434  0.00  0.00    +0.031 C 
ATOM      4  C   LIG    1       -3.929   2.989  -0.911  0.00  0.00    -0.066 C 
ATOM      5  C   LIG    1       -4.478   3.191  -2.131  0.00  0.00    -0.000 C 
ATOM      6  C   LIG    1       -2.448   2.636  -0.693  0.00  0.00    +0.021 C 
ATOM      7  C   LIG    1       -1.461   2.594  -1.862  0.00  0.00    +0.009 C 
ATOM      8  C   LIG    1       -0.271   1.806  -1.300  0.00  0.00    +0.005 C 
ATOM      9  C   LIG    1       -0.727   1.141   0.032  0.00  0.00    -0.002 C 
ATOM     10  C   LIG    1       -2.292   1.257   0.006  0.00  0.00    -0.022 C 
ATOM     11  C   LIG    1       -2.935   0.095  -0.815  0.00  0.00    +0.012 C 
ENDROOT
BRANCH   5  12
ATOM     12  C   LIG    1       -5.871   3.520  -2.413  0.00  0.00    +0.004 C 
ATOM     13  C   LIG    1       -6.401   3.781  -3.632  0.00  0.00    -0.042 C 
ATOM     14  C   LIG    1       -7.895   4.061  -3.792  0.00  0.00    +0.066 C 
ATOM     15  C   LIG    1       -8.482   3.154  -4.902  0.00  0.00    +0.119 C 
ATOM     16  C   LIG    1       -7.676   3.234  -6.221  0.00  0.00    +0.036 C 
ATOM     17  C   LIG    1       -6.170   2.953  -6.016  0.00  0.00    +0.037 C 
ATOM     18  C   LIG    1       -5.637   3.820  -4.881  0.00  0.00    -0.051 C 
ATOM     19  C   LIG    1       -4.542   4.589  -5.034  0.00  0.00    +0.012 C 
BRANCH  15  20
ATOM     20  O   LIG    1       -9.845   3.457  -5.127  0.00  0.00    -0.391 OA
ATOM     21  H   LIG    1       -9.909   4.362  -5.438  0.00  0.00    +0.210 HD
ENDBRANCH  15  20
ENDBRANCH   5  12
BRANCH   9  22
ATOM     22  C   LIG    1       -0.080  -0.269   0.270  0.00  0.00    -0.010 C 
ATOM     23  C   LIG    1       -0.571  -0.954   1.566  0.00  0.00    +0.008 C 
BRANCH  22  24
ATOM     24  C   LIG    1        1.475  -0.198   0.253  0.00  0.00    +0.003 C 
BRANCH  24  25
ATOM     25  C   LIG    1        2.189  -1.560   0.118  0.00  0.00    +0.001 C 
BRANCH  25  26
ATOM     26  C   LIG    1        3.712  -1.418  -0.083  0.00  0.00    +0.003 C 
BRANCH  26  27
ATOM     27  C   LIG    1        4.486  -2.757  -0.147  0.00  0.00    -0.017 C 
ATOM     28  C   LIG    1        6.006  -2.514  -0.142  0.00  0.00    +0.007 C 
ATOM     29  C   LIG    1        4.078  -3.628  -1.352  0.00  0.00    +0.007 C 
ENDBRANCH  26  27
ENDBRANCH  25  26
ENDBRANCH  24  25
ENDBRANCH  22  24
ENDBRANCH   9  22
TORSDOF 7
