REMARK  Name = DB00608
REMARK                            x       y       z     vdW  Elec       q    Type
REMARK                         _______ _______ _______ _____ _____    ______ ____
ROOT
ATOM      1  N   LIG    1       -2.510   0.656   1.150  0.00  0.00    -0.341 N 
ATOM      2  H   LIG    1       -1.964   0.760   1.993  0.00  0.00    +0.146 HD
ENDROOT
BRANCH   1  11
ATOM      3  N   LIG    1       -6.085  -1.625   1.363  0.00  0.00    -0.255 NA
ATOM      4  C   LIG    1       -5.364  -1.384   2.491  0.00  0.00    +0.074 A 
ATOM      5  C   LIG    1       -5.841  -1.917   3.713  0.00  0.00    +0.048 A 
ATOM      6  C   LIG    1       -5.140  -1.699   4.896  0.00  0.00    +0.043 A 
ATOM      7  C   LIG    1       -3.964  -0.958   4.891  0.00  0.00    +0.021 A 
ATOM      8  C   LIG    1       -3.467  -0.421   3.706  0.00  0.00    +0.013 A 
ATOM      9 CL   LIG    1       -5.735  -2.354   6.378  0.00  0.00    -0.083 Cl
ATOM     10  C   LIG    1       -4.154  -0.620   2.474  0.00  0.00    +0.021 A 
ATOM     11  C   LIG    1       -3.700  -0.098   1.218  0.00  0.00    +0.038 A 
ATOM     12  C   LIG    1       -4.472  -0.365   0.079  0.00  0.00    +0.043 A 
ATOM     13  C   LIG    1       -5.635  -1.117   0.194  0.00  0.00    +0.113 A 
ENDBRANCH   1  11
BRANCH   1  14
ATOM     14  C   LIG    1       -1.932   1.175  -0.089  0.00  0.00    +0.067 C 
ATOM     15  C   LIG    1       -2.606   2.493  -0.518  0.00  0.00    +0.028 C 
BRANCH  14  16
ATOM     16  C   LIG    1       -0.402   1.349   0.033  0.00  0.00    +0.023 C 
BRANCH  16  17
ATOM     17  C   LIG    1        0.361   0.029   0.261  0.00  0.00    +0.017 C 
BRANCH  17  18
ATOM     18  C   LIG    1        1.889   0.226   0.353  0.00  0.00    +0.084 C 
BRANCH  18  19
ATOM     19  N   LIG    1        2.690  -1.002   0.299  0.00  0.00    -0.303 NA
BRANCH  19  20
ATOM     20  C   LIG    1        2.463  -2.016   1.335  0.00  0.00    +0.081 C 
ATOM     21  C   LIG    1        1.432  -3.104   0.986  0.00  0.00    +0.020 C 
ENDBRANCH  19  20
BRANCH  19  22
ATOM     22  C   LIG    1        3.168  -1.451  -1.013  0.00  0.00    +0.081 C 
ATOM     23  C   LIG    1        2.073  -1.705  -2.065  0.00  0.00    +0.020 C 
ENDBRANCH  19  22
ENDBRANCH  18  19
ENDBRANCH  17  18
ENDBRANCH  16  17
ENDBRANCH  14  16
ENDBRANCH   1  14
TORSDOF 8
