REMARK  Name = DB00814
REMARK                            x       y       z     vdW  Elec       q    Type
REMARK                         _______ _______ _______ _____ _____    ______ ____
ROOT
ATOM      1  C   LIG    1       -2.267  -1.266  -0.143  0.00  0.00    +0.045 A 
ATOM      2  C   LIG    1       -2.957  -2.479   0.058  0.00  0.00    +0.013 A 
ATOM      3  C   LIG    1       -4.273  -2.498   0.518  0.00  0.00    +0.001 A 
ATOM      4  C   LIG    1       -4.930  -1.305   0.796  0.00  0.00    +0.002 A 
ATOM      5  C   LIG    1       -4.273  -0.094   0.602  0.00  0.00    +0.029 A 
ATOM      6  C   LIG    1       -0.825  -1.252  -0.539  0.00  0.00    +0.153 C 
ATOM      7  C   LIG    1       -0.005  -0.163  -0.463  0.00  0.00    +0.155 C 
ATOM      8  N   LIG    1       -0.496   1.126  -0.077  0.00  0.00    -0.197 N 
ATOM      9  C   LIG    1        0.366   2.330   0.112  0.00  0.00    +0.158 C 
ATOM     10  S   LIG    1       -2.219   1.521  -0.191  0.00  0.00    +0.075 S 
ATOM     11  O   LIG    1       -2.604   2.444   0.883  0.00  0.00    -0.150 OA
ATOM     12  O   LIG    1       -2.524   1.893  -1.577  0.00  0.00    -0.150 OA
ATOM     13  C   LIG    1       -2.957  -0.073   0.132  0.00  0.00    +0.119 A 
ENDROOT
BRANCH   7  14
ATOM     14  C   LIG    1        1.428  -0.259  -0.734  0.00  0.00    +0.269 C 
ATOM     15  O   LIG    1        1.979   0.464  -1.568  0.00  0.00    -0.268 OA
ATOM     16  N   LIG    1        2.070  -1.171   0.033  0.00  0.00    -0.259 N 
ATOM     17  H   LIG    1        1.512  -1.708   0.680  0.00  0.00    +0.157 HD
BRANCH  16  18
ATOM     18  C   LIG    1        3.426  -1.463   0.015  0.00  0.00    +0.165 A 
ATOM     19  S   LIG    1        3.985  -2.710   1.075  0.00  0.00    -0.057 S 
ATOM     20  C   LIG    1        5.611  -2.454   0.491  0.00  0.00    +0.008 A 
ATOM     21  C   LIG    1        6.789  -3.250   0.997  0.00  0.00    +0.053 C 
ATOM     22  C   LIG    1        5.544  -1.433  -0.460  0.00  0.00    +0.124 A 
ATOM     23  N   LIG    1        4.364  -0.903  -0.711  0.00  0.00    -0.233 NA
ENDBRANCH  16  18
ENDBRANCH   7  14
BRANCH   6  24
ATOM     24  O   LIG    1       -0.380  -2.474  -0.963  0.00  0.00    -0.504 OA
ATOM     25  H   LIG    1       -1.118  -3.087  -1.007  0.00  0.00    +0.292 HD
ENDBRANCH   6  24
TORSDOF 3
