REMARK  Name = DB00202
REMARK                            x       y       z     vdW  Elec       q    Type
REMARK                         _______ _______ _______ _____ _____    ______ ____
ROOT
ATOM      1  C   LIG    1       -0.640  -0.095  -0.517  0.00  0.00    +0.132 C 
ENDROOT
BRANCH   1   2
ATOM      2  C   LIG    1       -1.254   1.268  -0.174  0.00  0.00    +0.308 C 
ATOM      3  O   LIG    1       -1.312   1.696   0.981  0.00  0.00    -0.251 OA
BRANCH   2   4
ATOM      4  O   LIG    1       -1.705   1.903  -1.275  0.00  0.00    -0.466 OA
BRANCH   4   5
ATOM      5  C   LIG    1       -2.335   3.175  -1.174  0.00  0.00    +0.214 C 
BRANCH   5   6
ATOM      6  C   LIG    1       -2.669   3.715  -2.583  0.00  0.00    -0.035 C 
BRANCH   6   7
ATOM      7  N   LIG    1       -1.579   4.659  -3.171  0.00  0.00    +0.377 N 
ATOM      8  C   LIG    1       -0.190   3.978  -3.198  0.00  0.00    -0.093 C 
ATOM      9  C   LIG    1       -1.492   5.980  -2.367  0.00  0.00    -0.093 C 
ATOM     10  C   LIG    1       -1.976   5.010  -4.627  0.00  0.00    -0.093 C 
ENDBRANCH   6   7
ENDBRANCH   5   6
ENDBRANCH   4   5
ENDBRANCH   2   4
ENDBRANCH   1   2
BRANCH   1  11
ATOM     11  C   LIG    1       -0.122  -0.884   0.708  0.00  0.00    +0.132 C 
BRANCH  11  12
ATOM     12  C   LIG    1        0.450  -2.265   0.369  0.00  0.00    +0.308 C 
ATOM     13  O   LIG    1        0.525  -2.685  -0.789  0.00  0.00    -0.251 OA
BRANCH  12  14
ATOM     14  O   LIG    1        0.843  -2.930   1.475  0.00  0.00    -0.466 OA
BRANCH  14  15
ATOM     15  C   LIG    1        1.382  -4.243   1.380  0.00  0.00    +0.214 C 
BRANCH  15  16
ATOM     16  C   LIG    1        1.834  -4.736   2.774  0.00  0.00    -0.035 C 
BRANCH  16  17
ATOM     17  N   LIG    1        3.339  -4.478   3.077  0.00  0.00    +0.377 N 
ATOM     18  C   LIG    1        3.700  -2.981   2.930  0.00  0.00    -0.093 C 
ATOM     19  C   LIG    1        4.249  -5.323   2.151  0.00  0.00    -0.093 C 
ATOM     20  C   LIG    1        3.619  -4.904   4.540  0.00  0.00    -0.093 C 
ENDBRANCH  16  17
ENDBRANCH  15  16
ENDBRANCH  14  15
ENDBRANCH  12  14
ENDBRANCH  11  12
ENDBRANCH   1  11
TORSDOF 11
