REMARK  Name = DB00271
REMARK                            x       y       z     vdW  Elec       q    Type
REMARK                         _______ _______ _______ _____ _____    ______ ____
ROOT
ATOM      1  C   LIG    1       -0.001  -0.006  -0.051  0.00  0.00    +0.063 A 
ATOM      2  C   LIG    1       -0.696   1.212  -0.087  0.00  0.00    +0.058 A 
ATOM      3  I   LIG    1        0.358   3.037  -0.205  0.00  0.00    -0.040 I 
ATOM      4  C   LIG    1       -2.099   1.205  -0.051  0.00  0.00    +0.063 A 
ATOM      5  C   LIG    1       -2.809  -0.007  -0.016  0.00  0.00    +0.051 A 
ATOM      6  I   LIG    1       -4.923   0.026  -0.009  0.00  0.00    -0.041 I 
ATOM      7  C   LIG    1       -2.104  -1.226   0.006  0.00  0.00    +0.089 A 
ATOM      8  C   LIG    1       -0.696  -1.227  -0.016  0.00  0.00    +0.051 A 
ATOM      9  I   LIG    1        0.391  -3.042  -0.008  0.00  0.00    -0.041 I 
ENDROOT
BRANCH   1  10
ATOM     10  N   LIG    1        1.400  -0.003  -0.079  0.00  0.00    -0.284 N 
ATOM     11  H   LIG    1        1.842  -0.026  -0.987  0.00  0.00    +0.155 HD
ATOM     12  C   LIG    1        2.172   0.030   1.026  0.00  0.00    +0.214 C 
ATOM     13  O   LIG    1        1.734   0.060   2.177  0.00  0.00    -0.276 OA
ATOM     14  C   LIG    1        3.679   0.025   0.796  0.00  0.00    +0.109 C 
ENDBRANCH   1  10
BRANCH   4  15
ATOM     15  N   LIG    1       -2.796   2.420  -0.079  0.00  0.00    -0.284 N 
ATOM     16  H   LIG    1       -3.038   2.791  -0.987  0.00  0.00    +0.155 HD
ATOM     17  C   LIG    1       -3.154   3.104   1.026  0.00  0.00    +0.214 C 
ATOM     18  O   LIG    1       -2.909   2.741   2.177  0.00  0.00    -0.276 OA
ATOM     19  C   LIG    1       -3.911   4.408   0.796  0.00  0.00    +0.109 C 
ENDBRANCH   4  15
BRANCH   7  20
ATOM     20  C   LIG    1       -2.855  -2.527   0.052  0.00  0.00    +0.339 C 
ATOM     21  O   LIG    1       -3.198  -3.121  -0.968  0.00  0.00    -0.245 OA
BRANCH  20  22
ATOM     22  O   LIG    1       -3.108  -2.965   1.318  0.00  0.00    -0.477 OA
ATOM     23  H   LIG    1       -3.588  -3.796   1.327  0.00  0.00    +0.295 HD
ENDBRANCH  20  22
ENDBRANCH   7  20
TORSDOF 4
