REMARK  Name = DB00145
REMARK                            x       y       z     vdW  Elec       q    Type
REMARK                         _______ _______ _______ _____ _____    ______ ____
ROOT
ATOM      1  C   GLY A  1       -0.062  -0.064  -0.031  0.00  0.00    +0.319 C 
ATOM      2  O   GLY A  1       -0.825   0.879  -0.228  0.00  0.00    -0.250 OA
ENDROOT
BRANCH   1   3
ATOM      3  OXT GLY A  1       -0.453  -1.337   0.270  0.00  0.00    -0.480 OA
ATOM      4  HXT GLY A  1       -1.408  -1.425   0.307  0.00  0.00    +0.295 HD
ENDBRANCH   1   3
BRANCH   1   5
ATOM      5  CA  GLY A  1        1.461   0.067  -0.089  0.00  0.00    +0.199 C 
BRANCH   5   6
ATOM      6  N   GLY A  1        1.916  -0.449  -1.369  0.00  0.00    -0.321 NA
ATOM      7  H1  GLY A  1        2.555  -1.219  -1.230  0.00  0.00    +0.119 HD
ATOM      8  H2  GLY A  1        2.414   0.267  -1.879  0.00  0.00    +0.119 HD
ENDBRANCH   5   6
ENDBRANCH   1   5
TORSDOF 3
