REMARK  Name = DB00849
REMARK                            x       y       z     vdW  Elec       q    Type
REMARK                         _______ _______ _______ _____ _____    ______ ____
ROOT
ATOM      1  O   LIG    1        0.295  -0.621   2.407  0.00  0.00    -0.274 OA
ATOM      2  C   LIG    1       -0.309  -0.816   1.346  0.00  0.00    +0.242 C 
ATOM      3  C   LIG    1        0.083  -0.061   0.016  0.00  0.00    +0.148 C 
ATOM      4  C   LIG    1       -0.486  -0.709  -1.292  0.00  0.00    +0.240 C 
ATOM      5  N   LIG    1       -1.561  -1.492  -1.076  0.00  0.00    -0.239 N 
ATOM      6  H   LIG    1       -2.012  -1.831  -1.913  0.00  0.00    +0.159 HD
ATOM      7  C   LIG    1       -2.090  -1.963   0.079  0.00  0.00    +0.315 C 
ATOM      8  O   LIG    1       -3.123  -2.632   0.027  0.00  0.00    -0.252 OA
ATOM      9  O   LIG    1       -0.051  -0.504  -2.426  0.00  0.00    -0.274 OA
ATOM     10  N   LIG    1       -1.405  -1.632   1.223  0.00  0.00    -0.228 N 
ATOM     11  C   LIG    1       -1.856  -2.305   2.461  0.00  0.00    +0.143 C 
ENDROOT
BRANCH   3  12
ATOM     12  C   LIG    1       -0.461   1.411   0.038  0.00  0.00    -0.024 A 
ATOM     13  C   LIG    1        0.013   2.339  -0.909  0.00  0.00    +0.005 A 
ATOM     14  C   LIG    1       -0.464   3.646  -0.947  0.00  0.00    +0.000 A 
ATOM     15  C   LIG    1       -1.439   4.051  -0.043  0.00  0.00    +0.000 A 
ATOM     16  C   LIG    1       -1.945   3.155   0.890  0.00  0.00    +0.000 A 
ATOM     17  C   LIG    1       -1.468   1.847   0.925  0.00  0.00    +0.005 A 
ENDBRANCH   3  12
BRANCH   3  18
ATOM     18  C   LIG    1        1.659  -0.083  -0.072  0.00  0.00    +0.027 C 
ATOM     19  C   LIG    1        2.354  -1.465  -0.086  0.00  0.00    +0.006 C 
ENDBRANCH   3  18
TORSDOF 2
