REMARK  Name = DB00622
REMARK                            x       y       z     vdW  Elec       q    Type
REMARK                         _______ _______ _______ _____ _____    ______ ____
ROOT
ATOM      1  C   LIG    1        0.035   0.017   0.374  0.00  0.00    +0.065 C 
ATOM      2  C   LIG    1       -0.548   1.215   0.082  0.00  0.00    +0.016 C 
ATOM      3  C   LIG    1        0.106   2.595   0.020  0.00  0.00    +0.061 C 
ATOM      4  N   LIG    1       -1.865   1.260  -0.312  0.00  0.00    -0.321 N 
ATOM      5  H   LIG    1       -2.283   2.172  -0.422  0.00  0.00    +0.152 HD
ATOM      6  C   LIG    1       -2.688   0.169  -0.471  0.00  0.00    +0.016 C 
ATOM      7  C   LIG    1       -4.043   0.568  -1.057  0.00  0.00    +0.061 C 
ATOM      8  C   LIG    1       -2.218  -1.085  -0.208  0.00  0.00    +0.065 C 
ATOM      9  C   LIG    1       -0.792  -1.309   0.387  0.00  0.00    +0.096 C 
ENDROOT
BRANCH   9  10
ATOM     10  C   LIG    1       -0.829  -1.967   1.782  0.00  0.00    -0.033 A 
ATOM     11  C   LIG    1       -0.302  -3.247   1.992  0.00  0.00    +0.005 A 
ATOM     12  C   LIG    1       -0.334  -3.822   3.260  0.00  0.00    +0.003 A 
ATOM     13  C   LIG    1       -0.893  -3.125   4.329  0.00  0.00    +0.032 A 
ATOM     14  C   LIG    1       -1.428  -1.841   4.148  0.00  0.00    +0.122 A 
ATOM     15  C   LIG    1       -1.387  -1.276   2.864  0.00  0.00    +0.037 A 
BRANCH  14  16
ATOM     16  N   LIG    1       -2.022  -1.097   5.285  0.00  0.00    +0.006 N 
ATOM     17  O   LIG    1       -2.053  -1.635   6.388  0.00  0.00    -0.130 OA
BRANCH  16  18
ATOM     18  O   LIG    1       -2.462   0.032   5.083  0.00  0.00    -0.396 OA
ATOM     19  H   LIG    1       -2.841   0.520   5.788  0.00  0.00    +0.329 HD
ENDBRANCH  16  18
ENDBRANCH  14  16
ENDBRANCH   9  10
BRANCH   1  20
ATOM     20  C   LIG    1        1.455  -0.078   0.824  0.00  0.00    +0.338 C 
ATOM     21  O   LIG    1        2.111   0.879   1.243  0.00  0.00    -0.245 OA
BRANCH  20  22
ATOM     22  O   LIG    1        1.956  -1.336   0.752  0.00  0.00    -0.460 OA
BRANCH  22  23
ATOM     23  C   LIG    1        3.273  -1.638   1.196  0.00  0.00    +0.248 C 
BRANCH  23  24
ATOM     24  C   LIG    1        3.538  -3.138   0.970  0.00  0.00    +0.125 C 
BRANCH  24  25
ATOM     25  N   LIG    1        4.789  -3.597   1.584  0.00  0.00    -0.298 NA
ATOM     26  C   LIG    1        4.827  -5.059   1.522  0.00  0.00    +0.105 C 
BRANCH  25  27
ATOM     27  C   LIG    1        5.972  -3.010   0.937  0.00  0.00    +0.119 C 
BRANCH  27  28
ATOM     28  C   LIG    1        7.267  -3.300   1.688  0.00  0.00    -0.033 A 
ATOM     29  C   LIG    1        7.524  -2.660   2.904  0.00  0.00    +0.005 A 
ATOM     30  C   LIG    1        8.687  -2.951   3.611  0.00  0.00    +0.000 A 
ATOM     31  C   LIG    1        9.586  -3.888   3.105  0.00  0.00    +0.000 A 
ATOM     32  C   LIG    1        9.329  -4.540   1.901  0.00  0.00    +0.000 A 
ATOM     33  C   LIG    1        8.165  -4.250   1.193  0.00  0.00    +0.005 A 
ENDBRANCH  27  28
ENDBRANCH  25  27
ENDBRANCH  24  25
ENDBRANCH  23  24
ENDBRANCH  22  23
ENDBRANCH  20  22
ENDBRANCH   1  20
BRANCH   8  34
ATOM     34  C   LIG    1       -3.079  -2.293  -0.353  0.00  0.00    +0.337 C 
ATOM     35  O   LIG    1       -4.311  -2.258  -0.405  0.00  0.00    -0.245 OA
BRANCH  34  36
ATOM     36  O   LIG    1       -2.376  -3.453  -0.403  0.00  0.00    -0.465 OA
ATOM     37  C   LIG    1       -3.033  -4.708  -0.517  0.00  0.00    +0.280 C 
ENDBRANCH  34  36
ENDBRANCH   8  34
TORSDOF 12
