REMARK  Name = DB00754
REMARK                            x       y       z     vdW  Elec       q    Type
REMARK                         _______ _______ _______ _____ _____    ______ ____
ROOT
ATOM      1  O   LIG    1       -0.697  -2.156   0.380  0.00  0.00    -0.273 OA
ATOM      2  C   LIG    1       -0.907  -0.958   0.185  0.00  0.00    +0.248 C 
ATOM      3  C   LIG    1       -2.251  -0.330  -0.135  0.00  0.00    +0.191 C 
ATOM      4  N   LIG    1       -1.846   1.039  -0.323  0.00  0.00    -0.284 N 
ATOM      5  H   LIG    1       -2.455   1.694  -0.792  0.00  0.00    +0.151 HD
ATOM      6  C   LIG    1       -0.545   1.271  -0.118  0.00  0.00    +0.309 C 
ATOM      7  O   LIG    1       -0.035   2.373   0.081  0.00  0.00    -0.252 OA
ATOM      8  N   LIG    1       -0.010   0.048   0.118  0.00  0.00    -0.224 N 
ENDROOT
BRANCH   3   9
ATOM      9  C   LIG    1       -2.949  -0.996  -1.333  0.00  0.00    -0.018 A 
ATOM     10  C   LIG    1       -3.024  -0.376  -2.589  0.00  0.00    +0.006 A 
ATOM     11  C   LIG    1       -3.663  -1.012  -3.650  0.00  0.00    +0.000 A 
ATOM     12  C   LIG    1       -4.229  -2.270  -3.462  0.00  0.00    +0.000 A 
ATOM     13  C   LIG    1       -4.163  -2.897  -2.221  0.00  0.00    +0.000 A 
ATOM     14  C   LIG    1       -3.524  -2.261  -1.160  0.00  0.00    +0.006 A 
ENDBRANCH   3   9
BRANCH   8  15
ATOM     15  C   LIG    1        1.441  -0.182   0.168  0.00  0.00    +0.114 C 
ATOM     16  C   LIG    1        2.081  -0.350  -1.220  0.00  0.00    +0.025 C 
ENDBRANCH   8  15
TORSDOF 2
