REMARK  Name = DB00746
REMARK                            x       y       z     vdW  Elec       q    Type
REMARK                         _______ _______ _______ _____ _____    ______ ____
ROOT
ATOM      1  C   LIG    1        1.495  -0.249   0.185  0.00  0.00    +0.021 C 
ENDROOT
BRANCH   1   2
ATOM      2  C   LIG    1        2.067  -1.675   0.076  0.00  0.00    +0.003 C 
BRANCH   2   3
ATOM      3  C   LIG    1        3.610  -1.745   0.087  0.00  0.00    +0.019 C 
BRANCH   3   4
ATOM      4  C   LIG    1        4.329  -1.095  -1.117  0.00  0.00    +0.104 C 
BRANCH   4   7
ATOM      5  C   LIG    1        3.067  -1.020  -3.280  0.00  0.00    +0.213 C 
ATOM      6  O   LIG    1        2.606   0.109  -3.102  0.00  0.00    -0.276 OA
ATOM      7  N   LIG    1        3.890  -1.631  -2.409  0.00  0.00    -0.315 N 
ATOM      8  H   LIG    1        4.265  -2.534  -2.661  0.00  0.00    +0.149 HD
BRANCH   5   9
ATOM      9  C   LIG    1        2.716  -1.809  -4.551  0.00  0.00    +0.105 C 
BRANCH   9  10
ATOM     10  C   LIG    1        1.271  -1.532  -5.043  0.00  0.00    +0.107 C 
BRANCH  10  11
ATOM     11  C   LIG    1        0.858  -2.363  -6.281  0.00  0.00    +0.238 C 
ATOM     12  O   LIG    1        1.625  -3.225  -6.713  0.00  0.00    -0.274 OA
ATOM     13  N   LIG    1       -0.338  -2.120  -6.875  0.00  0.00    -0.184 N 
BRANCH  13  14
ATOM     14  O   LIG    1       -1.226  -1.276  -6.193  0.00  0.00    -0.292 OA
ATOM     15  H   LIG    1       -1.057  -1.481  -5.270  0.00  0.00    +0.242 HD
ENDBRANCH  13  14
BRANCH  13  16
ATOM     16  C   LIG    1       -0.947  -2.898  -7.961  0.00  0.00    +0.139 C 
BRANCH  16  17
ATOM     17  C   LIG    1       -1.865  -4.048  -7.489  0.00  0.00    +0.021 C 
BRANCH  17  18
ATOM     18  C   LIG    1       -1.156  -5.153  -6.676  0.00  0.00    +0.003 C 
BRANCH  18  19
ATOM     19  C   LIG    1       -2.049  -6.365  -6.346  0.00  0.00    +0.015 C 
BRANCH  19  20
ATOM     20  C   LIG    1       -3.214  -6.037  -5.394  0.00  0.00    +0.077 C 
BRANCH  20  21
ATOM     21  N   LIG    1       -3.962  -7.239  -5.080  0.00  0.00    -0.330 NA
ATOM     22  H   LIG    1       -4.371  -7.615  -5.923  0.00  0.00    +0.118 HD
ATOM     23  H   LIG    1       -4.731  -7.010  -4.466  0.00  0.00    +0.118 HD
ENDBRANCH  20  21
ENDBRANCH  19  20
ENDBRANCH  18  19
ENDBRANCH  17  18
ENDBRANCH  16  17
ENDBRANCH  13  16
ENDBRANCH  10  11
ENDBRANCH   9  10
ENDBRANCH   5   9
ENDBRANCH   4   7
ENDBRANCH   3   4
ENDBRANCH   2   3
ENDBRANCH   1   2
BRANCH   1  24
ATOM     24  C   LIG    1       -0.037  -0.213   0.033  0.00  0.00    +0.139 C 
BRANCH  24  25
ATOM     25  N   LIG    1       -0.581   1.147   0.065  0.00  0.00    -0.184 N 
ATOM     26  C   LIG    1       -0.757   1.975  -0.996  0.00  0.00    +0.238 C 
ATOM     27  O   LIG    1       -0.522   1.606  -2.148  0.00  0.00    -0.274 OA
BRANCH  25  28
ATOM     28  O   LIG    1       -0.773   1.680   1.346  0.00  0.00    -0.292 OA
ATOM     29  H   LIG    1        0.099   1.612   1.743  0.00  0.00    +0.242 HD
ENDBRANCH  25  28
BRANCH  26  30
ATOM     30  C   LIG    1       -1.278   3.413  -0.785  0.00  0.00    +0.107 C 
BRANCH  30  31
ATOM     31  C   LIG    1       -2.811   3.434  -0.562  0.00  0.00    +0.105 C 
BRANCH  31  32
ATOM     32  C   LIG    1       -3.367   4.846  -0.313  0.00  0.00    +0.213 C 
ATOM     33  O   LIG    1       -2.657   5.726   0.178  0.00  0.00    -0.276 OA
ATOM     34  N   LIG    1       -4.658   5.039  -0.637  0.00  0.00    -0.315 N 
ATOM     35  H   LIG    1       -5.180   4.266  -1.025  0.00  0.00    +0.149 HD
BRANCH  34  36
ATOM     36  C   LIG    1       -5.391   6.292  -0.461  0.00  0.00    +0.104 C 
BRANCH  36  37
ATOM     37  C   LIG    1       -5.054   7.369  -1.511  0.00  0.00    +0.019 C 
BRANCH  37  38
ATOM     38  C   LIG    1       -5.871   8.661  -1.318  0.00  0.00    +0.003 C 
BRANCH  38  39
ATOM     39  C   LIG    1       -5.627   9.739  -2.392  0.00  0.00    +0.021 C 
BRANCH  39  40
ATOM     40  C   LIG    1       -4.198  10.324  -2.393  0.00  0.00    +0.139 C 
BRANCH  40  41
ATOM     41  N   LIG    1       -4.023  11.434  -3.334  0.00  0.00    -0.184 N 
ATOM     42  C   LIG    1       -3.825  11.311  -4.670  0.00  0.00    +0.235 C 
ATOM     43  C   LIG    1       -3.816  12.563  -5.557  0.00  0.00    +0.111 C 
ATOM     44  O   LIG    1       -3.631  10.220  -5.207  0.00  0.00    -0.274 OA
BRANCH  41  45
ATOM     45  O   LIG    1       -4.508  12.670  -2.883  0.00  0.00    -0.292 OA
ATOM     46  H   LIG    1       -3.787  13.002  -2.343  0.00  0.00    +0.242 HD
ENDBRANCH  41  45
ENDBRANCH  40  41
ENDBRANCH  39  40
ENDBRANCH  38  39
ENDBRANCH  37  38
ENDBRANCH  36  37
ENDBRANCH  34  36
ENDBRANCH  31  32
ENDBRANCH  30  31
ENDBRANCH  26  30
ENDBRANCH  24  25
ENDBRANCH   1  24
TORSDOF 27
