REMARK  Name = DB00949
REMARK                            x       y       z     vdW  Elec       q    Type
REMARK                         _______ _______ _______ _____ _____    ______ ____
ROOT
ATOM      1  C   LIG    1        0.056   0.079   0.052  0.00  0.00    +0.094 C 
ENDROOT
BRANCH   1   2
ATOM      2  C   LIG    1       -0.475  -0.672   1.279  0.00  0.00    -0.038 A 
ATOM      3  C   LIG    1       -0.161  -0.228   2.568  0.00  0.00    +0.004 A 
ATOM      4  C   LIG    1       -0.645  -0.913   3.679  0.00  0.00    +0.000 A 
ATOM      5  C   LIG    1       -1.443  -2.041   3.501  0.00  0.00    +0.000 A 
ATOM      6  C   LIG    1       -1.761  -2.490   2.221  0.00  0.00    +0.000 A 
ATOM      7  C   LIG    1       -1.277  -1.806   1.110  0.00  0.00    +0.004 A 
ENDBRANCH   1   2
BRANCH   1   8
ATOM      8  C   LIG    1        1.597   0.059  -0.024  0.00  0.00    +0.245 C 
BRANCH   8   9
ATOM      9  O   LIG    1        2.085  -1.279  -0.024  0.00  0.00    -0.450 OA
BRANCH   9  10
ATOM     10  C   LIG    1        3.408  -1.529  -0.027  0.00  0.00    +0.398 C 
ATOM     11  N   LIG    1        3.615  -2.890  -0.004  0.00  0.00    -0.295 N 
ATOM     12  H   LIG    1        2.820  -3.511   0.019  0.00  0.00    +0.148 HD
ATOM     13  H   LIG    1        4.559  -3.245  -0.003  0.00  0.00    +0.148 HD
ATOM     14  O   LIG    1        4.297  -0.678  -0.047  0.00  0.00    -0.227 OA
ENDBRANCH   9  10
ENDBRANCH   8   9
ENDBRANCH   1   8
BRANCH   1  15
ATOM     15  C   LIG    1       -0.477   1.525  -0.024  0.00  0.00    +0.245 C 
BRANCH  15  16
ATOM     16  O   LIG    1       -1.901   1.539  -0.024  0.00  0.00    -0.450 OA
BRANCH  16  17
ATOM     17  C   LIG    1       -2.577   2.703  -0.027  0.00  0.00    +0.398 C 
ATOM     18  N   LIG    1       -3.929   2.445  -0.004  0.00  0.00    -0.295 N 
ATOM     19  H   LIG    1       -4.251   1.488   0.019  0.00  0.00    +0.148 HD
ATOM     20  H   LIG    1       -4.579   3.217  -0.003  0.00  0.00    +0.148 HD
ATOM     21  O   LIG    1       -2.071   3.825  -0.047  0.00  0.00    -0.227 OA
ENDBRANCH  16  17
ENDBRANCH  15  16
ENDBRANCH   1  15
TORSDOF 7
