REMARK  Name = DB00907
REMARK                            x       y       z     vdW  Elec       q    Type
REMARK                         _______ _______ _______ _____ _____    ______ ____
ROOT
ATOM      1  C   LIG    1       -2.923   0.229   0.763  0.00  0.00    +0.021 C 
ATOM      2  C   LIG    1       -3.056   0.188  -0.768  0.00  0.00    +0.020 C 
ATOM      3  C   LIG    1       -2.285  -1.087  -1.175  0.00  0.00    +0.060 C 
ATOM      4  N   LIG    1       -2.353  -1.956   0.001  0.00  0.00    -0.298 NA
ATOM      5  C   LIG    1       -3.631  -2.656   0.137  0.00  0.00    +0.105 C 
ATOM      6  C   LIG    1       -0.777  -0.824  -1.456  0.00  0.00    +0.064 C 
ATOM      7  C   LIG    1       -0.085  -0.121  -0.251  0.00  0.00    +0.193 C 
ATOM      8  C   LIG    1       -0.540  -0.705   1.129  0.00  0.00    +0.155 C 
ATOM      9  C   LIG    1       -2.078  -1.020   1.101  0.00  0.00    +0.074 C 
ENDROOT
BRANCH   8  10
ATOM     10  C   LIG    1        0.234  -1.977   1.559  0.00  0.00    +0.315 C 
ATOM     11  O   LIG    1        0.810  -2.708   0.749  0.00  0.00    -0.250 OA
BRANCH  10  12
ATOM     12  O   LIG    1        0.264  -2.118   2.901  0.00  0.00    -0.468 OA
ATOM     13  C   LIG    1        0.953  -3.207   3.497  0.00  0.00    +0.280 C 
ENDBRANCH  10  12
ENDBRANCH   8  10
BRANCH   7  14
ATOM     14  O   LIG    1        1.337  -0.026  -0.381  0.00  0.00    -0.457 OA
BRANCH  14  15
ATOM     15  C   LIG    1        1.944   0.845  -1.234  0.00  0.00    +0.339 C 
ATOM     16  O   LIG    1        1.326   1.631  -1.957  0.00  0.00    -0.245 OA
BRANCH  15  17
ATOM     17  C   LIG    1        3.442   0.762  -1.193  0.00  0.00    +0.059 A 
ATOM     18  C   LIG    1        4.198   1.643  -1.981  0.00  0.00    +0.015 A 
ATOM     19  C   LIG    1        5.589   1.592  -1.962  0.00  0.00    +0.001 A 
ATOM     20  C   LIG    1        6.235   0.659  -1.157  0.00  0.00    +0.000 A 
ATOM     21  C   LIG    1        5.502  -0.225  -0.371  0.00  0.00    +0.001 A 
ATOM     22  C   LIG    1        4.111  -0.175  -0.387  0.00  0.00    +0.015 A 
ENDBRANCH  15  17
ENDBRANCH  14  15
ENDBRANCH   7  14
TORSDOF 5
