REMARK  Name = DB00403
REMARK                            x       y       z     vdW  Elec       q    Type
REMARK                         _______ _______ _______ _____ _____    ______ ____
ROOT
ATOM      1  C   LIG    1       -1.453   0.558  -0.080  0.00  0.00    +0.236 C 
ATOM      2  O   LIG    1       -2.116  -0.166   0.666  0.00  0.00    -0.274 OA
ATOM      3  N   LIG    1       -1.877   1.742  -0.556  0.00  0.00    -0.305 N 
ATOM      4  H   LIG    1       -1.276   2.272  -1.169  0.00  0.00    +0.149 HD
ENDROOT
BRANCH   3   5
ATOM      5  C   LIG    1       -3.115   2.392  -0.128  0.00  0.00    +0.200 C 
BRANCH   5   6
ATOM      6  C   LIG    1       -2.865   2.996   1.258  0.00  0.00    +0.231 C 
ATOM      7  O   LIG    1       -2.000   3.861   1.406  0.00  0.00    -0.274 OA
ATOM      8  N   LIG    1       -3.614   2.514   2.264  0.00  0.00    -0.302 N 
ATOM      9  H   LIG    1       -4.314   1.815   2.065  0.00  0.00    +0.150 HD
BRANCH   8  10
ATOM     10  C   LIG    1       -3.353   2.764   3.681  0.00  0.00    +0.163 C 
BRANCH  10  11
ATOM     11  C   LIG    1       -2.030   2.113   4.124  0.00  0.00    +0.234 C 
ATOM     12  O   LIG    1       -1.887   0.894   4.012  0.00  0.00    -0.274 OA
ATOM     13  N   LIG    1       -1.112   2.943   4.645  0.00  0.00    -0.302 N 
ATOM     14  H   LIG    1       -1.307   3.932   4.696  0.00  0.00    +0.150 HD
BRANCH  13  15
ATOM     15  C   LIG    1        0.122   2.496   5.286  0.00  0.00    +0.160 C 
BRANCH  15  16
ATOM     16  C   LIG    1       -0.173   2.003   6.711  0.00  0.00    +0.234 C 
ATOM     17  O   LIG    1       -0.982   2.618   7.406  0.00  0.00    -0.274 OA
ATOM     18  N   LIG    1        0.506   0.921   7.125  0.00  0.00    -0.302 N 
ATOM     19  H   LIG    1        1.158   0.469   6.501  0.00  0.00    +0.150 HD
BRANCH  18  20
ATOM     20  C   LIG    1        0.402   0.358   8.471  0.00  0.00    +0.169 C 
BRANCH  20  21
ATOM     21  C   LIG    1        1.133   1.254   9.490  0.00  0.00    +0.234 C 
ATOM     22  N   LIG    1        0.348   1.949  10.328  0.00  0.00    -0.302 N 
ATOM     23  H   LIG    1       -0.656   1.885  10.230  0.00  0.00    +0.150 HD
ATOM     24  O   LIG    1        2.364   1.283   9.497  0.00  0.00    -0.274 OA
BRANCH  22  25
ATOM     25  C   LIG    1        0.814   2.758  11.459  0.00  0.00    +0.163 C 
BRANCH  25  26
ATOM     26  C   LIG    1       -0.333   3.018  12.459  0.00  0.00    +0.231 C 
ATOM     27  N   LIG    1        0.028   3.377  13.695  0.00  0.00    -0.328 N 
ATOM     28  H   LIG    1        1.004   3.457  13.939  0.00  0.00    +0.145 HD
ATOM     29  H   LIG    1       -0.677   3.567  14.391  0.00  0.00    +0.145 HD
ATOM     30  O   LIG    1       -1.513   2.917  12.120  0.00  0.00    -0.274 OA
ENDBRANCH  25  26
BRANCH  25  31
ATOM     31  C   LIG    1        1.508   4.064  10.977  0.00  0.00    +0.067 C 
BRANCH  31  32
ATOM     32  C   LIG    1        0.636   5.106  10.291  0.00  0.00    -0.045 A 
ATOM     33  C   LIG    1       -0.085   6.056  11.047  0.00  0.00    +0.004 A 
ATOM     34  C   LIG    1       -0.934   6.951  10.411  0.00  0.00    +0.000 A 
ATOM     35  C   LIG    1       -1.099   6.902   9.033  0.00  0.00    +0.000 A 
ATOM     36  C   LIG    1       -0.426   5.949   8.280  0.00  0.00    +0.000 A 
ATOM     37  C   LIG    1        0.431   5.048   8.897  0.00  0.00    +0.004 A 
ENDBRANCH  31  32
ENDBRANCH  25  31
ENDBRANCH  22  25
ENDBRANCH  20  21
BRANCH  20  38
ATOM     38  C   LIG    1        0.916  -1.102   8.436  0.00  0.00    +0.152 C 
BRANCH  38  39
ATOM     39  C   LIG    1        0.861  -1.809   9.794  0.00  0.00    +0.307 C 
ATOM     40  O   LIG    1       -0.157  -2.318  10.255  0.00  0.00    -0.251 OA
BRANCH  39  41
ATOM     41  O   LIG    1        2.066  -1.804  10.434  0.00  0.00    -0.481 OA
ATOM     42  H   LIG    1        2.035  -2.247  11.284  0.00  0.00    +0.295 HD
ENDBRANCH  39  41
ENDBRANCH  38  39
ENDBRANCH  20  38
ENDBRANCH  18  20
ENDBRANCH  15  16
BRANCH  15  43
ATOM     43  C   LIG    1        1.155   3.643   5.258  0.00  0.00    +0.042 C 
BRANCH  43  44
ATOM     44  C   LIG    1        2.514   3.293   5.890  0.00  0.00    +0.071 C 
BRANCH  44  45
ATOM     45  S   LIG    1        3.733   4.628   5.807  0.00  0.00    -0.164 S 
ATOM     46  C   LIG    1        5.098   3.830   6.692  0.00  0.00    +0.084 C 
ENDBRANCH  44  45
ENDBRANCH  43  44
ENDBRANCH  15  43
ENDBRANCH  13  15
ENDBRANCH  10  11
BRANCH  10  47
ATOM     47  C   LIG    1       -4.551   2.262   4.518  0.00  0.00    +0.069 C 
BRANCH  47  48
ATOM     48  C   LIG    1       -4.376   2.246   6.012  0.00  0.00    -0.020 A 
ATOM     49  C   LIG    1       -4.298   3.372   6.940  0.00  0.00    +0.003 A 
ATOM     50  C   LIG    1       -4.387   4.778   6.808  0.00  0.00    +0.010 A 
ATOM     51  C   LIG    1       -4.262   5.627   7.927  0.00  0.00    +0.001 A 
ATOM     52  C   LIG    1       -4.040   5.089   9.210  0.00  0.00    +0.002 A 
ATOM     53  C   LIG    1       -3.940   3.696   9.377  0.00  0.00    +0.026 A 
ATOM     54  C   LIG    1       -4.069   2.860   8.255  0.00  0.00    +0.047 A 
ATOM     55  N   LIG    1       -4.011   1.493   8.085  0.00  0.00    -0.360 N 
ATOM     56  H   LIG    1       -3.848   0.815   8.815  0.00  0.00    +0.165 HD
ATOM     57  C   LIG    1       -4.179   1.137   6.763  0.00  0.00    +0.087 A 
ENDBRANCH  47  48
ENDBRANCH  10  47
ENDBRANCH   8  10
ENDBRANCH   5   6
ENDBRANCH   3   5
BRANCH   1  58
ATOM     58  C   LIG    1       -0.035   0.127  -0.512  0.00  0.00    +0.187 C 
BRANCH  58  61
ATOM     59  C   LIG    1        1.085  -0.184   1.697  0.00  0.00    +0.234 C 
ATOM     60  O   LIG    1        1.018   0.999   2.035  0.00  0.00    -0.274 OA
ATOM     61  N   LIG    1        0.633  -0.663   0.525  0.00  0.00    -0.300 N 
ATOM     62  H   LIG    1        0.735  -1.648   0.324  0.00  0.00    +0.150 HD
BRANCH  59  63
ATOM     63  C   LIG    1        1.747  -1.217   2.627  0.00  0.00    +0.163 C 
BRANCH  63  66
ATOM     64  C   LIG    1        3.466  -2.433   1.292  0.00  0.00    +0.234 C 
ATOM     65  O   LIG    1        2.672  -3.184   0.725  0.00  0.00    -0.274 OA
ATOM     66  N   LIG    1        3.115  -1.482   2.174  0.00  0.00    -0.302 N 
ATOM     67  H   LIG    1        3.835  -0.916   2.600  0.00  0.00    +0.150 HD
BRANCH  64  68
ATOM     68  C   LIG    1        4.973  -2.584   1.028  0.00  0.00    +0.169 C 
BRANCH  68  71
ATOM     69  C   LIG    1        5.794  -3.983   2.906  0.00  0.00    +0.234 C 
ATOM     70  O   LIG    1        5.870  -3.055   3.712  0.00  0.00    -0.274 OA
ATOM     71  N   LIG    1        5.425  -3.844   1.624  0.00  0.00    -0.302 N 
ATOM     72  H   LIG    1        5.386  -4.656   1.025  0.00  0.00    +0.150 HD
BRANCH  69  73
ATOM     73  C   LIG    1        6.084  -5.421   3.371  0.00  0.00    +0.159 C 
BRANCH  73  76
ATOM     74  C   LIG    1        8.480  -5.241   4.049  0.00  0.00    +0.234 C 
ATOM     75  O   LIG    1        8.882  -5.031   2.902  0.00  0.00    -0.274 OA
ATOM     76  N   LIG    1        7.186  -5.470   4.334  0.00  0.00    -0.302 N 
ATOM     77  H   LIG    1        6.919  -5.646   5.292  0.00  0.00    +0.150 HD
BRANCH  74  78
ATOM     78  C   LIG    1        9.449  -5.273   5.251  0.00  0.00    +0.159 C 
ATOM     79  C   LIG    1        9.186  -4.122   6.223  0.00  0.00    +0.041 C 
ATOM     80  C   LIG    1       10.566  -3.758   6.744  0.00  0.00    +0.098 C 
ATOM     81  C   LIG    1       11.564  -4.316   5.728  0.00  0.00    +0.214 C 
ATOM     82  O   LIG    1       12.774  -4.104   5.709  0.00  0.00    -0.276 OA
ATOM     83  N   LIG    1       10.849  -5.076   4.880  0.00  0.00    -0.304 N 
ATOM     84  H   LIG    1       11.285  -5.637   4.162  0.00  0.00    +0.149 HD
ENDBRANCH  74  78
ENDBRANCH  73  76
BRANCH  73  85
ATOM     85  C   LIG    1        4.822  -6.023   4.021  0.00  0.00    +0.041 C 
BRANCH  85  86
ATOM     86  C   LIG    1        4.940  -7.524   4.354  0.00  0.00    +0.098 C 
BRANCH  86  87
ATOM     87  C   LIG    1        3.691  -8.082   5.046  0.00  0.00    +0.211 C 
ATOM     88  O   LIG    1        2.974  -7.364   5.741  0.00  0.00    -0.276 OA
ATOM     89  N   LIG    1        3.443  -9.383   4.883  0.00  0.00    -0.329 N 
ATOM     90  H   LIG    1        4.054  -9.954   4.317  0.00  0.00    +0.145 HD
ATOM     91  H   LIG    1        2.639  -9.805   5.325  0.00  0.00    +0.145 HD
ENDBRANCH  86  87
ENDBRANCH  85  86
ENDBRANCH  73  85
ENDBRANCH  69  73
ENDBRANCH  68  71
BRANCH  68  92
ATOM     92  C   LIG    1        5.288  -2.522  -0.489  0.00  0.00    +0.152 C 
BRANCH  92  93
ATOM     93  C   LIG    1        6.726  -2.922  -0.835  0.00  0.00    +0.307 C 
ATOM     94  O   LIG    1        7.689  -2.169  -0.711  0.00  0.00    -0.251 OA
BRANCH  93  95
ATOM     95  O   LIG    1        6.819  -4.207  -1.283  0.00  0.00    -0.481 OA
ATOM     96  H   LIG    1        7.721  -4.458  -1.496  0.00  0.00    +0.295 HD
ENDBRANCH  93  95
ENDBRANCH  92  93
ENDBRANCH  68  92
ENDBRANCH  64  68
ENDBRANCH  63  66
BRANCH  63  97
ATOM     97  C   LIG    1        1.703  -0.782   4.116  0.00  0.00    +0.067 C 
BRANCH  97  98
ATOM     98  C   LIG    1        2.330  -1.814   5.046  0.00  0.00    -0.045 A 
ATOM     99  C   LIG    1        3.581  -1.572   5.620  0.00  0.00    +0.007 A 
ATOM    100  C   LIG    1        4.164  -2.529   6.446  0.00  0.00    +0.049 A 
ATOM    101  C   LIG    1        3.494  -3.725   6.701  0.00  0.00    +0.159 A 
ATOM    102  C   LIG    1        2.238  -3.963   6.143  0.00  0.00    +0.049 A 
ATOM    103  C   LIG    1        1.655  -3.007   5.317  0.00  0.00    +0.007 A 
BRANCH 101 104
ATOM    104  O   LIG    1        4.090  -4.692   7.463  0.00  0.00    -0.325 OA
BRANCH 104 105
ATOM    105  S   LIG    1        3.842  -4.631   9.110  0.00  0.00    +0.251 S 
ATOM    106  O   LIG    1        2.416  -4.852   9.375  0.00  0.00    -0.108 OA
ATOM    107  O   LIG    1        4.553  -3.464   9.644  0.00  0.00    -0.108 OA
BRANCH 105 108
ATOM    108  O   LIG    1        4.669  -5.997   9.561  0.00  0.00    -0.222 OA
ATOM    109  H   LIG    1        4.138  -6.797   9.385  0.00  0.00    +0.248 HD
ENDBRANCH 105 108
ENDBRANCH 104 105
ENDBRANCH 101 104
ENDBRANCH  97  98
ENDBRANCH  63  97
ENDBRANCH  59  63
ENDBRANCH  58  61
BRANCH  58 110
ATOM    110  C   LIG    1       -0.138  -0.672  -1.841  0.00  0.00    +0.141 C 
ATOM    111  C   LIG    1        1.217  -1.195  -2.346  0.00  0.00    +0.040 C 
BRANCH 110 112
ATOM    112  O   LIG    1       -1.051  -1.754  -1.770  0.00  0.00    -0.390 OA
ATOM    113  H   LIG    1       -1.923  -1.408  -1.562  0.00  0.00    +0.210 HD
ENDBRANCH 110 112
ENDBRANCH  58 110
ENDBRANCH   1  58
TORSDOF 42
