REMARK  Name = DB00346
REMARK                            x       y       z     vdW  Elec       q    Type
REMARK                         _______ _______ _______ _____ _____    ______ ____
ROOT
ATOM      1  C   LIG    1        1.449  -0.325   0.054  0.00  0.00    +0.220 A 
ATOM      2  N   LIG    1        1.878   0.958   0.218  0.00  0.00    -0.199 NA
ATOM      3  C   LIG    1        3.194   1.212   0.040  0.00  0.00    +0.129 A 
ATOM      4  C   LIG    1        4.131   0.201  -0.310  0.00  0.00    +0.044 A 
ATOM      5  C   LIG    1        5.519   0.404  -0.514  0.00  0.00    +0.062 A 
ATOM      6  C   LIG    1        6.359  -0.666  -0.859  0.00  0.00    +0.162 A 
ATOM      7  C   LIG    1        5.828  -1.955  -1.002  0.00  0.00    +0.164 A 
ATOM      8  C   LIG    1        4.456  -2.174  -0.803  0.00  0.00    +0.078 A 
ATOM      9  C   LIG    1        3.595  -1.109  -0.458  0.00  0.00    +0.082 A 
ATOM     10  N   LIG    1        2.269  -1.364  -0.275  0.00  0.00    -0.214 NA
ENDROOT
BRANCH   3  11
ATOM     11  N   LIG    1        3.572   2.542   0.224  0.00  0.00    -0.343 N 
ATOM     12  H   LIG    1        2.870   3.223   0.475  0.00  0.00    +0.144 HD
ATOM     13  H   LIG    1        4.540   2.807   0.111  0.00  0.00    +0.144 HD
ENDBRANCH   3  11
BRANCH   1  14
ATOM     14  N   LIG    1        0.066  -0.598   0.244  0.00  0.00    -0.303 N 
ATOM     15  C   LIG    1       -0.884   0.505   0.406  0.00  0.00    +0.132 C 
BRANCH  14  16
ATOM     16  C   LIG    1       -0.493  -1.909  -0.101  0.00  0.00    +0.109 C 
BRANCH  16  17
ATOM     17  C   LIG    1       -0.820  -2.080  -1.596  0.00  0.00    +0.038 C 
BRANCH  17  18
ATOM     18  C   LIG    1       -1.441  -3.453  -1.919  0.00  0.00    +0.106 C 
BRANCH  18  21
ATOM     19  C   LIG    1       -2.732  -3.123  -4.024  0.00  0.00    +0.242 C 
ATOM     20  O   LIG    1       -3.572  -2.383  -3.507  0.00  0.00    -0.273 OA
ATOM     21  N   LIG    1       -1.704  -3.661  -3.341  0.00  0.00    -0.313 N 
ATOM     22  H   LIG    1       -1.058  -4.260  -3.833  0.00  0.00    +0.149 HD
BRANCH  19  24
ATOM     23  C   LIG    1       -2.186  -2.324  -6.367  0.00  0.00    +0.043 C 
ATOM     24  C   LIG    1       -2.804  -3.459  -5.529  0.00  0.00    +0.204 C 
ATOM     25  O   LIG    1       -4.173  -3.521  -5.953  0.00  0.00    -0.367 OA
ATOM     26  C   LIG    1       -4.453  -2.542  -6.955  0.00  0.00    +0.161 C 
ATOM     27  C   LIG    1       -3.379  -1.481  -6.755  0.00  0.00    +0.031 C 
ENDBRANCH  19  24
ENDBRANCH  18  21
ENDBRANCH  17  18
ENDBRANCH  16  17
ENDBRANCH  14  16
ENDBRANCH   1  14
BRANCH   6  28
ATOM     28  O   LIG    1        7.720  -0.525  -1.072  0.00  0.00    -0.491 OA
ATOM     29  C   LIG    1        8.324   0.758  -0.949  0.00  0.00    +0.277 C 
ENDBRANCH   6  28
BRANCH   7  30
ATOM     30  O   LIG    1        6.716  -2.962  -1.341  0.00  0.00    -0.491 OA
ATOM     31  C   LIG    1        6.242  -4.295  -1.501  0.00  0.00    +0.277 C 
ENDBRANCH   7  30
TORSDOF 9
