REMARK  Name = DB00968
REMARK                            x       y       z     vdW  Elec       q    Type
REMARK                         _______ _______ _______ _____ _____    ______ ____
ROOT
ATOM      1  C   LIG    1        2.939   0.699   3.531  0.00  0.00    +0.049 A 
ATOM      2  C   LIG    1        2.397   0.029   2.435  0.00  0.00    +0.007 A 
ATOM      3  C   LIG    1        2.003   0.740   1.297  0.00  0.00    -0.041 A 
ATOM      4  C   LIG    1        2.169   2.129   1.264  0.00  0.00    +0.053 A 
ATOM      5  C   LIG    1        2.712   2.804   2.360  0.00  0.00    +0.158 A 
ATOM      6  C   LIG    1        3.098   2.085   3.500  0.00  0.00    +0.158 A 
ENDROOT
BRANCH   5   7
ATOM      7  O   LIG    1        2.857   4.167   2.301  0.00  0.00    -0.503 OA
ATOM      8  H   LIG    1        2.549   4.543   1.473  0.00  0.00    +0.292 HD
ENDBRANCH   5   7
BRANCH   6   9
ATOM      9  O   LIG    1        3.634   2.721   4.591  0.00  0.00    -0.503 OA
ATOM     10  H   LIG    1        3.856   2.118   5.304  0.00  0.00    +0.292 HD
ENDBRANCH   6   9
BRANCH   3  11
ATOM     11  C   LIG    1        1.410   0.003   0.095  0.00  0.00    +0.068 C 
BRANCH  11  12
ATOM     12  C   LIG    1       -0.147  -0.057   0.002  0.00  0.00    +0.116 C 
ATOM     13  C   LIG    1       -0.560  -0.793  -1.298  0.00  0.00    +0.040 C 
BRANCH  12  14
ATOM     14  N   LIG    1       -0.690   1.292  -0.129  0.00  0.00    -0.316 NA
ATOM     15  H   LIG    1       -0.915   1.482  -1.094  0.00  0.00    +0.119 HD
ATOM     16  H   LIG    1        0.001   1.970   0.159  0.00  0.00    +0.119 HD
ENDBRANCH  12  14
BRANCH  12  17
ATOM     17  C   LIG    1       -0.799  -0.738   1.244  0.00  0.00    +0.325 C 
ATOM     18  O   LIG    1       -1.142  -1.920   1.258  0.00  0.00    -0.249 OA
BRANCH  17  19
ATOM     19  O   LIG    1       -0.906   0.087   2.332  0.00  0.00    -0.479 OA
ATOM     20  H   LIG    1       -1.296  -0.355   3.089  0.00  0.00    +0.295 HD
ENDBRANCH  17  19
ENDBRANCH  12  17
ENDBRANCH  11  12
ENDBRANCH   3  11
TORSDOF 7
