REMARK  Name = DB00936
REMARK                            x       y       z     vdW  Elec       q    Type
REMARK                         _______ _______ _______ _____ _____    ______ ____
ROOT
ATOM      1  C   LIG    1       -2.108   1.187   0.000  0.00  0.00    +0.001 A 
ATOM      2  C   LIG    1       -0.715   1.197   0.000  0.00  0.00    +0.018 A 
ATOM      3  C   LIG    1        0.026   0.001   0.000  0.00  0.00    +0.100 A 
ATOM      4  C   LIG    1       -0.689  -1.221   0.000  0.00  0.00    +0.131 A 
ATOM      5  C   LIG    1       -2.086  -1.220   0.000  0.00  0.00    +0.046 A 
ATOM      6  C   LIG    1       -2.795  -0.022   0.000  0.00  0.00    +0.004 A 
ENDROOT
BRANCH   3   7
ATOM      7  C   LIG    1        1.545   0.054   0.000  0.00  0.00    +0.340 C 
ATOM      8  O   LIG    1        2.254  -0.952   0.000  0.00  0.00    -0.245 OA
BRANCH   7   9
ATOM      9  O   LIG    1        2.079   1.312   0.000  0.00  0.00    -0.477 OA
ATOM     10  H   LIG    1        3.038   1.297   0.000  0.00  0.00    +0.295 HD
ENDBRANCH   7   9
ENDBRANCH   3   7
BRANCH   4  11
ATOM     11  O   LIG    1       -0.072  -2.448   0.000  0.00  0.00    -0.506 OA
ATOM     12  H   LIG    1       -0.694  -3.179   0.000  0.00  0.00    +0.292 HD
ENDBRANCH   4  11
TORSDOF 3
