REMARK  Name = DB00125
REMARK                            x       y       z     vdW  Elec       q    Type
REMARK                         _______ _______ _______ _____ _____    ______ ____
ROOT
ATOM      1  CG  ARG A  1        1.616   0.017  -0.068  0.00  0.00    +0.014 C 
ENDROOT
BRANCH   1   2
ATOM      2  CB  ARG A  1        0.077   0.080  -0.152  0.00  0.00    -0.004 C 
BRANCH   2   3
ATOM      3  CA  ARG A  1       -0.511   1.522  -0.195  0.00  0.00    +0.036 C 
BRANCH   3   4
ATOM      4  N   ARG A  1       -1.924   1.554   0.320  0.00  0.00    +0.387 N 
ATOM      5  H1  ARG A  1       -2.507   0.986  -0.278  0.00  0.00    -0.089 HD
ATOM      6  H2  ARG A  1       -1.937   1.186   1.260  0.00  0.00    -0.089 HD
ATOM      7  H3  ARG A  1       -2.249   2.510   0.324  0.00  0.00    -0.089 HD
ENDBRANCH   3   4
BRANCH   3   9
ATOM      8  O   ARG A  1       -1.274   3.198  -1.755  0.00  0.00    -0.253 OA
ATOM      9  C   ARG A  1       -0.521   2.204  -1.622  0.00  0.00    +0.290 C 
BRANCH   9  10
ATOM     10  OXT ARG A  1        0.306   1.755  -2.447  0.00  0.00    -0.482 OA
ATOM     11  HXT ARG A  1        0.817   0.999  -2.234  0.00  0.00    +0.295 HD
ENDBRANCH   9  10
ENDBRANCH   3   9
ENDBRANCH   2   3
ENDBRANCH   1   2
BRANCH   1  12
ATOM     12  CD  ARG A  1        2.146  -1.427  -0.051  0.00  0.00    +0.084 C 
BRANCH  12  13
ATOM     13  NE  ARG A  1        3.596  -1.484   0.209  0.00  0.00    -0.283 NA
ATOM     14  HE  ARG A  1        4.184  -1.422  -0.610  0.00  0.00    +0.125 HD
BRANCH  13  15
ATOM     15  CZ  ARG A  1        4.208  -1.558   1.409  0.00  0.00    +0.167 C 
BRANCH  15  16
ATOM     16  NH2 ARG A  1        3.526  -1.603   2.566  0.00  0.00    -0.297 NA
ATOM     17 HH21 ARG A  1        2.516  -1.585   2.558  0.00  0.00    +0.121 HD
ATOM     18 HH22 ARG A  1        4.018  -1.657   3.446  0.00  0.00    +0.121 HD
ENDBRANCH  15  16
BRANCH  15  19
ATOM     19  NH1 ARG A  1        5.547  -1.587   1.449  0.00  0.00    -0.297 NA
ATOM     20 HH11 ARG A  1        6.028  -1.643   2.336  0.00  0.00    +0.121 HD
ATOM     21 HH12 ARG A  1        6.082  -1.555   0.593  0.00  0.00    +0.121 HD
ENDBRANCH  15  19
ENDBRANCH  13  15
ENDBRANCH  12  13
ENDBRANCH   1  12
TORSDOF 10
