REMARK  Name = DB00630
REMARK                            x       y       z     vdW  Elec       q    Type
REMARK                         _______ _______ _______ _____ _____    ______ ____
ROOT
ATOM      1  C   LIG    1       -0.153  -0.177  -0.055  0.00  0.00    +0.267 C 
ENDROOT
BRANCH   1   2
ATOM      2  P   LIG    1       -0.723  -0.880   1.606  0.00  0.00    +0.371 P 
ATOM      3  O   LIG    1       -0.534  -2.369   1.786  0.00  0.00    -0.255 OA
BRANCH   2   4
ATOM      4  O   LIG    1        0.113   0.076   2.761  0.00  0.00    -0.322 OA
ATOM      5  H   LIG    1        0.647   0.862   2.534  0.00  0.00    +0.220 HD
ENDBRANCH   2   4
BRANCH   2   6
ATOM      6  O   LIG    1       -2.368  -0.391   1.661  0.00  0.00    -0.322 OA
ATOM      7  H   LIG    1       -3.029  -0.624   0.982  0.00  0.00    +0.220 HD
ENDBRANCH   2   6
ENDBRANCH   1   2
BRANCH   1   8
ATOM      8  O   LIG    1       -0.691   1.136  -0.071  0.00  0.00    -0.367 OA
ATOM      9  H   LIG    1       -1.479   1.138  -0.621  0.00  0.00    +0.212 HD
ENDBRANCH   1   8
BRANCH   1  10
ATOM     10  P   LIG    1       -0.760  -1.018  -1.648  0.00  0.00    +0.371 P 
ATOM     11  O   LIG    1        0.291  -1.426  -2.655  0.00  0.00    -0.255 OA
BRANCH  10  12
ATOM     12  O   LIG    1       -1.663  -2.341  -1.034  0.00  0.00    -0.322 OA
ATOM     13  H   LIG    1       -1.295  -3.019  -0.435  0.00  0.00    +0.220 HD
ENDBRANCH  10  12
BRANCH  10  14
ATOM     14  O   LIG    1       -1.917   0.086  -2.273  0.00  0.00    -0.322 OA
ATOM     15  H   LIG    1       -2.185   0.114  -3.212  0.00  0.00    +0.220 HD
ENDBRANCH  10  14
ENDBRANCH   1  10
BRANCH   1  16
ATOM     16  C   LIG    1        1.401  -0.059  -0.053  0.00  0.00    +0.061 C 
BRANCH  16  17
ATOM     17  C   LIG    1        2.034   0.886  -1.108  0.00  0.00    +0.019 C 
BRANCH  17  18
ATOM     18  C   LIG    1        3.574   0.872  -1.118  0.00  0.00    +0.078 C 
BRANCH  18  19
ATOM     19  N   LIG    1        4.120   1.406   0.117  0.00  0.00    -0.330 NA
ATOM     20  H   LIG    1        3.857   2.376   0.213  0.00  0.00    +0.118 HD
ATOM     21  H   LIG    1        5.130   1.387   0.078  0.00  0.00    +0.118 HD
ENDBRANCH  18  19
ENDBRANCH  17  18
ENDBRANCH  16  17
ENDBRANCH   1  16
TORSDOF 11
