REMARK  Name = DB00917
REMARK                            x       y       z     vdW  Elec       q    Type
REMARK                         _______ _______ _______ _____ _____    ______ ____
ROOT
ATOM      1  C   LIG    1       -0.874  -0.241  -0.744  0.00  0.00    +0.129 C 
ATOM      2  C   LIG    1       -2.346  -0.645  -0.702  0.00  0.00    +0.106 C 
ATOM      3  C   LIG    1       -2.513  -1.386   0.625  0.00  0.00    +0.140 C 
ATOM      4  C   LIG    1       -1.256  -1.142   1.485  0.00  0.00    +0.068 C 
ATOM      5  O   LIG    1       -3.508  -2.030   0.955  0.00  0.00    -0.297 OA
ATOM      6  C   LIG    1       -0.482  -0.042   0.726  0.00  0.00    +0.051 C 
ENDROOT
BRANCH   1   7
ATOM      7  O   LIG    1       -0.655   0.897  -1.552  0.00  0.00    -0.391 OA
ATOM      8  H   LIG    1        0.286   0.974  -1.723  0.00  0.00    +0.210 HD
ENDBRANCH   1   7
BRANCH   6   9
ATOM      9  C   LIG    1        1.018  -0.051   1.025  0.00  0.00    -0.022 C 
ATOM     10  C   LIG    1        2.031  -0.209   0.146  0.00  0.00    -0.000 C 
BRANCH  10  11
ATOM     11  C   LIG    1        3.529  -0.213   0.450  0.00  0.00    +0.137 C 
BRANCH  11  12
ATOM     12  O   LIG    1        3.775  -0.017   1.833  0.00  0.00    -0.388 OA
ATOM     13  H   LIG    1        3.392   0.824   2.093  0.00  0.00    +0.210 HD
ENDBRANCH  11  12
BRANCH  11  14
ATOM     14  C   LIG    1        4.255  -1.484  -0.044  0.00  0.00    +0.035 C 
BRANCH  14  15
ATOM     15  C   LIG    1        3.807  -2.797   0.635  0.00  0.00    +0.003 C 
BRANCH  15  16
ATOM     16  C   LIG    1        4.549  -4.033   0.097  0.00  0.00    -0.000 C 
BRANCH  16  17
ATOM     17  C   LIG    1        4.109  -5.340   0.779  0.00  0.00    -0.003 C 
ATOM     18  C   LIG    1        4.861  -6.571   0.254  0.00  0.00    +0.004 C 
ENDBRANCH  16  17
ENDBRANCH  15  16
ENDBRANCH  14  15
ENDBRANCH  11  14
ENDBRANCH  10  11
ENDBRANCH   6   9
BRANCH   4  19
ATOM     19  C   LIG    1       -1.673  -0.799   2.941  0.00  0.00    +0.038 C 
BRANCH  19  20
ATOM     20  C   LIG    1       -0.514  -0.729   3.923  0.00  0.00    -0.030 C 
ATOM     21  C   LIG    1       -0.038   0.358   4.562  0.00  0.00    -0.031 C 
BRANCH  21  22
ATOM     22  C   LIG    1       -0.539   1.791   4.463  0.00  0.00    +0.027 C 
BRANCH  22  23
ATOM     23  C   LIG    1        0.437   2.716   3.716  0.00  0.00    +0.015 C 
BRANCH  23  24
ATOM     24  C   LIG    1       -0.073   4.169   3.627  0.00  0.00    +0.121 C 
BRANCH  24  25
ATOM     25  C   LIG    1        0.896   5.084   2.874  0.00  0.00    +0.305 C 
ATOM     26  O   LIG    1        1.629   5.895   3.436  0.00  0.00    -0.251 OA
BRANCH  25  27
ATOM     27  O   LIG    1        0.841   4.883   1.526  0.00  0.00    -0.481 OA
ATOM     28  H   LIG    1        1.445   5.455   1.048  0.00  0.00    +0.295 HD
ENDBRANCH  25  27
ENDBRANCH  24  25
ENDBRANCH  23  24
ENDBRANCH  22  23
ENDBRANCH  21  22
ENDBRANCH  19  20
ENDBRANCH   4  19
TORSDOF 15
