REMARK  Name = DB00443
REMARK                            x       y       z     vdW  Elec       q    Type
REMARK                         _______ _______ _______ _____ _____    ______ ____
ROOT
ATOM      1  C   LIG    1       -3.644  -1.660   5.612  0.00  0.00    -0.009 C 
ATOM      2  C   LIG    1       -4.844  -1.366   6.151  0.00  0.00    +0.047 C 
ATOM      3  C   LIG    1       -6.121  -1.727   5.543  0.00  0.00    +0.179 C 
ATOM      4  O   LIG    1       -7.208  -1.458   6.050  0.00  0.00    -0.288 OA
ATOM      5  C   LIG    1       -5.984  -2.436   4.270  0.00  0.00    +0.051 C 
ATOM      6  C   LIG    1       -4.808  -2.760   3.680  0.00  0.00    -0.053 C 
ATOM      7  C   LIG    1       -4.751  -3.475   2.329  0.00  0.00    +0.032 C 
ATOM      8  C   LIG    1       -3.992  -2.593   1.324  0.00  0.00    +0.011 C 
ATOM      9  C   LIG    1       -2.575  -2.210   1.814  0.00  0.00    +0.034 C 
ATOM     10  C   LIG    1       -2.634  -1.528   3.233  0.00  0.00    +0.153 C 
ATOM     11  F   LIG    1       -3.380  -0.423   3.072  0.00  0.00    -0.238 F 
ATOM     12  C   LIG    1       -1.239  -0.952   3.697  0.00  0.00    +0.154 C 
ATOM     13  C   LIG    1       -0.522  -0.146   2.574  0.00  0.00    +0.044 C 
ATOM     14  C   LIG    1       -0.395  -0.917   1.220  0.00  0.00    +0.010 C 
ATOM     15  C   LIG    1        0.516  -2.181   1.396  0.00  0.00    +0.015 C 
ATOM     16  C   LIG    1        0.015  -0.037  -0.035  0.00  0.00    +0.134 C 
ATOM     17  C   LIG    1       -0.614  -0.804  -1.270  0.00  0.00    +0.026 C 
ATOM     18  C   LIG    1        0.309  -1.570  -2.248  0.00  0.00    +0.011 C 
ATOM     19  C   LIG    1       -1.712  -1.723  -0.673  0.00  0.00    +0.011 C 
ATOM     20  C   LIG    1       -1.836  -1.295   0.795  0.00  0.00    +0.005 C 
ATOM     21  C   LIG    1       -3.418  -2.414   4.290  0.00  0.00    +0.044 C 
ATOM     22  C   LIG    1       -2.721  -3.753   4.663  0.00  0.00    +0.023 C 
ENDROOT
BRANCH  12  23
ATOM     23  O   LIG    1       -0.364  -1.905   4.266  0.00  0.00    -0.389 OA
ATOM     24  H   LIG    1       -0.799  -2.307   5.021  0.00  0.00    +0.210 HD
ENDBRANCH  12  23
BRANCH  16  25
ATOM     25  O   LIG    1       -0.593   1.255   0.019  0.00  0.00    -0.380 OA
ATOM     26  H   LIG    1       -1.544   1.140   0.078  0.00  0.00    +0.211 HD
ENDBRANCH  16  25
BRANCH  16  27
ATOM     27  C   LIG    1        1.565   0.226  -0.135  0.00  0.00    +0.190 C 
ATOM     28  O   LIG    1        2.363  -0.696  -0.310  0.00  0.00    -0.292 OA
BRANCH  27  29
ATOM     29  C   LIG    1        2.132   1.652  -0.035  0.00  0.00    +0.233 C 
BRANCH  29  30
ATOM     30  O   LIG    1        1.897   2.319  -1.259  0.00  0.00    -0.387 OA
ATOM     31  H   LIG    1        0.950   2.438  -1.362  0.00  0.00    +0.210 HD
ENDBRANCH  29  30
ENDBRANCH  27  29
ENDBRANCH  16  27
TORSDOF 5
