REMARK  Name = DB00999
REMARK                            x       y       z     vdW  Elec       q    Type
REMARK                         _______ _______ _______ _____ _____    ______ ____
ROOT
ATOM      1 CL   LIG    1        0.946   1.812  -2.334  0.00  0.00    -0.081 Cl
ATOM      2  C   LIG    1       -0.020   2.454  -1.050  0.00  0.00    +0.069 A 
ATOM      3  C   LIG    1       -0.380   3.801  -1.112  0.00  0.00    +0.047 A 
ATOM      4  C   LIG    1       -1.167   4.381  -0.116  0.00  0.00    +0.056 A 
ATOM      5  C   LIG    1       -1.575   3.598   0.978  0.00  0.00    +0.128 A 
ATOM      6  C   LIG    1       -1.208   2.253   1.048  0.00  0.00    +0.060 A 
ATOM      7  S   LIG    1       -2.590   4.280   2.278  0.00  0.00    +0.062 S 
ATOM      8  N   LIG    1       -1.861   5.871   2.282  0.00  0.00    -0.173 NA
ATOM      9  H   LIG    1       -0.961   5.932   2.765  0.00  0.00    +0.150 HD
ATOM     10  C   LIG    1       -1.911   6.522   0.961  0.00  0.00    +0.209 C 
ATOM     11  O   LIG    1       -3.971   4.374   1.793  0.00  0.00    -0.153 OA
ATOM     12  O   LIG    1       -2.305   3.587   3.539  0.00  0.00    -0.153 OA
ATOM     13  N   LIG    1       -1.405   5.769  -0.188  0.00  0.00    -0.328 N 
ATOM     14  H   LIG    1       -1.146   6.315  -0.998  0.00  0.00    +0.147 HD
ATOM     15  C   LIG    1       -0.434   1.670   0.040  0.00  0.00    +0.125 A 
ENDROOT
BRANCH  15  16
ATOM     16  S   LIG    1        0.004  -0.070   0.176  0.00  0.00    +0.057 S 
ATOM     17  O   LIG    1       -0.476  -0.556   1.474  0.00  0.00    -0.153 OA
ATOM     18  O   LIG    1       -0.422  -0.718  -1.069  0.00  0.00    -0.153 OA
BRANCH  16  19
ATOM     19  N   LIG    1        1.757  -0.097   0.226  0.00  0.00    -0.203 NA
ATOM     20  H   LIG    1        2.212   0.208  -0.638  0.00  0.00    +0.144 HD
ATOM     21  H   LIG    1        2.165   0.319   1.068  0.00  0.00    +0.144 HD
ENDBRANCH  16  19
ENDBRANCH  15  16
TORSDOF 2
