REMARK  Name = DB00740
REMARK                            x       y       z     vdW  Elec       q    Type
REMARK                         _______ _______ _______ _____ _____    ______ ____
ROOT
ATOM      1  S   LIG    1        4.766   2.492   0.000  0.00  0.00    -0.053 S 
ATOM      2  C   LIG    1        5.999   1.255   0.000  0.00  0.00    +0.157 A 
ATOM      3  N   LIG    1        5.591   0.020   0.000  0.00  0.00    -0.225 NA
ATOM      4  C   LIG    1        4.233  -0.048   0.000  0.00  0.00    +0.080 A 
ATOM      5  C   LIG    1        3.488  -1.234   0.000  0.00  0.00    +0.032 A 
ATOM      6  C   LIG    1        2.096  -1.142   0.000  0.00  0.00    +0.048 A 
ATOM      7  C   LIG    1        1.429   0.086   0.000  0.00  0.00    +0.131 A 
ATOM      8  C   LIG    1        2.167   1.284   0.000  0.00  0.00    +0.063 A 
ATOM      9  C   LIG    1        3.566   1.205   0.000  0.00  0.00    +0.044 A 
ENDROOT
BRANCH   2  10
ATOM     10  N   LIG    1        7.312   1.621   0.000  0.00  0.00    -0.337 N 
ATOM     11  H   LIG    1        7.594   2.591   0.000  0.00  0.00    +0.144 HD
ATOM     12  H   LIG    1        8.049   0.931   0.000  0.00  0.00    +0.144 HD
ENDBRANCH   2  10
BRANCH   7  13
ATOM     13  O   LIG    1        0.047   0.023   0.000  0.00  0.00    -0.406 OA
BRANCH  13  14
ATOM     14  C   LIG    1       -0.739   1.214   0.000  0.00  0.00    +0.575 C 
ATOM     15  F   LIG    1       -0.531   1.943   1.098  0.00  0.00    -0.133 F 
ATOM     16  F   LIG    1       -0.531   1.943  -1.098  0.00  0.00    -0.133 F 
ATOM     17  F   LIG    1       -2.019   0.844   0.000  0.00  0.00    -0.133 F 
ENDBRANCH  13  14
ENDBRANCH   7  13
TORSDOF 3
