REMARK  Name = DB00128
REMARK                            x       y       z     vdW  Elec       q    Type
REMARK                         _______ _______ _______ _____ _____    ______ ____
ROOT
ATOM      1  CA  ASP A  1       -0.074   0.135   0.030  0.00  0.00    +0.171 C 
ENDROOT
BRANCH   1   2
ATOM      2  N   ASP A  1       -0.512   1.539   0.165  0.00  0.00    -0.318 NA
ATOM      3  H1  ASP A  1        0.008   2.024   0.882  0.00  0.00    +0.119 HD
ATOM      4  H2  ASP A  1       -1.493   1.601   0.401  0.00  0.00    +0.119 HD
ENDBRANCH   1   2
BRANCH   1   5
ATOM      5  C   ASP A  1       -0.696  -0.685   1.182  0.00  0.00    +0.322 C 
ATOM      6  OXT ASP A  1       -1.018  -0.208   2.272  0.00  0.00    -0.249 OA
BRANCH   5   7
ATOM      7  O   ASP A  1       -0.812  -2.000   0.835  0.00  0.00    -0.480 OA
ATOM      8  H   ASP A  1       -1.190  -2.531   1.540  0.00  0.00    +0.295 HD
ENDBRANCH   5   7
ENDBRANCH   1   5
BRANCH   1   9
ATOM      9  CB  ASP A  1        1.466  -0.035  -0.021  0.00  0.00    +0.150 C 
BRANCH   9  10
ATOM     10  CG  ASP A  1        2.107   0.597  -1.260  0.00  0.00    +0.307 C 
ATOM     11  OD2 ASP A  1        2.154   0.047  -2.358  0.00  0.00    -0.251 OA
BRANCH  10  12
ATOM     12  OD1 ASP A  1        2.616   1.837  -1.008  0.00  0.00    -0.481 OA
ATOM     13  HD1 ASP A  1        3.014   2.237  -1.784  0.00  0.00    +0.295 HD
ENDBRANCH  10  12
ENDBRANCH   9  10
ENDBRANCH   1   9
TORSDOF 6
