REMARK  Name = DB00272
REMARK                            x       y       z     vdW  Elec       q    Type
REMARK                         _______ _______ _______ _____ _____    ______ ____
ROOT
ATOM      1  N   LIG    1       -0.766   2.131  -1.159  0.00  0.00    -0.282 N 
ATOM      2  H   LIG    1       -0.632   1.760  -2.088  0.00  0.00    +0.189 HD
ATOM      3  C   LIG    1       -0.519   1.431  -0.005  0.00  0.00    +0.037 A 
ATOM      4  C   LIG    1       -0.842   2.330   0.999  0.00  0.00    +0.044 A 
ATOM      5  C   LIG    1       -1.258   3.495   0.346  0.00  0.00    +0.134 A 
ATOM      6  N   LIG    1       -1.214   3.376  -0.959  0.00  0.00    -0.182 NA
ENDROOT
BRANCH   3   7
ATOM      7  C   LIG    1       -0.000   0.011   0.004  0.00  0.00    +0.069 C 
BRANCH   7   8
ATOM      8  C   LIG    1        1.537  -0.034   0.000  0.00  0.00    +0.084 C 
BRANCH   8   9
ATOM      9  N   LIG    1        2.002  -1.408   0.007  0.00  0.00    -0.330 NA
ATOM     10  H   LIG    1        3.012  -1.426  -0.003  0.00  0.00    +0.118 HD
ATOM     11  H   LIG    1        1.699  -1.873  -0.837  0.00  0.00    +0.118 HD
ENDBRANCH   8   9
ENDBRANCH   7   8
ENDBRANCH   3   7
TORSDOF 3
