REMARK  Name = DB00396
REMARK                            x       y       z     vdW  Elec       q    Type
REMARK                         _______ _______ _______ _____ _____    ______ ____
ROOT
ATOM      1  C   LIG    1       -0.035  -0.029   0.001  0.00  0.00    +0.061 C 
ATOM      2  C   LIG    1       -0.622  -0.764  -1.235  0.00  0.00    +0.012 C 
ATOM      3  C   LIG    1       -1.806  -1.595  -0.701  0.00  0.00    +0.005 C 
ATOM      4  C   LIG    1       -1.896  -1.218   0.785  0.00  0.00    -0.001 C 
ATOM      5  C   LIG    1       -2.634  -2.157   1.780  0.00  0.00    -0.003 C 
ATOM      6  C   LIG    1       -4.074  -2.455   1.325  0.00  0.00    +0.008 C 
ATOM      7  C   LIG    1       -4.768  -3.421   2.292  0.00  0.00    +0.032 C 
ATOM      8  C   LIG    1       -4.806  -2.807   3.695  0.00  0.00    -0.060 C 
ATOM      9  C   LIG    1       -5.969  -2.713   4.381  0.00  0.00    +0.046 C 
ATOM     10  C   LIG    1       -6.095  -2.197   5.736  0.00  0.00    +0.156 C 
ATOM     11  C   LIG    1       -4.782  -2.004   6.497  0.00  0.00    +0.080 C 
ATOM     12  C   LIG    1       -3.669  -1.496   5.560  0.00  0.00    +0.019 C 
ATOM     13  O   LIG    1       -7.192  -2.034   6.265  0.00  0.00    -0.293 OA
ATOM     14  C   LIG    1       -3.430  -2.358   4.274  0.00  0.00    -0.007 C 
ATOM     15  C   LIG    1       -2.643  -3.639   4.663  0.00  0.00    +0.016 C 
ATOM     16  C   LIG    1       -2.675  -1.487   3.194  0.00  0.00    +0.002 C 
ATOM     17  C   LIG    1       -1.253  -1.016   3.646  0.00  0.00    +0.005 C 
ATOM     18  C   LIG    1       -0.528  -0.165   2.573  0.00  0.00    +0.008 C 
ATOM     19  C   LIG    1       -0.440  -0.915   1.218  0.00  0.00    -0.019 C 
ATOM     20  C   LIG    1        0.453  -2.196   1.345  0.00  0.00    +0.012 C 
ENDROOT
BRANCH   1  22
ATOM     21  O   LIG    1        2.242  -0.447  -0.772  0.00  0.00    -0.297 OA
ATOM     22  C   LIG    1        1.481   0.259  -0.109  0.00  0.00    +0.134 C 
ATOM     23  C   LIG    1        2.003   1.504   0.600  0.00  0.00    +0.086 C 
ENDBRANCH   1  22
TORSDOF 1
