REMARK  Name = DB00800
REMARK                            x       y       z     vdW  Elec       q    Type
REMARK                         _______ _______ _______ _____ _____    ______ ____
ROOT
ATOM      1 CL   LIG    1       -4.024  -2.376  -2.600  0.00  0.00    -0.079 Cl
ATOM      2  C   LIG    1       -2.345  -1.944  -2.476  0.00  0.00    +0.089 A 
ATOM      3  C   LIG    1       -1.482  -2.342  -3.504  0.00  0.00    +0.177 A 
ATOM      4  C   LIG    1       -0.132  -2.007  -3.445  0.00  0.00    +0.160 A 
ATOM      5  C   LIG    1        0.350  -1.279  -2.365  0.00  0.00    +0.053 A 
ATOM      6  C   LIG    1       -0.486  -0.864  -1.317  0.00  0.00    -0.030 A 
ATOM      7  C   LIG    1        0.064  -0.051  -0.124  0.00  0.00    +0.063 C 
ATOM      8  C   LIG    1       -0.549   1.371  -0.034  0.00  0.00    +0.093 C 
ATOM      9  N   LIG    1       -1.858   1.446   0.594  0.00  0.00    -0.315 NA
ATOM     10  H   LIG    1       -2.106   2.411   0.765  0.00  0.00    +0.122 HD
ATOM     11  C   LIG    1       -2.958   0.757  -0.062  0.00  0.00    +0.085 C 
ATOM     12  C   LIG    1       -2.791  -0.765  -0.226  0.00  0.00    +0.052 C 
ATOM     13  C   LIG    1       -1.862  -1.208  -1.370  0.00  0.00    -0.020 A 
ENDROOT
BRANCH   7  14
ATOM     14  C   LIG    1        1.598  -0.022  -0.006  0.00  0.00    -0.039 A 
ATOM     15  C   LIG    1        2.352   0.933  -0.702  0.00  0.00    +0.008 A 
ATOM     16  C   LIG    1        3.738   0.958  -0.579  0.00  0.00    +0.045 A 
ATOM     17  C   LIG    1        4.376   0.031   0.244  0.00  0.00    +0.117 A 
ATOM     18  C   LIG    1        3.636  -0.918   0.946  0.00  0.00    +0.045 A 
ATOM     19  C   LIG    1        2.249  -0.942   0.823  0.00  0.00    +0.008 A 
BRANCH  17  20
ATOM     20  O   LIG    1        5.740   0.053   0.365  0.00  0.00    -0.507 OA
ATOM     21  H   LIG    1        6.152   0.744  -0.159  0.00  0.00    +0.292 HD
ENDBRANCH  17  20
ENDBRANCH   7  14
BRANCH   4  22
ATOM     22  O   LIG    1        0.738  -2.382  -4.439  0.00  0.00    -0.503 OA
ATOM     23  H   LIG    1        1.639  -2.093  -4.279  0.00  0.00    +0.292 HD
ENDBRANCH   4  22
BRANCH   3  24
ATOM     24  O   LIG    1       -1.957  -3.061  -4.576  0.00  0.00    -0.502 OA
ATOM     25  H   LIG    1       -1.266  -3.281  -5.206  0.00  0.00    +0.292 HD
ENDBRANCH   3  24
TORSDOF 4
