REMARK  Name = DB00245
REMARK                            x       y       z     vdW  Elec       q    Type
REMARK                         _______ _______ _______ _____ _____    ______ ____
ROOT
ATOM      1  C   LIG    1       -0.068   0.027  -0.116  0.00  0.00    +0.179 C 
ENDROOT
BRANCH   1   2
ATOM      2  C   LIG    1       -0.557   1.477  -0.061  0.00  0.00    -0.014 A 
ATOM      3  C   LIG    1       -0.256   2.357  -1.105  0.00  0.00    +0.006 A 
ATOM      4  C   LIG    1       -0.689   3.679  -1.050  0.00  0.00    +0.000 A 
ATOM      5  C   LIG    1       -1.421   4.119   0.050  0.00  0.00    +0.000 A 
ATOM      6  C   LIG    1       -1.724   3.249   1.096  0.00  0.00    +0.000 A 
ATOM      7  C   LIG    1       -1.291   1.927   1.041  0.00  0.00    +0.006 A 
ENDBRANCH   1   2
BRANCH   1   8
ATOM      8  C   LIG    1       -0.627  -0.741  -1.319  0.00  0.00    -0.014 A 
ATOM      9  C   LIG    1        0.210  -1.244  -2.324  0.00  0.00    +0.006 A 
ATOM     10  C   LIG    1       -0.330  -1.939  -3.403  0.00  0.00    +0.000 A 
ATOM     11  C   LIG    1       -1.706  -2.138  -3.477  0.00  0.00    +0.000 A 
ATOM     12  C   LIG    1       -2.548  -1.647  -2.482  0.00  0.00    +0.000 A 
ATOM     13  C   LIG    1       -2.008  -0.952  -1.404  0.00  0.00    +0.006 A 
ENDBRANCH   1   8
BRANCH   1  14
ATOM     14  O   LIG    1        1.361  -0.012  -0.117  0.00  0.00    -0.364 OA
BRANCH  14  20
ATOM     15  C   LIG    1        4.301  -0.861   0.988  0.00  0.00    +0.059 C 
ATOM     16  C   LIG    1        4.299  -1.000  -0.548  0.00  0.00    +0.020 C 
ATOM     17  C   LIG    1        4.311   0.449  -1.050  0.00  0.00    +0.020 C 
ATOM     18  C   LIG    1        4.327   1.289   0.244  0.00  0.00    +0.059 C 
ATOM     19  C   LIG    1        2.901   1.642   0.751  0.00  0.00    +0.050 C 
ATOM     20  C   LIG    1        2.016   0.405   1.082  0.00  0.00    +0.122 C 
ATOM     21  C   LIG    1        2.870  -0.793   1.592  0.00  0.00    +0.050 C 
ATOM     22  N   LIG    1        4.935   0.430   1.262  0.00  0.00    -0.299 NA
ATOM     23  C   LIG    1        6.395   0.384   1.178  0.00  0.00    +0.105 C 
ENDBRANCH  14  20
ENDBRANCH   1  14
TORSDOF 4
