REMARK  Name = DB00460
REMARK                            x       y       z     vdW  Elec       q    Type
REMARK                         _______ _______ _______ _____ _____    ______ ____
ROOT
ATOM      1  C   LIG    1       -6.083   2.813   0.961  0.00  0.00    +0.150 C 
ATOM      2  C   LIG    1       -7.559   3.289   1.094  0.00  0.00    +0.051 C 
ATOM      3  C   LIG    1       -8.582   2.425   0.872  0.00  0.00    +0.012 C 
ATOM      4  C   LIG    1       -8.329   1.029   0.566  0.00  0.00    +0.007 C 
ATOM      5  C   LIG    1       -7.095   0.618   0.203  0.00  0.00    -0.014 C 
ATOM      6  C   LIG    1       -6.504  -0.712   0.038  0.00  0.00    +0.037 C 
ATOM      7  C   LIG    1       -7.233  -1.900   0.064  0.00  0.00    +0.049 C 
ATOM      8  C   LIG    1       -6.718  -3.212  -0.008  0.00  0.00    +0.045 A 
ATOM      9  C   LIG    1       -7.468  -4.368  -0.023  0.00  0.00    -0.018 A 
ATOM     10  C   LIG    1       -8.987  -4.430  -0.014  0.00  0.00    +0.046 C 
ATOM     11  C   LIG    1       -6.579  -5.471  -0.057  0.00  0.00    +0.003 A 
ATOM     12  C   LIG    1       -5.294  -4.976  -0.095  0.00  0.00    +0.049 A 
ATOM     13  C   LIG    1       -4.101  -5.734  -0.135  0.00  0.00    +0.052 C 
ATOM     14  C   LIG    1       -2.782  -5.232  -0.144  0.00  0.00    +0.045 A 
ATOM     15  C   LIG    1       -1.648  -6.004  -0.178  0.00  0.00    -0.022 A 
ATOM     16  C   LIG    1       -1.591  -7.521  -0.231  0.00  0.00    +0.046 C 
ATOM     17  C   LIG    1       -0.561  -5.119  -0.155  0.00  0.00    -0.019 A 
ATOM     18  C   LIG    1       -1.092  -3.853  -0.121  0.00  0.00    +0.045 A 
ATOM     19  C   LIG    1       -0.339  -2.660  -0.093  0.00  0.00    +0.051 C 
ATOM     20  C   LIG    1       -0.848  -1.344  -0.062  0.00  0.00    +0.045 A 
ATOM     21  C   LIG    1       -0.111  -0.182  -0.043  0.00  0.00    -0.019 A 
ATOM     22  C   LIG    1       -1.013   0.905   0.002  0.00  0.00    -0.022 A 
ATOM     23  C   LIG    1       -0.643   2.378   0.060  0.00  0.00    +0.046 C 
ATOM     24  C   LIG    1       -2.293   0.401  -0.018  0.00  0.00    +0.044 A 
ATOM     25  C   LIG    1       -3.474   1.171  -0.012  0.00  0.00    +0.045 C 
ATOM     26  C   LIG    1       -4.785   0.696  -0.026  0.00  0.00    +0.022 C 
ATOM     27  N   LIG    1       -2.174  -0.969  -0.048  0.00  0.00    -0.355 N 
ATOM     28  H   LIG    1       -2.953  -1.612  -0.062  0.00  0.00    +0.166 HD
ATOM     29  N   LIG    1       -2.463  -3.898  -0.118  0.00  0.00    -0.355 N 
ATOM     30  H   LIG    1       -3.085  -3.136  -0.100  0.00  0.00    +0.166 HD
ATOM     31  N   LIG    1       -5.399  -3.602  -0.072  0.00  0.00    -0.354 N 
ATOM     32  H   LIG    1       -4.614  -2.966  -0.083  0.00  0.00    +0.166 HD
ATOM     33  N   LIG    1       -5.152  -0.610  -0.071  0.00  0.00    -0.317 N 
ATOM     34  H   LIG    1       -4.533  -1.369  -0.167  0.00  0.00    +0.152 HD
ATOM     35  C   LIG    1       -5.992   1.610  -0.078  0.00  0.00    +0.050 C 
ATOM     36  C   LIG    1       -6.153   2.169  -1.518  0.00  0.00    +0.023 C 
ENDROOT
BRANCH   1  37
ATOM     37  C   LIG    1       -5.483   2.484   2.351  0.00  0.00    +0.316 C 
ATOM     38  O   LIG    1       -4.470   3.064   2.749  0.00  0.00    -0.250 OA
BRANCH  37  39
ATOM     39  O   LIG    1       -6.172   1.543   3.035  0.00  0.00    -0.467 OA
ATOM     40  C   LIG    1       -5.739   1.121   4.319  0.00  0.00    +0.280 C 
ENDBRANCH  37  39
ENDBRANCH   1  37
BRANCH   2  41
ATOM     41  C   LIG    1       -7.840   4.706   1.416  0.00  0.00    +0.336 C 
ATOM     42  O   LIG    1       -8.983   5.169   1.476  0.00  0.00    -0.245 OA
BRANCH  41  43
ATOM     43  O   LIG    1       -6.722   5.440   1.639  0.00  0.00    -0.465 OA
ATOM     44  C   LIG    1       -6.805   6.819   1.968  0.00  0.00    +0.280 C 
ENDBRANCH  41  43
ENDBRANCH   2  41
BRANCH  11  45
ATOM     45  C   LIG    1       -6.942  -6.883  -0.062  0.00  0.00    +0.002 C 
ATOM     46  C   LIG    1       -7.900  -7.476   0.669  0.00  0.00    +0.009 C 
ENDBRANCH  11  45
BRANCH  17  47
ATOM     47  C   LIG    1        0.920  -5.491  -0.165  0.00  0.00    +0.048 C 
BRANCH  47  48
ATOM     48  C   LIG    1        1.628  -5.277  -1.524  0.00  0.00    +0.125 C 
BRANCH  48  49
ATOM     49  C   LIG    1        0.993  -6.062  -2.680  0.00  0.00    +0.305 C 
ATOM     50  O   LIG    1        1.170  -7.267  -2.847  0.00  0.00    -0.251 OA
BRANCH  49  51
ATOM     51  O   LIG    1        0.208  -5.272  -3.468  0.00  0.00    -0.481 OA
ATOM     52  H   LIG    1       -0.201  -5.763  -4.184  0.00  0.00    +0.295 HD
ENDBRANCH  49  51
ENDBRANCH  48  49
ENDBRANCH  47  48
ENDBRANCH  17  47
BRANCH  21  53
ATOM     53  C   LIG    1        1.407  -0.089  -0.067  0.00  0.00    +0.048 C 
BRANCH  53  54
ATOM     54  C   LIG    1        2.009  -0.258   1.344  0.00  0.00    +0.125 C 
BRANCH  54  55
ATOM     55  C   LIG    1        3.542  -0.212   1.385  0.00  0.00    +0.307 C 
ATOM     56  O   LIG    1        4.228  -0.024   0.377  0.00  0.00    -0.251 OA
BRANCH  55  57
ATOM     57  O   LIG    1        4.012  -0.406   2.634  0.00  0.00    -0.468 OA
ATOM     58  C   LIG    1        5.410  -0.406   2.887  0.00  0.00    +0.280 C 
ENDBRANCH  55  57
ENDBRANCH  54  55
ENDBRANCH  53  54
ENDBRANCH  21  53
TORSDOF 13
