REMARK  Name = DB00512
REMARK                            x       y       z     vdW  Elec       q    Type
REMARK                         _______ _______ _______ _____ _____    ______ ____
ROOT
ATOM      1  C   UNK A  1       -0.648   0.098  -1.520  0.00  0.00    +0.208 A 
ATOM      2  C   UNK A  1       -1.341   1.278  -1.166  0.00  0.00    +0.174 A 
ATOM      3  C   UNK A  1       -2.642   1.183  -0.648  0.00  0.00    +0.056 A 
ATOM      4  C   UNK A  1       -3.266  -0.046  -0.418  0.00  0.00    -0.011 A 
ATOM      5  C   UNK A  1       -2.575  -1.196  -0.804  0.00  0.00    +0.056 A 
ATOM      6  C   UNK A  1       -4.642  -0.087   0.253  0.00  0.00    +0.190 C 
ATOM      7  C   UNK A  1       -4.596   0.590   1.643  0.00  0.00    +0.239 C 
ATOM      8  O   UNK A  1       -3.791   0.190   2.487  0.00  0.00    -0.273 OA
ATOM      9  N   UNK A  1       -5.394   1.661   1.817  0.00  0.00    -0.299 N 
ATOM     10  H   UNK A  1       -6.001   1.935   1.058  0.00  0.00    +0.150 HD
ATOM     11  C   UNK A  1       -5.247   2.658   2.890  0.00  0.00    +0.190 C 
ATOM     12  C   UNK A  1       -4.144   3.700   2.553  0.00  0.00    +0.239 C 
ATOM     13  O   UNK A  1       -3.861   3.916   1.374  0.00  0.00    -0.273 OA
ATOM     14  N   UNK A  2       -3.724   4.461   3.584  0.00  0.00    -0.300 N 
ATOM     15  H   UNK A  2       -4.004   4.181   4.512  0.00  0.00    +0.150 HD
ATOM     16  C   UNK A  2       -3.215   5.846   3.507  0.00  0.00    +0.192 C 
ATOM     17  C   UNK A  2       -4.288   6.796   2.894  0.00  0.00    +0.237 C 
ATOM     18  N   UNK A  3       -5.437   6.875   3.594  0.00  0.00    -0.297 N 
ATOM     19  H   UNK A  3       -5.512   6.309   4.427  0.00  0.00    +0.150 HD
ATOM     20  C   UNK A  3       -6.520   7.866   3.449  0.00  0.00    +0.213 C 
ATOM     21  C   UNK A  3       -7.396   7.709   2.201  0.00  0.00    -0.002 A 
ATOM     22  C   UNK A  3       -8.159   6.551   1.887  0.00  0.00    +0.033 A 
ATOM     23  C   UNK A  3       -9.019   6.575   0.773  0.00  0.00    +0.128 A 
ATOM     24  C   UNK A  3       -9.122   7.714  -0.022  0.00  0.00    +0.091 A 
ATOM     25  C   UNK A  3       -8.367   8.842   0.274  0.00  0.00    +0.121 A 
ATOM     26  C   UNK A  1       -8.009   5.285   2.654  0.00  0.00    +0.028 A 
ATOM     27  C   UNK A  1       -6.933   4.470   2.326  0.00  0.00    +0.018 A 
ATOM     28  C   UNK A  1       -8.868   4.883   3.686  0.00  0.00    +0.125 A 
ATOM     29  C   UNK A  1       -8.593   3.716   4.405  0.00  0.00    +0.046 A 
ATOM     30  C   UNK A  1       -7.448   2.966   4.125  0.00  0.00    +0.009 A 
ATOM     31  C   UNK A  3       -7.516   8.837   1.376  0.00  0.00    +0.052 A 
ATOM     32  O   UNK A  2       -4.070   7.413   1.852  0.00  0.00    -0.274 OA
ATOM     33  C   UNK A  2       -1.709   6.039   3.062  0.00  0.00    +0.174 C 
ATOM     34  C   UNK A  2       -1.280   5.184   1.868  0.00  0.00    -0.015 A 
ATOM     35  C   UNK A  2       -0.757   3.906   2.094  0.00  0.00    +0.010 A 
ATOM     36  C   UNK A  2       -0.533   3.039   1.028  0.00  0.00    +0.048 A 
ATOM     37  C   UNK A  2       -0.836   3.433  -0.282  0.00  0.00    +0.147 A 
ATOM     38  C   UNK A  2       -1.273   4.742  -0.519  0.00  0.00    +0.083 A 
ATOM     39 CL   UNK A  2       -1.634   5.271  -2.123  0.00  0.00    -0.080 Cl
ATOM     40  C   UNK A  2       -1.481   5.616   0.551  0.00  0.00    +0.030 A 
ATOM     41  C   UNK A  1       -6.587   3.347   3.090  0.00  0.00    -0.018 A 
ATOM     42  N   UNK A  1       -5.199  -1.442   0.420  0.00  0.00    -0.299 N 
ATOM     43  H   UNK A  1       -5.170  -1.814   1.358  0.00  0.00    +0.150 HD
ATOM     44  C   UNK A  1       -5.808  -2.153  -0.551  0.00  0.00    +0.235 C 
ATOM     45  O   UNK A  1       -5.912  -1.770  -1.716  0.00  0.00    -0.274 OA
ATOM     46  C   UNK A  1       -6.409  -3.514  -0.164  0.00  0.00    +0.168 C 
ATOM     47  N   UNK A  1       -5.448  -4.316   0.601  0.00  0.00    -0.302 N 
ATOM     48  H   UNK A  1       -4.999  -3.841   1.370  0.00  0.00    +0.150 HD
ATOM     49  C   UNK A  1       -5.186  -5.626   0.406  0.00  0.00    +0.237 C 
ATOM     50  O   UNK A  1       -5.668  -6.294  -0.507  0.00  0.00    -0.274 OA
ATOM     51  C   UNK A  1       -4.238  -6.332   1.413  0.00  0.00    +0.192 C 
ATOM     52  C   UNK A  1       -2.916  -6.854   0.752  0.00  0.00    +0.174 C 
ATOM     53  C   UNK A  1       -2.135  -5.731   0.063  0.00  0.00    -0.015 A 
ATOM     54  C   UNK A  1       -2.307  -5.505  -1.308  0.00  0.00    +0.030 A 
ATOM     55  C   UNK A  1       -1.733  -4.390  -1.919  0.00  0.00    +0.083 A 
ATOM     56 CL   UNK A  1       -2.043  -4.083  -3.590  0.00  0.00    -0.080 Cl
ATOM     57  C   UNK A  1       -0.974  -3.495  -1.158  0.00  0.00    +0.147 A 
ATOM     58  C   UNK A  1       -0.739  -3.759   0.194  0.00  0.00    +0.048 A 
ATOM     59  O   UNK A  1       -0.581  -2.289  -1.690  0.00  0.00    -0.451 OA
ATOM     60  C   UNK A  1       -1.313  -4.871   0.801  0.00  0.00    +0.010 A 
ATOM     61  O   UNK A  2       -0.775   2.529  -1.325  0.00  0.00    -0.451 OA
ATOM     62  C   UNK A  1       -1.277  -1.142  -1.339  0.00  0.00    +0.174 A 
ENDROOT
BRANCH  51  63
ATOM     63  N   UNK A  1       -3.996  -5.525   2.620  0.00  0.00    -0.300 N 
ATOM     64  H   UNK A  1       -3.121  -5.022   2.639  0.00  0.00    +0.150 HD
ATOM     65  C   UNK A  1       -4.897  -5.307   3.595  0.00  0.00    +0.231 C 
ATOM     66  O   UNK A  1       -5.985  -5.883   3.666  0.00  0.00    -0.274 OA
BRANCH  65  67
ATOM     67  C   UNK A  1       -4.533  -4.220   4.635  0.00  0.00    +0.140 C 
BRANCH  67  68
ATOM     68  N   UNK A  1       -4.057  -4.872   5.882  0.00  0.00    -0.309 NA
ATOM     69  H   UNK A  1       -3.227  -5.423   5.718  0.00  0.00    +0.122 HD
ATOM     70  C   ACE A  0       -5.023  -5.620   6.681  0.00  0.00    +0.101 C 
ENDBRANCH  67  68
BRANCH  67  71
ATOM     71  C   UNK A  1       -5.672  -3.167   4.787  0.00  0.00    +0.031 C 
BRANCH  71  72
ATOM     72  C   UNK A  1       -5.205  -1.769   5.253  0.00  0.00    -0.015 C 
ATOM     73  C   UNK A  1       -6.330  -0.727   5.071  0.00  0.00    +0.007 C 
ATOM     74  C   UNK A  1       -4.644  -1.771   6.690  0.00  0.00    +0.007 C 
ENDBRANCH  71  72
ENDBRANCH  67  71
ENDBRANCH  65  67
ENDBRANCH  51  63
BRANCH  23  75
ATOM     75  O   UNK A  3       -9.770   5.478   0.431  0.00  0.00    -0.506 OA
ATOM     76  H   UNK A  3      -10.299   5.615  -0.358  0.00  0.00    +0.292 HD
ENDBRANCH  23  75
BRANCH  25  77
ATOM     77  O   UNK A  3       -8.468   9.960  -0.511  0.00  0.00    -0.507 OA
ATOM     78  H   UNK A  3       -7.903  10.677  -0.216  0.00  0.00    +0.292 HD
ENDBRANCH  25  77
BRANCH  28  79
ATOM     79  O   UNK A  1       -9.970   5.631   4.017  0.00  0.00    -0.506 OA
ATOM     80  H   UNK A  1      -10.086   6.395   3.447  0.00  0.00    +0.292 HD
ENDBRANCH  28  79
BRANCH  20  81
ATOM     81  C   UNK A  3       -7.369   7.924   4.741  0.00  0.00    +0.330 C 
ATOM     82  O   UNK A  3       -7.277   7.137   5.663  0.00  0.00    -0.249 OA
BRANCH  81  83
ATOM     83  O   UNK A  3       -8.226   8.985   4.685  0.00  0.00    -0.479 OA
ATOM     84  H   UNK A  3       -8.773   9.054   5.471  0.00  0.00    +0.295 HD
ENDBRANCH  81  83
ENDBRANCH  20  81
BRANCH  33  85
ATOM     85  O   UNK A  2       -1.356   7.407   2.927  0.00  0.00    -0.385 OA
ATOM     86  H   UNK A  2       -0.400   7.483   2.984  0.00  0.00    +0.210 HD
ENDBRANCH  33  85
BRANCH  52  87
ATOM     87  O   UNK A  1       -2.138  -7.539   1.722  0.00  0.00    -0.385 OA
ATOM     88  H   UNK A  1       -1.976  -6.946   2.459  0.00  0.00    +0.210 HD
ENDBRANCH  52  87
BRANCH  46  89
ATOM     89  C   UNK A  1       -7.707  -3.301   0.656  0.00  0.00    +0.127 C 
BRANCH  89  90
ATOM     90  C   UNK A  1       -8.475  -4.591   0.966  0.00  0.00    +0.213 C 
ATOM     91  N   UNK A  1       -8.781  -4.827   2.244  0.00  0.00    -0.329 N 
ATOM     92  H   UNK A  1       -8.503  -4.180   2.968  0.00  0.00    +0.145 HD
ATOM     93  H   UNK A  1       -9.285  -5.664   2.497  0.00  0.00    +0.145 HD
ATOM     94  O   UNK A  1       -8.800  -5.357   0.063  0.00  0.00    -0.276 OA
ENDBRANCH  89  90
ENDBRANCH  46  89
BRANCH   1  95
ATOM     95  O   UNK A  1        0.634   0.035  -2.045  0.00  0.00    -0.453 OA
BRANCH  95  96
ATOM     96  C   UNK A  1        1.559   1.062  -1.848  0.00  0.00    +0.340 C 
ATOM     97  O   UNK A  1        1.425   2.015  -2.871  0.00  0.00    -0.331 OA
ATOM     98  C   UNK A  1        2.270   3.155  -2.690  0.00  0.00    +0.179 C 
ATOM     99  C   UNK A  1        3.753   2.714  -2.786  0.00  0.00    +0.177 C 
ATOM    100  C   UNK A  1        4.034   1.553  -1.807  0.00  0.00    +0.180 C 
ATOM    101  C   UNK A  1        2.966   0.437  -1.917  0.00  0.00    +0.220 C 
BRANCH  99 102
ATOM    102  O   UNK A  1        4.633   3.802  -2.560  0.00  0.00    -0.386 OA
ATOM    103  H   UNK A  1        4.593   4.388  -3.320  0.00  0.00    +0.210 HD
ENDBRANCH  99 102
BRANCH 100 104
ATOM    104  O   UNK A  1        5.331   1.023  -2.014  0.00  0.00    -0.386 OA
ATOM    105  H   UNK A  1        5.930   1.752  -2.191  0.00  0.00    +0.210 HD
ENDBRANCH 100 104
BRANCH  98 106
ATOM    106  C   UNK A  1        1.854   4.238  -3.710  0.00  0.00    +0.190 C 
BRANCH 106 107
ATOM    107  O   UNK A  1        2.084   3.831  -5.045  0.00  0.00    -0.392 OA
ATOM    108  H   UNK A  1        1.471   3.122  -5.255  0.00  0.00    +0.210 HD
ENDBRANCH 106 107
ENDBRANCH  98 106
BRANCH 101 109
ATOM    109  O   UNK A  1        3.162  -0.487  -0.843  0.00  0.00    -0.339 OA
BRANCH 109 110
ATOM    110  C   UNK A  1        2.880  -1.834  -1.092  0.00  0.00    +0.253 C 
ATOM    111  O   UNK A  1        2.262  -2.429   0.021  0.00  0.00    -0.346 OA
ATOM    112  C   UNK A  1        3.102  -2.606   1.167  0.00  0.00    +0.148 C 
ATOM    113  C   UNK A  1        2.249  -3.133   2.336  0.00  0.00    +0.041 C 
ATOM    114  C   UNK A  1        4.316  -3.506   0.822  0.00  0.00    +0.163 C 
ATOM    115  C   UNK A  1        5.138  -2.901  -0.356  0.00  0.00    +0.047 C 
ATOM    116  C   UNK A  1        5.897  -1.630   0.106  0.00  0.00    +0.030 C 
ATOM    117  C   UNK A  1        4.167  -2.571  -1.524  0.00  0.00    +0.085 C 
BRANCH 115 118
ATOM    118  N   UNK A  1        6.158  -3.834  -0.819  0.00  0.00    -0.323 NA
ATOM    119  H   UNK A  1        5.712  -4.702  -1.081  0.00  0.00    +0.119 HD
ATOM    120  H   UNK A  1        6.782  -4.054  -0.057  0.00  0.00    +0.119 HD
ENDBRANCH 115 118
BRANCH 114 121
ATOM    121  O   UNK A  1        3.873  -4.834   0.561  0.00  0.00    -0.387 OA
ATOM    122  H   UNK A  1        3.538  -5.210   1.378  0.00  0.00    +0.210 HD
ENDBRANCH 114 121
ENDBRANCH 109 110
ENDBRANCH 101 109
ENDBRANCH  95  96
ENDBRANCH   1  95
TORSDOF 24
