REMARK  Name = DB00295
REMARK                            x       y       z     vdW  Elec       q    Type
REMARK                         _______ _______ _______ _____ _____    ______ ____
ROOT
ATOM      1  O   LIG    1        0.554  -2.289   0.018  0.00  0.00    -0.481 OA
ATOM      2  C   LIG    1        0.363  -2.669   1.324  0.00  0.00    +0.166 A 
ATOM      3  C   LIG    1       -0.766  -3.255   1.889  0.00  0.00    +0.159 A 
ATOM      4  C   LIG    1       -0.787  -3.444   3.278  0.00  0.00    +0.049 A 
ATOM      5  C   LIG    1        0.291  -3.015   4.071  0.00  0.00    +0.008 A 
ATOM      6  C   LIG    1        1.429  -2.433   3.490  0.00  0.00    -0.038 A 
ATOM      7  C   LIG    1        2.589  -1.819   4.281  0.00  0.00    +0.055 C 
ATOM      8  C   LIG    1        3.808  -1.442   3.374  0.00  0.00    +0.068 C 
ATOM      9  C   LIG    1        3.356  -0.796   2.010  0.00  0.00    +0.043 C 
ATOM     10  C   LIG    1        2.535   0.482   2.116  0.00  0.00    -0.023 C 
ATOM     11  C   LIG    1        1.625   0.850   1.196  0.00  0.00    +0.004 C 
ATOM     12  C   LIG    1        1.333   0.075  -0.088  0.00  0.00    +0.178 C 
ATOM     13  C   LIG    1        2.569  -1.868   1.221  0.00  0.00    +0.048 C 
ATOM     14  C   LIG    1        3.583  -3.002   0.915  0.00  0.00    +0.031 C 
ATOM     15  C   LIG    1        4.183  -3.613   2.203  0.00  0.00    +0.085 C 
ATOM     16  N   LIG    1        4.698  -2.610   3.155  0.00  0.00    -0.301 NA
ATOM     17  C   LIG    1        6.058  -2.197   2.810  0.00  0.00    +0.105 C 
ATOM     18  C   LIG    1        1.447  -2.351   2.096  0.00  0.00    +0.012 A 
ATOM     19  C   LIG    1        1.735  -1.447  -0.024  0.00  0.00    +0.217 C 
ENDROOT
BRANCH  12  20
ATOM     20  O   LIG    1       -0.018   0.259  -0.471  0.00  0.00    -0.384 OA
ATOM     21  H   LIG    1       -0.163   1.192  -0.639  0.00  0.00    +0.210 HD
ENDBRANCH  12  20
BRANCH   3  22
ATOM     22  O   LIG    1       -1.838  -3.606   1.111  0.00  0.00    -0.503 OA
ATOM     23  H   LIG    1       -2.561  -3.981   1.617  0.00  0.00    +0.292 HD
ENDBRANCH   3  22
TORSDOF 2
