REMARK  Name = DB00757
REMARK                            x       y       z     vdW  Elec       q    Type
REMARK                         _______ _______ _______ _____ _____    ______ ____
ROOT
ATOM      1  O   LIG    1        0.815   0.426  -0.506  0.00  0.00    -0.458 OA
ENDROOT
BRANCH   1  11
ATOM      2  C   LIG    1       -1.955  -1.309  -0.912  0.00  0.00    +0.062 C 
ATOM      3  C   LIG    1       -3.079  -2.317  -1.210  0.00  0.00    +0.030 C 
ATOM      4  C   LIG    1       -3.165  -3.263   0.061  0.00  0.00    +0.059 C 
ATOM      5  C   LIG    1       -1.884  -4.108   0.022  0.00  0.00    +0.150 C 
ATOM      6  O   LIG    1       -1.861  -5.337   0.009  0.00  0.00    -0.296 OA
ATOM      7  C   LIG    1       -0.633  -3.214   0.004  0.00  0.00    +0.159 C 
ATOM      8  C   LIG    1       -2.903  -2.298   1.338  0.00  0.00    +0.030 C 
ATOM      9  C   LIG    1       -1.511  -1.405   1.485  0.00  0.00    +0.062 C 
ATOM     10  C   LIG    1       -1.056   0.154   1.095  0.00  0.00    +0.063 C 
ATOM     11  C   LIG    1       -0.585   0.678  -0.374  0.00  0.00    +0.180 C 
ATOM     12  C   LIG    1       -1.395  -0.036  -1.538  0.00  0.00    +0.063 C 
ATOM     13  N   LIG    1       -1.041  -1.801   0.154  0.00  0.00    -0.289 NA
ENDBRANCH   1  11
BRANCH   1  14
ATOM     14  C   LIG    1        1.585   1.113  -1.388  0.00  0.00    +0.341 C 
ATOM     15  O   LIG    1        1.182   2.007  -2.135  0.00  0.00    -0.245 OA
BRANCH  14  16
ATOM     16  C   LIG    1        2.973   0.653  -1.346  0.00  0.00    +0.084 A 
ATOM     17  C   LIG    1        4.070   1.145  -2.147  0.00  0.00    +0.014 A 
ATOM     18  C   LIG    1        4.204   2.129  -3.145  0.00  0.00    +0.011 A 
ATOM     19  C   LIG    1        5.452   2.349  -3.725  0.00  0.00    +0.001 A 
ATOM     20  C   LIG    1        6.566   1.613  -3.336  0.00  0.00    +0.002 A 
ATOM     21  C   LIG    1        6.489   0.626  -2.353  0.00  0.00    +0.026 A 
ATOM     22  C   LIG    1        5.237   0.405  -1.770  0.00  0.00    +0.047 A 
ATOM     23  N   LIG    1        4.846  -0.483  -0.791  0.00  0.00    -0.360 N 
ATOM     24  H   LIG    1        5.421  -1.156  -0.305  0.00  0.00    +0.165 HD
ATOM     25  C   LIG    1        3.507  -0.340  -0.538  0.00  0.00    +0.098 A 
ENDBRANCH  14  16
ENDBRANCH   1  14
TORSDOF 3
