REMARK  Name = DB00723
REMARK                            x       y       z     vdW  Elec       q    Type
REMARK                         _______ _______ _______ _____ _____    ______ ____
ROOT
ATOM      1  C   LIG    1        1.602   0.100   0.014  0.00  0.00    +0.027 A 
ATOM      2  C   LIG    1        2.370   1.144   0.551  0.00  0.00    +0.055 A 
ATOM      3  C   LIG    1        3.764   1.108   0.538  0.00  0.00    +0.121 A 
ATOM      4  C   LIG    1        4.401  -0.005  -0.028  0.00  0.00    +0.049 A 
ATOM      5  C   LIG    1        3.653  -1.051  -0.562  0.00  0.00    +0.049 A 
ATOM      6  C   LIG    1        2.248  -1.015  -0.548  0.00  0.00    +0.126 A 
ENDROOT
BRANCH   3   7
ATOM      7  O   LIG    1        4.422   2.189   1.093  0.00  0.00    -0.495 OA
ATOM      8  C   LIG    1        5.845   2.202   1.105  0.00  0.00    +0.277 C 
ENDBRANCH   3   7
BRANCH   6   9
ATOM      9  O   LIG    1        1.457  -2.028  -1.063  0.00  0.00    -0.495 OA
ATOM     10  C   LIG    1        2.069  -3.182  -1.627  0.00  0.00    +0.277 C 
ENDBRANCH   6   9
BRANCH   1  11
ATOM     11  C   LIG    1        0.065   0.166   0.045  0.00  0.00    +0.164 C 
BRANCH  11  12
ATOM     12  O   LIG    1       -0.458   1.485   0.114  0.00  0.00    -0.386 OA
ATOM     13  H   LIG    1       -0.198   1.956  -0.681  0.00  0.00    +0.210 HD
ENDBRANCH  11  12
BRANCH  11  14
ATOM     14  C   LIG    1       -0.563  -0.742   1.144  0.00  0.00    +0.081 C 
ATOM     15  C   LIG    1       -2.101  -0.812   1.097  0.00  0.00    +0.026 C 
BRANCH  14  16
ATOM     16  N   LIG    1       -0.143  -0.341   2.479  0.00  0.00    -0.325 NA
ATOM     17  H   LIG    1       -0.606  -0.918   3.167  0.00  0.00    +0.119 HD
ATOM     18  H   LIG    1       -0.444   0.607   2.652  0.00  0.00    +0.119 HD
ENDBRANCH  14  16
ENDBRANCH  11  14
ENDBRANCH   1  11
TORSDOF 6
