REMARK  Name = DB00792
REMARK                            x       y       z     vdW  Elec       q    Type
REMARK                         _______ _______ _______ _____ _____    ______ ____
ROOT
ATOM      1  N   LIG    1        0.020  -0.109   0.099  0.00  0.00    -0.310 N 
ENDROOT
BRANCH   1   2
ATOM      2  C   LIG    1       -0.457  -1.448   0.008  0.00  0.00    +0.122 A 
ATOM      3  C   LIG    1       -1.818  -1.757   0.190  0.00  0.00    +0.043 A 
ATOM      4  C   LIG    1       -2.247  -3.082   0.090  0.00  0.00    +0.005 A 
ATOM      5  C   LIG    1       -1.320  -4.085  -0.186  0.00  0.00    +0.020 A 
ATOM      6  C   LIG    1        0.015  -3.723  -0.353  0.00  0.00    +0.113 A 
ATOM      7  N   LIG    1        0.444  -2.440  -0.258  0.00  0.00    -0.240 NA
ENDBRANCH   1   2
BRANCH   1   8
ATOM      8  C   LIG    1       -0.907   1.029   0.210  0.00  0.00    +0.141 C 
BRANCH   8   9
ATOM      9  C   LIG    1       -1.794   1.294  -1.013  0.00  0.00    -0.030 A 
ATOM     10  C   LIG    1       -1.536   0.740  -2.275  0.00  0.00    +0.005 A 
ATOM     11  C   LIG    1       -2.360   1.041  -3.355  0.00  0.00    +0.000 A 
ATOM     12  C   LIG    1       -3.438   1.905  -3.181  0.00  0.00    +0.000 A 
ATOM     13  C   LIG    1       -3.696   2.474  -1.937  0.00  0.00    +0.000 A 
ATOM     14  C   LIG    1       -2.871   2.173  -0.857  0.00  0.00    +0.005 A 
ENDBRANCH   8   9
ENDBRANCH   1   8
BRANCH   1  15
ATOM     15  C   LIG    1        1.457   0.189   0.019  0.00  0.00    +0.122 C 
BRANCH  15  16
ATOM     16  C   LIG    1        1.947   0.404  -1.429  0.00  0.00    +0.102 C 
BRANCH  16  17
ATOM     17  N   LIG    1        3.400   0.584  -1.512  0.00  0.00    -0.307 NA
ATOM     18  C   LIG    1        3.820   0.560  -2.910  0.00  0.00    +0.104 C 
ATOM     19  C   LIG    1        3.838   1.840  -0.903  0.00  0.00    +0.104 C 
ENDBRANCH  16  17
ENDBRANCH  15  16
ENDBRANCH   1  15
TORSDOF 6
