REMARK  Name = DB00809
REMARK                            x       y       z     vdW  Elec       q    Type
REMARK                         _______ _______ _______ _____ _____    ______ ____
ROOT
ATOM      1  O   LIG    1        2.446  -0.857   0.039  0.00  0.00    -0.275 OA
ATOM      2  C   LIG    1        1.621   0.029   0.281  0.00  0.00    +0.225 C 
ATOM      3  N   LIG    1        2.003   1.249   0.751  0.00  0.00    -0.297 N 
ENDROOT
BRANCH   3   4
ATOM      4  C   LIG    1        3.425   1.601   0.895  0.00  0.00    +0.105 C 
ATOM      5  C   LIG    1        4.022   1.150   2.236  0.00  0.00    +0.024 C 
ENDBRANCH   3   4
BRANCH   2   6
ATOM      6  C   LIG    1        0.117  -0.283   0.034  0.00  0.00    +0.130 C 
BRANCH   6   7
ATOM      7  C   LIG    1       -0.497  -0.968   1.263  0.00  0.00    -0.033 A 
ATOM      8  C   LIG    1       -1.492  -0.312   1.997  0.00  0.00    +0.004 A 
ATOM      9  C   LIG    1       -2.057  -0.921   3.115  0.00  0.00    +0.000 A 
ATOM     10  C   LIG    1       -1.629  -2.189   3.499  0.00  0.00    +0.000 A 
ATOM     11  C   LIG    1       -0.643  -2.855   2.776  0.00  0.00    +0.000 A 
ATOM     12  C   LIG    1       -0.079  -2.246   1.658  0.00  0.00    +0.004 A 
ENDBRANCH   6   7
BRANCH   6  13
ATOM     13  C   LIG    1       -0.128  -1.115  -1.254  0.00  0.00    +0.173 C 
BRANCH  13  14
ATOM     14  O   LIG    1        0.139  -0.359  -2.421  0.00  0.00    -0.394 OA
ATOM     15  H   LIG    1       -0.007  -0.919  -3.187  0.00  0.00    +0.209 HD
ENDBRANCH  13  14
ENDBRANCH   6  13
ENDBRANCH   2   6
BRANCH   3  16
ATOM     16  C   LIG    1        1.078   2.331   1.132  0.00  0.00    +0.143 C 
BRANCH  16  17
ATOM     17  C   LIG    1        0.810   3.396   0.069  0.00  0.00    -0.027 A 
ATOM     18  C   LIG    1        1.018   3.164  -1.299  0.00  0.00    +0.025 A 
ATOM     19  C   LIG    1        0.763   4.197  -2.203  0.00  0.00    +0.111 A 
ATOM     20  N   LIG    1        0.326   5.423  -1.820  0.00  0.00    -0.263 NA
ATOM     21  C   LIG    1        0.134   5.637  -0.494  0.00  0.00    +0.111 A 
ATOM     22  C   LIG    1        0.365   4.659   0.475  0.00  0.00    +0.025 A 
ENDBRANCH  16  17
ENDBRANCH   3  16
TORSDOF 7
