REMARK  Name = DB00793
REMARK                            x       y       z     vdW  Elec       q    Type
REMARK                         _______ _______ _______ _____ _____    ______ ____
ROOT
ATOM      1  C   LIG    1       -0.527   1.311   0.000  0.00  0.00    +0.142 A 
ATOM      2  C   LIG    1        0.211   2.508   0.000  0.00  0.00    +0.068 A 
ATOM      3  C   LIG    1       -0.431   3.747   0.000  0.00  0.00    +0.063 A 
ATOM      4  C   LIG    1       -1.829   3.806   0.000  0.00  0.00    +0.061 A 
ATOM      5  C   LIG    1       -2.569   2.625   0.000  0.00  0.00    +0.045 A 
ATOM      6 CL   LIG    1       -2.669   5.319   0.000  0.00  0.00    -0.082 Cl
ATOM      7 CL   LIG    1        0.529   5.186   0.000  0.00  0.00    -0.082 Cl
ATOM      8  C   LIG    1       -1.926   1.387   0.000  0.00  0.00    +0.084 A 
ATOM      9 CL   LIG    1       -2.886  -0.052   0.000  0.00  0.00    -0.080 Cl
ENDROOT
BRANCH   1  10
ATOM     10  O   LIG    1        0.045   0.051   0.000  0.00  0.00    -0.478 OA
BRANCH  10  11
ATOM     11  C   LIG    1        1.463  -0.080   0.000  0.00  0.00    +0.318 C 
BRANCH  11  14
ATOM     12  I   LIG    1        2.813  -4.576   0.000  0.00  0.00    +0.018 I 
ATOM     13  C   LIG    1        2.235  -2.658   0.000  0.00  0.00    -0.027 C 
ATOM     14  C   LIG    1        1.880  -1.489   0.000  0.00  0.00    -0.050 C 
ENDBRANCH  11  14
ENDBRANCH  10  11
ENDBRANCH   1  10
TORSDOF 3
