REMARK  Name = DB00532
REMARK                            x       y       z     vdW  Elec       q    Type
REMARK                         _______ _______ _______ _____ _____    ______ ____
ROOT
ATOM      1  O   LIG    1       -0.353  -1.586   1.818  0.00  0.00    -0.272 OA
ATOM      2  C   LIG    1       -0.623  -0.516   1.267  0.00  0.00    +0.251 C 
ATOM      3  C   LIG    1       -0.015  -0.008  -0.036  0.00  0.00    +0.138 C 
ATOM      4  N   LIG    1       -0.528   1.342  -0.013  0.00  0.00    -0.281 N 
ATOM      5  H   LIG    1       -0.053   2.081  -0.511  0.00  0.00    +0.152 HD
ATOM      6  C   LIG    1       -1.435   1.583   0.941  0.00  0.00    +0.309 C 
ATOM      7  O   LIG    1       -2.247   2.507   0.963  0.00  0.00    -0.252 OA
ATOM      8  N   LIG    1       -1.423   0.474   1.717  0.00  0.00    -0.227 N 
ATOM      9  C   LIG    1       -1.968   0.471   3.077  0.00  0.00    +0.143 C 
ENDROOT
BRANCH   3  10
ATOM     10  C   LIG    1       -0.522  -0.844  -1.243  0.00  0.00    -0.015 A 
ATOM     11  C   LIG    1       -1.689  -0.487  -1.940  0.00  0.00    +0.006 A 
ATOM     12  C   LIG    1       -2.153  -1.263  -2.999  0.00  0.00    +0.000 A 
ATOM     13  C   LIG    1       -1.463  -2.415  -3.363  0.00  0.00    +0.000 A 
ATOM     14  C   LIG    1       -0.320  -2.801  -2.672  0.00  0.00    +0.000 A 
ATOM     15  C   LIG    1        0.143  -2.024  -1.613  0.00  0.00    +0.006 A 
ENDBRANCH   3  10
BRANCH   3  16
ATOM     16  C   LIG    1        1.540   0.029   0.136  0.00  0.00    +0.037 C 
ATOM     17  C   LIG    1        2.300   0.621  -1.066  0.00  0.00    +0.007 C 
ENDBRANCH   3  16
TORSDOF 2
