REMARK  Name = DB00976
REMARK                            x       y       z     vdW  Elec       q    Type
REMARK                         _______ _______ _______ _____ _____    ______ ____
ROOT
ATOM      1  C   LIG    1       -4.072  -4.502  -0.647  0.00  0.00    +0.168 C 
ATOM      2  C   LIG    1       -3.967  -5.997  -1.068  0.00  0.00    +0.062 C 
ATOM      3  C   LIG    1       -3.185  -4.168   0.609  0.00  0.00    +0.221 C 
ATOM      4  O   LIG    1       -3.079  -2.768   0.897  0.00  0.00    -0.457 OA
ATOM      5  C   LIG    1       -3.991  -2.096   1.639  0.00  0.00    +0.318 C 
ATOM      6  O   LIG    1       -5.071  -2.556   2.014  0.00  0.00    -0.250 OA
ATOM      7  C   LIG    1       -3.512  -0.692   2.079  0.00  0.00    +0.161 C 
ATOM      8  C   LIG    1       -4.622   0.121   2.796  0.00  0.00    +0.027 C 
ATOM      9  C   LIG    1       -2.817   0.132   0.964  0.00  0.00    +0.152 C 
ATOM     10  O   LIG    1       -3.431   1.022   0.382  0.00  0.00    -0.296 OA
ATOM     11  C   LIG    1       -1.306  -0.083   0.702  0.00  0.00    +0.085 C 
ATOM     12  C   LIG    1       -0.519   0.455   1.925  0.00  0.00    +0.018 C 
ATOM     13  C   LIG    1       -0.793   0.544  -0.656  0.00  0.00    +0.163 C 
ATOM     14  C   LIG    1       -1.213  -0.180  -1.997  0.00  0.00    +0.094 C 
ATOM     15  C   LIG    1       -0.541   0.522  -3.216  0.00  0.00    +0.044 C 
ATOM     16  C   LIG    1       -0.836  -1.694  -1.981  0.00  0.00    +0.048 C 
ATOM     17  C   LIG    1       -1.120  -2.475  -3.303  0.00  0.00    +0.055 C 
ATOM     18  C   LIG    1        0.158  -2.652  -4.157  0.00  0.00    +0.015 C 
ATOM     19  C   LIG    1       -1.813  -3.839  -3.067  0.00  0.00    +0.141 C 
ATOM     20  O   LIG    1       -1.153  -4.854  -2.840  0.00  0.00    -0.297 OA
ATOM     21  C   LIG    1       -3.352  -3.926  -3.149  0.00  0.00    +0.077 C 
ATOM     22  C   LIG    1       -3.878  -3.344  -4.483  0.00  0.00    +0.017 C 
ATOM     23  O   LIG    1       -5.423  -4.450  -0.222  0.00  0.00    -0.438 OA
ATOM     24  C   LIG    1       -6.232  -3.681  -0.970  0.00  0.00    +0.404 C 
ATOM     25  N   LIG    1       -5.425  -3.014  -1.888  0.00  0.00    -0.260 N 
ATOM     26  O   LIG    1       -7.444  -3.623  -0.773  0.00  0.00    -0.226 OA
ATOM     27  C   LIG    1       -4.034  -3.461  -1.804  0.00  0.00    +0.136 C 
ENDROOT
BRANCH   3  28
ATOM     28  C   LIG    1       -1.731  -4.702   0.549  0.00  0.00    +0.045 C 
ATOM     29  C   LIG    1       -0.924  -4.466   1.838  0.00  0.00    +0.007 C 
ENDBRANCH   3  28
BRANCH  14  30
ATOM     30  O   LIG    1       -2.644  -0.173  -2.151  0.00  0.00    -0.374 OA
ATOM     31  C   LIG    1       -3.290   1.009  -2.626  0.00  0.00    +0.194 C 
ENDBRANCH  14  30
BRANCH  13  32
ATOM     32  O   LIG    1        0.643   0.576  -0.640  0.00  0.00    -0.342 OA
BRANCH  32  33
ATOM     33  C   LIG    1        1.251   1.834  -0.499  0.00  0.00    +0.281 C 
ATOM     34  O   LIG    1        0.990   2.615  -1.626  0.00  0.00    -0.346 OA
ATOM     35  C   LIG    1        1.436   3.956  -1.479  0.00  0.00    +0.120 C 
ATOM     36  C   LIG    1        0.915   4.789  -2.659  0.00  0.00    +0.038 C 
ATOM     37  C   LIG    1        2.971   3.990  -1.366  0.00  0.00    +0.053 C 
ATOM     38  C   LIG    1        3.576   2.961  -0.365  0.00  0.00    +0.092 C 
ATOM     39  C   LIG    1        2.770   1.611  -0.378  0.00  0.00    +0.187 C 
BRANCH  38  40
ATOM     40  N   LIG    1        5.049   2.878  -0.528  0.00  0.00    -0.303 NA
ATOM     41  C   LIG    1        5.720   4.150  -0.245  0.00  0.00    +0.105 C 
ATOM     42  C   LIG    1        5.703   1.847   0.277  0.00  0.00    +0.105 C 
ENDBRANCH  38  40
BRANCH  39  43
ATOM     43  O   LIG    1        2.991   0.856   0.802  0.00  0.00    -0.385 OA
ATOM     44  H   LIG    1        3.034   1.460   1.547  0.00  0.00    +0.210 HD
ENDBRANCH  39  43
ENDBRANCH  32  33
ENDBRANCH  13  32
BRANCH  25  45
ATOM     45  C   LIG    1       -5.878  -1.870  -2.699  0.00  0.00    +0.111 C 
BRANCH  45  46
ATOM     46  C   LIG    1       -6.928  -0.895  -2.111  0.00  0.00    +0.021 C 
BRANCH  46  47
ATOM     47  C   LIG    1       -6.618  -0.325  -0.709  0.00  0.00    +0.023 C 
BRANCH  47  48
ATOM     48  C   LIG    1       -7.372   0.985  -0.385  0.00  0.00    +0.123 C 
BRANCH  48  49
ATOM     49  N   LIG    1       -6.709   2.132  -0.990  0.00  0.00    -0.336 N 
ATOM     50  C   LIG    1       -6.883   2.664  -2.242  0.00  0.00    +0.199 A 
ATOM     51  N   LIG    1       -6.048   3.641  -2.512  0.00  0.00    -0.236 NA
ATOM     52  C   LIG    1       -5.286   3.772  -1.433  0.00  0.00    +0.090 A 
ATOM     53  C   LIG    1       -5.702   2.883  -0.447  0.00  0.00    +0.115 A 
BRANCH  52  54
ATOM     54  C   LIG    1       -4.141   4.731  -1.368  0.00  0.00    +0.020 A 
ATOM     55  C   LIG    1       -3.170   4.613  -0.363  0.00  0.00    +0.013 A 
ATOM     56  C   LIG    1       -2.093   5.500  -0.320  0.00  0.00    +0.020 A 
ATOM     57  C   LIG    1       -2.013   6.495  -1.294  0.00  0.00    +0.111 A 
ATOM     58  N   LIG    1       -2.932   6.633  -2.282  0.00  0.00    -0.263 NA
ATOM     59  C   LIG    1       -3.972   5.760  -2.307  0.00  0.00    +0.120 A 
ENDBRANCH  52  54
ENDBRANCH  48  49
ENDBRANCH  47  48
ENDBRANCH  46  47
ENDBRANCH  45  46
ENDBRANCH  25  45
TORSDOF 12
