REMARK  Name = DB00318
REMARK                            x       y       z     vdW  Elec       q    Type
REMARK                         _______ _______ _______ _____ _____    ______ ____
ROOT
ATOM      1  C   LIG    1       -2.516   2.604   0.052  0.00  0.00    +0.048 C 
ATOM      2  C   LIG    1       -2.816   3.025   1.515  0.00  0.00    +0.031 C 
ATOM      3  C   LIG    1       -3.908   2.143   2.164  0.00  0.00    +0.085 C 
ATOM      4  N   LIG    1       -5.122   1.989   1.337  0.00  0.00    -0.301 NA
ATOM      5  C   LIG    1       -6.039   3.113   1.524  0.00  0.00    +0.105 C 
ATOM      6  C   LIG    1       -4.870   1.719  -0.101  0.00  0.00    +0.068 C 
ATOM      7  C   LIG    1       -4.416   0.238  -0.330  0.00  0.00    +0.055 C 
ATOM      8  C   LIG    1       -2.911   0.041  -0.115  0.00  0.00    -0.038 A 
ATOM      9  C   LIG    1       -2.272  -1.206  -0.064  0.00  0.00    +0.008 A 
ATOM     10  C   LIG    1       -0.872  -1.300   0.024  0.00  0.00    +0.050 A 
ATOM     11  C   LIG    1       -0.070  -0.139   0.014  0.00  0.00    +0.162 A 
ATOM     12  C   LIG    1       -0.725   1.089  -0.048  0.00  0.00    +0.167 A 
ATOM     13  O   LIG    1       -0.162   2.335  -0.176  0.00  0.00    -0.481 OA
ATOM     14  C   LIG    1       -1.226   3.261  -0.518  0.00  0.00    +0.217 C 
ATOM     15  C   LIG    1       -1.237   3.550  -2.068  0.00  0.00    +0.178 C 
ATOM     16  C   LIG    1       -2.451   2.982  -2.801  0.00  0.00    +0.004 C 
ATOM     17  C   LIG    1       -3.614   2.649  -2.212  0.00  0.00    -0.023 C 
ATOM     18  C   LIG    1       -3.851   2.753  -0.713  0.00  0.00    +0.043 C 
ATOM     19  C   LIG    1       -2.091   1.166  -0.030  0.00  0.00    +0.012 A 
ENDROOT
BRANCH  11  20
ATOM     20  O   LIG    1        1.310  -0.112   0.034  0.00  0.00    -0.491 OA
ATOM     21  C   LIG    1        2.014  -1.347   0.101  0.00  0.00    +0.277 C 
ENDBRANCH  11  20
BRANCH  15  22
ATOM     22  O   LIG    1       -0.047   3.125  -2.705  0.00  0.00    -0.384 OA
ATOM     23  H   LIG    1       -0.047   3.458  -3.605  0.00  0.00    +0.210 HD
ENDBRANCH  15  22
TORSDOF 2
