REMARK  Name = DB00617
REMARK                            x       y       z     vdW  Elec       q    Type
REMARK                         _______ _______ _______ _____ _____    ______ ____
ROOT
ATOM      1  O   LIG    1       -0.526   1.280  -0.025  0.00  0.00    -0.434 OA
ATOM      2  C   LIG    1       -1.311   1.476  -1.124  0.00  0.00    +0.410 C 
ATOM      3  N   LIG    1       -1.319   0.345  -1.861  0.00  0.00    -0.207 N 
ATOM      4  C   LIG    1       -2.052   0.189  -3.117  0.00  0.00    +0.144 C 
ATOM      5  C   LIG    1       -0.572  -0.632  -1.315  0.00  0.00    +0.268 C 
ATOM      6  O   LIG    1       -0.371  -1.773  -1.736  0.00  0.00    -0.271 OA
ATOM      7  O   LIG    1       -1.880   2.547  -1.333  0.00  0.00    -0.226 OA
ATOM      8  C   LIG    1       -0.006  -0.024  -0.035  0.00  0.00    +0.188 C 
ATOM      9  C   LIG    1       -0.573  -0.785   1.188  0.00  0.00    +0.066 C 
ENDROOT
BRANCH   8  10
ATOM     10  C   LIG    1        1.551   0.012  -0.049  0.00  0.00    +0.054 C 
ATOM     11  C   LIG    1        2.214   0.782  -1.210  0.00  0.00    +0.008 C 
ENDBRANCH   8  10
TORSDOF 1
