REMARK  Name = DB00993
REMARK                            x       y       z     vdW  Elec       q    Type
REMARK                         _______ _______ _______ _____ _____    ______ ____
ROOT
ATOM      1  S   LIG    1        0.722   0.407   1.218  0.00  0.00    -0.046 S 
ENDROOT
BRANCH   1   2
ATOM      2  C   LIG    1        0.305   1.983   0.517  0.00  0.00    +0.132 A 
ATOM      3  C   LIG    1       -0.880   2.552   0.995  0.00  0.00    +0.118 A 
ATOM      4  C   LIG    1       -1.280   3.815   0.481  0.00  0.00    +0.182 A 
ATOM      5  N   LIG    1       -0.556   4.468  -0.441  0.00  0.00    -0.214 NA
ATOM      6  C   LIG    1        0.581   3.832  -0.842  0.00  0.00    +0.224 A 
ATOM      7  N   LIG    1       -2.455   4.232   1.048  0.00  0.00    -0.216 NA
ATOM      8  C   LIG    1       -2.768   3.267   1.880  0.00  0.00    +0.199 A 
ATOM      9  N   LIG    1       -1.867   2.227   1.899  0.00  0.00    -0.341 N 
ATOM     10  H   LIG    1       -1.960   1.409   2.484  0.00  0.00    +0.167 HD
ATOM     11  N   LIG    1        1.052   2.629  -0.417  0.00  0.00    -0.227 NA
ENDBRANCH   1   2
BRANCH   1  12
ATOM     12  C   LIG    1        2.282   0.085   0.451  0.00  0.00    +0.133 A 
ATOM     13  C   LIG    1        3.594   0.236   0.934  0.00  0.00    +0.242 A 
ATOM     14  N   LIG    1        4.481  -0.139   0.018  0.00  0.00    -0.212 NA
ATOM     15  C   LIG    1        3.781  -0.519  -1.017  0.00  0.00    +0.202 A 
ATOM     16  N   LIG    1        2.430  -0.403  -0.828  0.00  0.00    -0.326 N 
ATOM     17  C   LIG    1        1.386  -0.758  -1.775  0.00  0.00    +0.151 C 
BRANCH  13  18
ATOM     18  N   LIG    1        4.018   0.725   2.219  0.00  0.00    +0.028 N 
ATOM     19  O   LIG    1        5.221   0.748   2.467  0.00  0.00    -0.128 OA
BRANCH  18  20
ATOM     20  O   LIG    1        3.157   1.098   3.009  0.00  0.00    -0.395 OA
ATOM     21  H   LIG    1        3.404   1.421   3.853  0.00  0.00    +0.329 HD
ENDBRANCH  18  20
ENDBRANCH  13  18
ENDBRANCH   1  12
TORSDOF 4
