REMARK  Name = DB00415
REMARK                            x       y       z     vdW  Elec       q    Type
REMARK                         _______ _______ _______ _____ _____    ______ ____
ROOT
ATOM      1  S   LIG    1        1.299  -1.964   1.374  0.00  0.00    -0.127 S 
ATOM      2  C   LIG    1        2.403  -3.353   0.976  0.00  0.00    +0.042 C 
ATOM      3  C   LIG    1        1.763  -4.717   1.305  0.00  0.00    +0.025 C 
ATOM      4  C   LIG    1        3.636  -3.178   1.910  0.00  0.00    +0.025 C 
ATOM      5  CA  LIG    1        2.741  -3.146  -0.544  0.00  0.00    +0.201 C 
ATOM      6  N   LIG    1        2.723  -1.694  -0.772  0.00  0.00    -0.271 N 
ATOM      7  C   LIG    1        1.942  -1.068  -1.751  0.00  0.00    +0.240 C 
ATOM      8  CA  LIG    1        1.575   0.069  -0.772  0.00  0.00    +0.190 C 
ATOM      9  O   LIG    1        1.616  -1.379  -2.895  0.00  0.00    -0.273 OA
ATOM     10  C   LIG    1        2.229  -0.817   0.321  0.00  0.00    +0.165 C 
ENDROOT
BRANCH   8  11
ATOM     11  N   LIG    1        0.142   0.345  -0.687  0.00  0.00    -0.300 N 
ATOM     12  H   LIG    1       -0.429   0.029  -1.457  0.00  0.00    +0.150 HD
ATOM     13  C   LIG    1       -0.431   1.042   0.310  0.00  0.00    +0.235 C 
ATOM     14  O   LIG    1        0.197   1.537   1.249  0.00  0.00    -0.274 OA
BRANCH  13  15
ATOM     15  CA  LIG    1       -1.969   1.180   0.251  0.00  0.00    +0.168 C 
BRANCH  15  16
ATOM     16  C   LIG    1       -2.635   0.587   1.479  0.00  0.00    -0.022 A 
ATOM     17  C   LIG    1       -3.423   1.371   2.335  0.00  0.00    +0.005 A 
ATOM     18  C   LIG    1       -4.029   0.803   3.453  0.00  0.00    +0.000 A 
ATOM     19  C   LIG    1       -3.856  -0.552   3.720  0.00  0.00    +0.000 A 
ATOM     20  C   LIG    1       -3.084  -1.346   2.877  0.00  0.00    +0.000 A 
ATOM     21  C   LIG    1       -2.479  -0.778   1.759  0.00  0.00    +0.005 A 
ENDBRANCH  15  16
BRANCH  15  22
ATOM     22  N   LIG    1       -2.227   2.593  -0.089  0.00  0.00    -0.316 NA
ATOM     23  H1  LIG    1       -3.220   2.771  -0.139  0.00  0.00    +0.119 HD
ATOM     24  H2  LIG    1       -1.852   2.817  -0.999  0.00  0.00    +0.119 HD
ENDBRANCH  15  22
ENDBRANCH  13  15
ENDBRANCH   8  11
BRANCH   5  25
ATOM     25  C   LIG    1        4.041  -3.831  -1.020  0.00  0.00    +0.327 C 
ATOM     26  OXT LIG    1        5.057  -3.235  -1.317  0.00  0.00    -0.249 OA
BRANCH  25  27
ATOM     27  O   LIG    1        3.867  -5.182  -1.091  0.00  0.00    -0.479 OA
ATOM     28  H   LIG    1        4.654  -5.635  -1.401  0.00  0.00    +0.295 HD
ENDBRANCH  25  27
ENDBRANCH   5  25
TORSDOF 6
