REMARK  Name = DB00229
REMARK                            x       y       z     vdW  Elec       q    Type
REMARK                         _______ _______ _______ _____ _____    ______ ____
ROOT
ATOM      1  S   LIG    1        3.502  -3.589   0.719  0.00  0.00    -0.131 S 
ATOM      2  C   LIG    1        2.209  -2.299   0.851  0.00  0.00    +0.104 C 
ATOM      3  C   LIG    1        1.770  -1.723  -0.511  0.00  0.00    -0.021 C 
ATOM      4  CA  LIG    1        1.861  -2.454  -1.665  0.00  0.00    +0.123 C 
ATOM      5  N   LIG    1        2.325  -3.745  -1.682  0.00  0.00    -0.249 N 
ATOM      6  C   LIG    1        2.714  -4.725  -2.602  0.00  0.00    +0.244 C 
ATOM      7  CA  LIG    1        3.303  -5.594  -1.445  0.00  0.00    +0.191 C 
ATOM      8  O   LIG    1        2.646  -4.827  -3.826  0.00  0.00    -0.273 OA
ATOM      9  C   LIG    1        2.593  -4.586  -0.498  0.00  0.00    +0.169 C 
ENDROOT
BRANCH   7  10
ATOM     10  N   LIG    1        4.770  -5.589  -1.411  0.00  0.00    -0.301 N 
ATOM     11  H   LIG    1        5.199  -4.897  -0.815  0.00  0.00    +0.150 HD
ATOM     12  C   LIG    1        5.566  -6.388  -2.145  0.00  0.00    +0.220 C 
ATOM     13  O   LIG    1        5.141  -7.250  -2.914  0.00  0.00    -0.275 OA
BRANCH  12  14
ATOM     14  C   LIG    1        7.077  -6.170  -1.994  0.00  0.00    +0.151 C 
BRANCH  14  15
ATOM     15  C   LIG    1        7.637  -5.182  -3.006  0.00  0.00    +0.059 A 
ATOM     16  C   LIG    1        8.159  -3.913  -2.754  0.00  0.00    +0.072 A 
ATOM     17  S   LIG    1        8.653  -3.174  -4.247  0.00  0.00    -0.061 S 
ATOM     18  C   LIG    1        8.132  -4.612  -5.057  0.00  0.00    +0.156 A 
ATOM     19  N   LIG    1        7.643  -5.542  -4.280  0.00  0.00    -0.230 NA
BRANCH  18  20
ATOM     20  N   LIG    1        8.248  -4.716  -6.412  0.00  0.00    -0.338 N 
ATOM     21  H   LIG    1        8.628  -3.967  -6.973  0.00  0.00    +0.144 HD
ATOM     22  H   LIG    1        7.947  -5.546  -6.903  0.00  0.00    +0.144 HD
ENDBRANCH  18  20
ENDBRANCH  14  15
ENDBRANCH  12  14
ENDBRANCH   7  10
BRANCH   4  23
ATOM     23  C   LIG    1        1.447  -1.900  -2.943  0.00  0.00    +0.351 C 
ATOM     24  OXT LIG    1        2.199  -1.739  -3.903  0.00  0.00    -0.244 OA
BRANCH  23  25
ATOM     25  O   LIG    1        0.109  -1.629  -2.979  0.00  0.00    -0.476 OA
ATOM     26  H   LIG    1       -0.170  -1.287  -3.831  0.00  0.00    +0.295 HD
ENDBRANCH  23  25
ENDBRANCH   4  23
BRANCH   3  27
ATOM     27  C   LIG    1        1.289  -0.269  -0.425  0.00  0.00    +0.111 C 
BRANCH  27  28
ATOM     28  S   LIG    1       -0.339  -0.086   0.367  0.00  0.00    -0.080 S 
BRANCH  28  29
ATOM     29  C   LIG    1       -0.479   1.677   0.419  0.00  0.00    +0.210 A 
ATOM     30  N   LIG    1        0.397   2.530  -0.062  0.00  0.00    -0.102 NA
ATOM     31  N   LIG    1       -0.133   3.797   0.158  0.00  0.00    -0.022 NA
ATOM     32  N   LIG    1       -1.356   3.693   0.784  0.00  0.00    -0.043 NA
ATOM     33  N   LIG    1       -1.541   2.377   0.953  0.00  0.00    -0.219 N 
BRANCH  33  34
ATOM     34  C   LIG    1       -2.764   1.888   1.589  0.00  0.00    +0.163 C 
BRANCH  34  35
ATOM     35  C   LIG    1       -2.522   1.088   2.895  0.00  0.00    +0.107 C 
BRANCH  35  36
ATOM     36  N   LIG    1       -2.203   1.902   4.076  0.00  0.00    -0.307 NA
ATOM     37  C   LIG    1       -2.356   1.090   5.281  0.00  0.00    +0.104 C 
ATOM     38  C   LIG    1       -0.841   2.434   4.053  0.00  0.00    +0.104 C 
ENDBRANCH  35  36
ENDBRANCH  34  35
ENDBRANCH  33  34
ENDBRANCH  28  29
ENDBRANCH  27  28
ENDBRANCH   3  27
TORSDOF 12
