REMARK  Name = DB00538
REMARK                            x       y       z     vdW  Elec       q    Type
REMARK                         _______ _______ _______ _____ _____    ______ ____
ROOT
ATOM      1  N   LIG    1       -1.290   0.466  -0.289  0.00  0.00    -0.290 NA
ENDROOT
BRANCH   1   2
ATOM      2  C   LIG    1       -2.432  -0.365  -0.739  0.00  0.00    +0.205 C 
BRANCH   2   3
ATOM      3  C   LIG    1       -3.752  -0.216   0.065  0.00  0.00    +0.319 C 
ATOM      4  O   LIG    1       -4.782  -0.645  -0.503  0.00  0.00    -0.250 OA
BRANCH   3   5
ATOM      5  O   LIG    1       -3.744   0.259   1.224  0.00  0.00    -0.480 OA
ATOM      6  H   LIG    1       -3.940  -0.290   1.957  0.00  0.00    +0.295 HD
ENDBRANCH   3   5
ENDBRANCH   2   3
ENDBRANCH   1   2
BRANCH   1   7
ATOM      7  C   LIG    1       -1.525   1.879  -0.643  0.00  0.00    +0.100 C 
BRANCH   7   8
ATOM      8  C   LIG    1       -0.500   2.943  -0.163  0.00  0.00    +0.101 C 
BRANCH   8   9
ATOM      9  N   LIG    1       -0.380   3.187   1.290  0.00  0.00    -0.283 NA
BRANCH   9  10
ATOM     10  C   LIG    1        0.302   4.488   1.485  0.00  0.00    +0.205 C 
BRANCH  10  11
ATOM     11  C   LIG    1        0.011   5.199   2.834  0.00  0.00    +0.319 C 
ATOM     12  O   LIG    1        0.824   6.094   3.160  0.00  0.00    -0.250 OA
BRANCH  11  13
ATOM     13  O   LIG    1       -1.006   4.905   3.506  0.00  0.00    -0.480 OA
ATOM     14  H   LIG    1       -1.679   4.373   3.128  0.00  0.00    +0.295 HD
ENDBRANCH  11  13
ENDBRANCH  10  11
ENDBRANCH   9  10
BRANCH   9  15
ATOM     15  C   LIG    1        0.300   2.122   2.039  0.00  0.00    +0.181 C 
BRANCH  15  16
ATOM     16  C   LIG    1       -0.707   1.248   2.808  0.00  0.00    +0.227 C 
ATOM     17  N   LIG    1       -0.419  -0.064   2.862  0.00  0.00    -0.312 N 
ATOM     18  H   LIG    1        0.400  -0.394   2.373  0.00  0.00    +0.149 HD
ATOM     19  O   LIG    1       -1.694   1.741   3.356  0.00  0.00    -0.274 OA
BRANCH  17  20
ATOM     20  C   LIG    1       -1.240  -1.085   3.510  0.00  0.00    +0.132 C 
BRANCH  20  21
ATOM     21  C   LIG    1       -0.679  -1.529   4.877  0.00  0.00    +0.178 C 
BRANCH  21  22
ATOM     22  O   LIG    1       -0.540  -0.464   5.813  0.00  0.00    -0.381 OA
ATOM     23  C   LIG    1       -1.761   0.015   6.362  0.00  0.00    +0.194 C 
ENDBRANCH  21  22
ENDBRANCH  20  21
ENDBRANCH  17  20
ENDBRANCH  15  16
ENDBRANCH   9  15
ENDBRANCH   8   9
ENDBRANCH   7   8
ENDBRANCH   1   7
BRANCH   1  24
ATOM     24  C   LIG    1       -0.036  -0.029  -0.885  0.00  0.00    +0.100 C 
BRANCH  24  25
ATOM     25  C   LIG    1        0.342  -1.437  -0.353  0.00  0.00    +0.101 C 
BRANCH  25  26
ATOM     26  N   LIG    1        1.772  -1.783  -0.408  0.00  0.00    -0.283 NA
BRANCH  26  27
ATOM     27  C   LIG    1        1.907  -3.208  -0.034  0.00  0.00    +0.205 C 
BRANCH  27  28
ATOM     28  C   LIG    1        3.191  -3.915  -0.545  0.00  0.00    +0.319 C 
ATOM     29  O   LIG    1        3.450  -5.015  -0.008  0.00  0.00    -0.250 OA
BRANCH  28  30
ATOM     30  O   LIG    1        3.879  -3.407  -1.462  0.00  0.00    -0.480 OA
ATOM     31  H   LIG    1        3.739  -3.666  -2.352  0.00  0.00    +0.295 HD
ENDBRANCH  28  30
ENDBRANCH  27  28
ENDBRANCH  26  27
BRANCH  26  32
ATOM     32  C   LIG    1        2.645  -0.917   0.397  0.00  0.00    +0.181 C 
BRANCH  32  33
ATOM     33  C   LIG    1        3.336   0.148  -0.480  0.00  0.00    +0.227 C 
ATOM     34  N   LIG    1        3.602   1.322   0.118  0.00  0.00    -0.312 N 
ATOM     35  H   LIG    1        3.335   1.441   1.085  0.00  0.00    +0.149 HD
ATOM     36  O   LIG    1        3.636  -0.084  -1.653  0.00  0.00    -0.274 OA
BRANCH  34  37
ATOM     37  C   LIG    1        4.278   2.455  -0.514  0.00  0.00    +0.132 C 
BRANCH  37  38
ATOM     38  C   LIG    1        3.320   3.445  -1.212  0.00  0.00    +0.178 C 
BRANCH  38  39
ATOM     39  O   LIG    1        2.544   2.856  -2.252  0.00  0.00    -0.381 OA
ATOM     40  C   LIG    1        3.244   2.637  -3.469  0.00  0.00    +0.194 C 
ENDBRANCH  38  39
ENDBRANCH  37  38
ENDBRANCH  34  37
ENDBRANCH  32  33
ENDBRANCH  26  32
ENDBRANCH  25  26
ENDBRANCH  24  25
ENDBRANCH   1  24
TORSDOF 25
