REMARK  Name = DB00436
REMARK                            x       y       z     vdW  Elec       q    Type
REMARK                         _______ _______ _______ _____ _____    ______ ____
ROOT
ATOM      1  S   LIG    1        4.458  -1.689  -2.354  0.00  0.00    +0.062 S 
ATOM      2  C   LIG    1        3.712  -0.835  -0.978  0.00  0.00    +0.128 A 
ATOM      3  C   LIG    1        2.341  -0.586  -1.019  0.00  0.00    +0.059 A 
ATOM      4  C   LIG    1        1.688   0.071   0.031  0.00  0.00    +0.119 A 
ATOM      5  C   LIG    1        2.439   0.514   1.146  0.00  0.00    +0.083 A 
ATOM      6  C   LIG    1        3.820   0.260   1.166  0.00  0.00    +0.039 A 
ATOM      7  C   LIG    1        4.463  -0.423   0.135  0.00  0.00    +0.056 A 
ATOM      8  N   LIG    1        5.869  -0.534   0.206  0.00  0.00    -0.326 N 
ATOM      9  H   LIG    1        6.367   0.041   0.871  0.00  0.00    +0.148 HD
ATOM     10  C   LIG    1        6.671  -0.950  -0.949  0.00  0.00    +0.164 C 
ATOM     11  N   LIG    1        6.010  -0.898  -2.265  0.00  0.00    -0.170 NA
ATOM     12  H   LIG    1        6.341  -0.273  -3.005  0.00  0.00    +0.150 HD
ATOM     13  O   LIG    1        4.614  -3.100  -1.984  0.00  0.00    -0.153 OA
ATOM     14  O   LIG    1        3.776  -1.337  -3.604  0.00  0.00    -0.153 OA
ENDROOT
BRANCH   5  15
ATOM     15  C   LIG    1        1.830   1.285   2.331  0.00  0.00    +0.419 C 
ATOM     16  F   LIG    1        1.164   0.439   3.116  0.00  0.00    -0.166 F 
ATOM     17  F   LIG    1        2.761   1.876   3.083  0.00  0.00    -0.166 F 
ATOM     18  F   LIG    1        1.007   2.249   1.925  0.00  0.00    -0.166 F 
ENDBRANCH   5  15
BRANCH   4  19
ATOM     19  S   LIG    1       -0.099   0.306  -0.148  0.00  0.00    +0.057 S 
ATOM     20  O   LIG    1       -0.548  -0.506  -1.284  0.00  0.00    -0.153 OA
ATOM     21  O   LIG    1       -0.720   0.130   1.168  0.00  0.00    -0.153 OA
BRANCH  19  22
ATOM     22  N   LIG    1       -0.288   1.986  -0.615  0.00  0.00    -0.203 NA
ATOM     23  H   LIG    1       -0.029   2.660   0.110  0.00  0.00    +0.144 HD
ATOM     24  H   LIG    1        0.091   2.217  -1.537  0.00  0.00    +0.144 HD
ENDBRANCH  19  22
ENDBRANCH   4  19
BRANCH  10  25
ATOM     25  C   LIG    1        7.959  -0.095  -0.998  0.00  0.00    +0.075 C 
BRANCH  25  26
ATOM     26  C   LIG    1        8.972  -0.556  -2.042  0.00  0.00    -0.044 A 
ATOM     27  C   LIG    1        9.768  -1.677  -1.789  0.00  0.00    +0.004 A 
ATOM     28  C   LIG    1       10.688  -2.105  -2.741  0.00  0.00    +0.000 A 
ATOM     29  C   LIG    1       10.811  -1.411  -3.943  0.00  0.00    +0.000 A 
ATOM     30  C   LIG    1       10.021  -0.293  -4.202  0.00  0.00    +0.000 A 
ATOM     31  C   LIG    1        9.100   0.136  -3.250  0.00  0.00    +0.004 A 
ENDBRANCH  25  26
ENDBRANCH  10  25
TORSDOF 5
