REMARK  Name = DB00327
REMARK                            x       y       z     vdW  Elec       q    Type
REMARK                         _______ _______ _______ _____ _____    ______ ____
ROOT
ATOM      1  O   LIG    1        1.538  -2.429  -0.114  0.00  0.00    -0.476 OA
ATOM      2  C   LIG    1        2.078  -1.165   0.001  0.00  0.00    +0.167 A 
ATOM      3  C   LIG    1        1.409   0.053   0.088  0.00  0.00    +0.159 A 
ATOM      4  C   LIG    1        2.174   1.229   0.072  0.00  0.00    +0.049 A 
ATOM      5  C   LIG    1        3.573   1.170  -0.061  0.00  0.00    +0.008 A 
ATOM      6  C   LIG    1        4.241  -0.063  -0.135  0.00  0.00    -0.038 A 
ATOM      7  C   LIG    1        5.745  -0.232  -0.386  0.00  0.00    +0.054 C 
ATOM      8  C   LIG    1        6.238  -1.704  -0.164  0.00  0.00    +0.065 C 
ATOM      9  C   LIG    1        5.232  -2.764  -0.752  0.00  0.00    +0.021 C 
ATOM     10  C   LIG    1        4.998  -2.710  -2.275  0.00  0.00    +0.014 C 
ATOM     11  C   LIG    1        3.962  -3.768  -2.711  0.00  0.00    +0.078 C 
ATOM     12  C   LIG    1        2.598  -3.508  -2.050  0.00  0.00    +0.174 C 
ATOM     13  O   LIG    1        1.569  -3.406  -2.716  0.00  0.00    -0.293 OA
ATOM     14  C   LIG    1        3.908  -2.629   0.030  0.00  0.00    +0.049 C 
ATOM     15  C   LIG    1        4.239  -3.049   1.487  0.00  0.00    +0.031 C 
ATOM     16  C   LIG    1        5.328  -2.149   2.120  0.00  0.00    +0.085 C 
ATOM     17  N   LIG    1        6.521  -1.965   1.270  0.00  0.00    -0.302 NA
ATOM     18  C   LIG    1        7.474  -3.061   1.444  0.00  0.00    +0.105 C 
ATOM     19  C   LIG    1        3.448  -1.205  -0.032  0.00  0.00    +0.012 A 
ATOM     20  C   LIG    1        2.618  -3.312  -0.508  0.00  0.00    +0.250 C 
ENDROOT
BRANCH   3  21
ATOM     21  O   LIG    1        0.042   0.099   0.154  0.00  0.00    -0.503 OA
ATOM     22  H   LIG    1       -0.301   0.994   0.198  0.00  0.00    +0.292 HD
ENDBRANCH   3  21
TORSDOF 1
