REMARK  Name = DB00929
REMARK                            x       y       z     vdW  Elec       q    Type
REMARK                         _______ _______ _______ _____ _____    ______ ____
ROOT
ATOM      1  C   LIG    1       -0.121  -1.565  -1.659  0.00  0.00    +0.129 C 
ATOM      2  C   LIG    1       -0.106  -2.940  -0.985  0.00  0.00    +0.106 C 
ATOM      3  C   LIG    1       -0.528  -2.682   0.464  0.00  0.00    +0.140 C 
ATOM      4  C   LIG    1       -0.392  -1.171   0.748  0.00  0.00    +0.065 C 
ATOM      5  O   LIG    1       -0.901  -3.544   1.258  0.00  0.00    -0.297 OA
ATOM      6  C   LIG    1        0.246  -0.587  -0.535  0.00  0.00    +0.050 C 
ENDROOT
BRANCH   1   7
ATOM      7  O   LIG    1       -1.391  -1.263  -2.211  0.00  0.00    -0.391 OA
ATOM      8  H   LIG    1       -1.303  -0.494  -2.779  0.00  0.00    +0.210 HD
ENDBRANCH   1   7
BRANCH   6   9
ATOM      9  C   LIG    1        1.758  -0.438  -0.392  0.00  0.00    -0.024 C 
ATOM     10  C   LIG    1        2.434   0.710  -0.571  0.00  0.00    -0.028 C 
BRANCH  10  11
ATOM     11  C   LIG    1        3.940   0.861  -0.427  0.00  0.00    +0.061 C 
BRANCH  11  12
ATOM     12  C   LIG    1        4.702   1.113  -1.757  0.00  0.00    +0.067 C 
ATOM     13  C   LIG    1        4.676  -0.128  -2.676  0.00  0.00    +0.041 C 
BRANCH  12  14
ATOM     14  O   LIG    1        6.053   1.313  -1.379  0.00  0.00    -0.389 OA
ATOM     15  H   LIG    1        6.570   1.479  -2.172  0.00  0.00    +0.210 HD
ENDBRANCH  12  14
BRANCH  12  16
ATOM     16  C   LIG    1        4.229   2.385  -2.518  0.00  0.00    +0.035 C 
BRANCH  16  17
ATOM     17  C   LIG    1        4.287   3.716  -1.734  0.00  0.00    +0.003 C 
BRANCH  17  18
ATOM     18  C   LIG    1        3.854   4.925  -2.582  0.00  0.00    -0.003 C 
ATOM     19  C   LIG    1        3.891   6.247  -1.802  0.00  0.00    +0.004 C 
ENDBRANCH  17  18
ENDBRANCH  16  17
ENDBRANCH  12  16
ENDBRANCH  11  12
ENDBRANCH  10  11
ENDBRANCH   6   9
BRANCH   4  20
ATOM     20  C   LIG    1       -1.765  -0.541   1.110  0.00  0.00    +0.012 C 
BRANCH  20  21
ATOM     21  C   LIG    1       -2.301  -0.912   2.511  0.00  0.00    +0.001 C 
BRANCH  21  22
ATOM     22  C   LIG    1       -3.558  -0.126   2.934  0.00  0.00    +0.000 C 
BRANCH  22  23
ATOM     23  C   LIG    1       -4.812  -0.440   2.096  0.00  0.00    +0.001 C 
BRANCH  23  24
ATOM     24  C   LIG    1       -6.065   0.312   2.590  0.00  0.00    +0.011 C 
BRANCH  24  25
ATOM     25  C   LIG    1       -7.359  -0.029   1.816  0.00  0.00    +0.120 C 
BRANCH  25  26
ATOM     26  C   LIG    1       -7.416   0.457   0.361  0.00  0.00    +0.307 C 
ATOM     27  O   LIG    1       -6.589   1.243  -0.109  0.00  0.00    -0.251 OA
BRANCH  26  28
ATOM     28  O   LIG    1       -8.459  -0.080  -0.303  0.00  0.00    -0.468 OA
ATOM     29  C   LIG    1       -8.686   0.236  -1.670  0.00  0.00    +0.280 C 
ENDBRANCH  26  28
ENDBRANCH  25  26
ENDBRANCH  24  25
ENDBRANCH  23  24
ENDBRANCH  22  23
ENDBRANCH  21  22
ENDBRANCH  20  21
ENDBRANCH   4  20
TORSDOF 16
