REMARK  Name = DB00323
REMARK                            x       y       z     vdW  Elec       q    Type
REMARK                         _______ _______ _______ _____ _____    ______ ____
ROOT
ATOM      1  C   LIG    1       -0.108   0.058   0.171  0.00  0.00    +0.028 A 
ATOM      2  C   LIG    1       -0.760   1.248  -0.167  0.00  0.00    +0.061 A 
ATOM      3  C   LIG    1       -2.146   1.292  -0.296  0.00  0.00    +0.161 A 
ATOM      4  C   LIG    1       -2.911   0.133  -0.107  0.00  0.00    +0.189 A 
ATOM      5  C   LIG    1       -2.280  -1.093   0.204  0.00  0.00    +0.167 A 
ATOM      6  C   LIG    1       -0.879  -1.102   0.326  0.00  0.00    +0.048 A 
ENDROOT
BRANCH   1   8
ATOM      7  O   LIG    1        2.057   0.867  -0.353  0.00  0.00    -0.287 OA
ATOM      8  C   LIG    1        1.394   0.030   0.265  0.00  0.00    +0.193 C 
BRANCH   8   9
ATOM      9  C   LIG    1        2.102  -1.007   1.089  0.00  0.00    +0.022 A 
ATOM     10  C   LIG    1        1.544  -1.498   2.278  0.00  0.00    +0.012 A 
ATOM     11  C   LIG    1        2.236  -2.426   3.052  0.00  0.00    +0.004 A 
ATOM     12  C   LIG    1        3.500  -2.860   2.655  0.00  0.00    -0.050 A 
ATOM     13  C   LIG    1        4.262  -3.862   3.503  0.00  0.00    +0.044 C 
ATOM     14  C   LIG    1        4.080  -2.353   1.492  0.00  0.00    +0.004 A 
ATOM     15  C   LIG    1        3.388  -1.425   0.718  0.00  0.00    +0.012 A 
ENDBRANCH   8   9
ENDBRANCH   1   8
BRANCH   5  16
ATOM     16  N   LIG    1       -3.032  -2.367   0.400  0.00  0.00    +0.010 N 
ATOM     17  O   LIG    1       -2.399  -3.380   0.686  0.00  0.00    -0.130 OA
BRANCH  16  18
ATOM     18  O   LIG    1       -4.252  -2.386   0.276  0.00  0.00    -0.396 OA
ATOM     19  H   LIG    1       -4.723  -3.186   0.400  0.00  0.00    +0.329 HD
ENDBRANCH  16  18
ENDBRANCH   5  16
BRANCH   4  20
ATOM     20  O   LIG    1       -4.275   0.235  -0.239  0.00  0.00    -0.502 OA
ATOM     21  H   LIG    1       -4.557   1.128  -0.453  0.00  0.00    +0.292 HD
ENDBRANCH   4  20
BRANCH   3  22
ATOM     22  O   LIG    1       -2.739   2.490  -0.611  0.00  0.00    -0.503 OA
ATOM     23  H   LIG    1       -2.106   3.204  -0.722  0.00  0.00    +0.292 HD
ENDBRANCH   3  22
TORSDOF 6
