REMARK  Name = DB00990
REMARK                            x       y       z     vdW  Elec       q    Type
REMARK                         _______ _______ _______ _____ _____    ______ ____
ROOT
ATOM      1  O   LIG    1       -0.997   2.099   0.976  0.00  0.00    -0.297 OA
ATOM      2  C   LIG    1       -0.606   1.465  -0.002  0.00  0.00    +0.139 C 
ATOM      3  C   LIG    1       -0.701   1.921  -1.469  0.00  0.00    +0.075 C 
ATOM      4  C   LIG    1       -0.325   0.692  -2.313  0.00  0.00    +0.012 C 
ATOM      5  C   LIG    1       -0.457  -0.480  -1.345  0.00  0.00    +0.006 C 
ATOM      6  C   LIG    1        0.175  -1.857  -1.694  0.00  0.00    +0.002 C 
ATOM      7  C   LIG    1       -0.272  -2.338  -3.100  0.00  0.00    +0.039 C 
ATOM      8  C   LIG    1        0.176  -3.774  -3.344  0.00  0.00    -0.050 C 
ATOM      9  C   LIG    1        0.768  -4.143  -4.496  0.00  0.00    +0.012 C 
ATOM     10  C   LIG    1       -0.074  -4.727  -2.265  0.00  0.00    -0.031 C 
ATOM     11  C   LIG    1       -0.701  -5.903  -2.527  0.00  0.00    +0.055 C 
ATOM     12  C   LIG    1       -1.055  -6.917  -1.533  0.00  0.00    +0.179 C 
ATOM     13  C   LIG    1       -0.759  -6.514  -0.162  0.00  0.00    +0.047 C 
ATOM     14  C   LIG    1       -0.131  -5.367   0.162  0.00  0.00    -0.012 C 
ATOM     15  O   LIG    1       -1.571  -7.994  -1.822  0.00  0.00    -0.288 OA
ATOM     16  C   LIG    1        0.389  -4.324  -0.840  0.00  0.00    +0.015 C 
ATOM     17  C   LIG    1        1.939  -4.374  -0.788  0.00  0.00    +0.021 C 
ATOM     18  C   LIG    1       -0.187  -2.889  -0.561  0.00  0.00    +0.007 C 
ATOM     19  C   LIG    1        0.165  -2.326   0.856  0.00  0.00    +0.006 C 
ATOM     20  C   LIG    1       -0.432  -0.919   1.112  0.00  0.00    +0.015 C 
ATOM     21  C   LIG    1        0.039   0.065   0.012  0.00  0.00    +0.029 C 
ATOM     22  C   LIG    1        1.580   0.319   0.090  0.00  0.00    +0.019 C 
ENDROOT
TORSDOF 0
