REMARK  Name = DB00522
REMARK                            x       y       z     vdW  Elec       q    Type
REMARK                         _______ _______ _______ _____ _____    ______ ____
ROOT
ATOM      1  C   LIG    1        1.974   0.043  -0.345  0.00  0.00    +0.164 C 
ENDROOT
BRANCH   1   2
ATOM      2  N   LIG    1        2.281   0.754  -1.592  0.00  0.00    -0.300 N 
ATOM      3  H   LIG    1        2.171   0.210  -2.435  0.00  0.00    +0.150 HD
ATOM      4  C   LIG    1        2.700   2.031  -1.694  0.00  0.00    +0.245 C 
ATOM      5  O   LIG    1        2.862   2.765  -0.716  0.00  0.00    -0.270 OA
BRANCH   4   6
ATOM      6  C   LIG    1        2.933   2.548  -3.097  0.00  0.00    +0.037 A 
ATOM      7  C   LIG    1        3.143   1.673  -4.176  0.00  0.00    +0.013 A 
ATOM      8  C   LIG    1        3.358   2.172  -5.458  0.00  0.00    +0.001 A 
ATOM      9  C   LIG    1        3.369   3.547  -5.672  0.00  0.00    +0.000 A 
ATOM     10  C   LIG    1        3.167   4.428  -4.614  0.00  0.00    +0.001 A 
ATOM     11  C   LIG    1        2.951   3.931  -3.331  0.00  0.00    +0.013 A 
ENDBRANCH   4   6
ENDBRANCH   1   2
BRANCH   1  12
ATOM     12  C   LIG    1        2.561  -1.382  -0.392  0.00  0.00    +0.238 C 
ATOM     13  O   LIG    1        2.407  -2.064  -1.409  0.00  0.00    -0.273 OA
ATOM     14  N   LIG    1        3.193  -1.782   0.733  0.00  0.00    -0.284 N 
ATOM     15  H   LIG    1        3.294  -1.098   1.469  0.00  0.00    +0.155 HD
BRANCH  14  16
ATOM     16  C   LIG    1        3.804  -3.021   0.987  0.00  0.00    +0.033 A 
ATOM     17  C   LIG    1        3.373  -4.228   0.423  0.00  0.00    +0.024 A 
ATOM     18  C   LIG    1        4.021  -5.417   0.744  0.00  0.00    +0.017 A 
ATOM     19  C   LIG    1        5.107  -5.440   1.640  0.00  0.00    +0.059 A 
ATOM     20  C   LIG    1        5.512  -4.216   2.206  0.00  0.00    +0.017 A 
ATOM     21  C   LIG    1        4.867  -3.025   1.888  0.00  0.00    +0.024 A 
BRANCH  19  22
ATOM     22  C   LIG    1        5.811  -6.737   1.987  0.00  0.00    +0.337 C 
ATOM     23  O   LIG    1        5.413  -7.803   1.458  0.00  0.00    -0.245 OA
BRANCH  22  24
ATOM     24  O   LIG    1        6.772  -6.707   2.794  0.00  0.00    -0.477 OA
ATOM     25  H   LIG    1        7.042  -5.892   3.170  0.00  0.00    +0.295 HD
ENDBRANCH  22  24
ENDBRANCH  19  22
ENDBRANCH  14  16
ENDBRANCH   1  12
BRANCH   1  26
ATOM     26  C   LIG    1        0.441   0.007  -0.118  0.00  0.00    +0.067 C 
BRANCH  26  30
ATOM     27  C   LIG    1       -1.402   3.905   0.405  0.00  0.00    +0.117 A 
ATOM     28  C   LIG    1       -0.676   3.319   1.462  0.00  0.00    +0.045 A 
ATOM     29  C   LIG    1       -0.085   2.052   1.292  0.00  0.00    +0.007 A 
ATOM     30  C   LIG    1       -0.217   1.365   0.067  0.00  0.00    -0.045 A 
ATOM     31  C   LIG    1       -0.945   1.954  -0.988  0.00  0.00    +0.007 A 
ATOM     32  C   LIG    1       -1.536   3.221  -0.820  0.00  0.00    +0.045 A 
BRANCH  27  33
ATOM     33  O   LIG    1       -1.974   5.133   0.567  0.00  0.00    -0.507 OA
ATOM     34  H   LIG    1       -1.818   5.508   1.437  0.00  0.00    +0.292 HD
ENDBRANCH  27  33
ENDBRANCH  26  30
ENDBRANCH   1  26
TORSDOF 9
