REMARK  Name = DB00429
REMARK                            x       y       z     vdW  Elec       q    Type
REMARK                         _______ _______ _______ _____ _____    ______ ____
ROOT
ATOM      1  C   LIG    1        0.049  -0.162  -0.559  0.00  0.00    +0.046 C 
ATOM      2  C   LIG    1       -0.265  -1.422  -1.404  0.00  0.00    +0.124 C 
ATOM      3  C   LIG    1       -0.120  -2.617  -0.436  0.00  0.00    +0.063 C 
ATOM      4  C   LIG    1        0.053  -2.037   0.977  0.00  0.00    +0.121 C 
ATOM      5  C   LIG    1       -0.336  -0.548   0.897  0.00  0.00    +0.031 C 
ENDROOT
BRANCH   2   6
ATOM      6  O   LIG    1       -1.578  -1.330  -1.928  0.00  0.00    -0.391 OA
ATOM      7  H   LIG    1       -1.573  -0.707  -2.658  0.00  0.00    +0.210 HD
ENDBRANCH   2   6
BRANCH   4   8
ATOM      8  O   LIG    1       -0.476  -2.816   2.032  0.00  0.00    -0.391 OA
ATOM      9  H   LIG    1        0.149  -3.513   2.241  0.00  0.00    +0.210 HD
ENDBRANCH   4   8
BRANCH   1  10
ATOM     10  C   LIG    1        1.492   0.303  -0.780  0.00  0.00    -0.022 C 
ATOM     11  C   LIG    1        2.509   0.320   0.110  0.00  0.00    +0.003 C 
BRANCH  11  12
ATOM     12  C   LIG    1        3.946   0.796  -0.120  0.00  0.00    +0.081 C 
ATOM     13  C   LIG    1        4.933  -0.377   0.046  0.00  0.00    +0.046 C 
BRANCH  12  14
ATOM     14  O   LIG    1        4.104   1.254  -1.454  0.00  0.00    -0.385 OA
ATOM     15  H   LIG    1        3.540   2.021  -1.579  0.00  0.00    +0.211 HD
ENDBRANCH  12  14
BRANCH  12  16
ATOM     16  C   LIG    1        4.333   1.960   0.831  0.00  0.00    +0.039 C 
BRANCH  16  17
ATOM     17  C   LIG    1        3.435   3.216   0.745  0.00  0.00    +0.003 C 
BRANCH  17  18
ATOM     18  C   LIG    1        3.878   4.336   1.702  0.00  0.00    -0.000 C 
BRANCH  18  19
ATOM     19  C   LIG    1        2.982   5.584   1.619  0.00  0.00    -0.003 C 
ATOM     20  C   LIG    1        3.422   6.701   2.575  0.00  0.00    +0.004 C 
ENDBRANCH  18  19
ENDBRANCH  17  18
ENDBRANCH  16  17
ENDBRANCH  12  16
ENDBRANCH  11  12
ENDBRANCH   1  10
BRANCH   5  21
ATOM     21  C   LIG    1       -1.817  -0.269   1.263  0.00  0.00    +0.033 C 
BRANCH  21  22
ATOM     22  C   LIG    1       -2.200   1.203   1.301  0.00  0.00    -0.031 C 
ATOM     23  C   LIG    1       -3.365   1.704   1.752  0.00  0.00    -0.031 C 
BRANCH  23  24
ATOM     24  C   LIG    1       -4.539   0.907   2.297  0.00  0.00    +0.027 C 
BRANCH  24  25
ATOM     25  C   LIG    1       -4.790   1.148   3.795  0.00  0.00    +0.015 C 
BRANCH  25  26
ATOM     26  C   LIG    1       -5.975   0.323   4.336  0.00  0.00    +0.121 C 
BRANCH  26  27
ATOM     27  C   LIG    1       -6.217   0.551   5.830  0.00  0.00    +0.305 C 
ATOM     28  O   LIG    1       -5.874  -0.250   6.698  0.00  0.00    -0.251 OA
BRANCH  27  29
ATOM     29  O   LIG    1       -6.851   1.735   6.066  0.00  0.00    -0.481 OA
ATOM     30  H   LIG    1       -7.007   1.885   7.001  0.00  0.00    +0.295 HD
ENDBRANCH  27  29
ENDBRANCH  26  27
ENDBRANCH  25  26
ENDBRANCH  24  25
ENDBRANCH  23  24
ENDBRANCH  21  22
ENDBRANCH   5  21
TORSDOF 16
