REMARK  Name = DB00341
REMARK                            x       y       z     vdW  Elec       q    Type
REMARK                         _______ _______ _______ _____ _____    ______ ____
ROOT
ATOM      1  C   LIG    1       -4.090   0.885   1.392  0.00  0.00    +0.117 C 
ENDROOT
BRANCH   1   6
ATOM      2 CL   LIG    1       -5.977   6.628   1.631  0.00  0.00    -0.084 Cl
ATOM      3  C   LIG    1       -5.432   4.992   1.570  0.00  0.00    +0.041 A 
ATOM      4  C   LIG    1       -4.226   4.641   2.174  0.00  0.00    +0.020 A 
ATOM      5  C   LIG    1       -3.787   3.321   2.124  0.00  0.00    +0.007 A 
ATOM      6  C   LIG    1       -4.553   2.348   1.469  0.00  0.00    -0.026 A 
ATOM      7  C   LIG    1       -5.763   2.711   0.868  0.00  0.00    +0.007 A 
ATOM      8  C   LIG    1       -6.202   4.031   0.918  0.00  0.00    +0.020 A 
ENDBRANCH   1   6
BRANCH   1   9
ATOM      9  C   LIG    1       -4.610   0.122   2.621  0.00  0.00    -0.026 A 
ATOM     10  C   LIG    1       -3.874   0.075   3.813  0.00  0.00    +0.005 A 
ATOM     11  C   LIG    1       -4.364  -0.629   4.910  0.00  0.00    +0.000 A 
ATOM     12  C   LIG    1       -5.589  -1.285   4.817  0.00  0.00    +0.000 A 
ATOM     13  C   LIG    1       -6.330  -1.243   3.638  0.00  0.00    +0.000 A 
ATOM     14  C   LIG    1       -5.840  -0.539   2.541  0.00  0.00    +0.005 A 
ENDBRANCH   1   9
BRANCH   1  15
ATOM     15  N   LIG    1       -2.633   0.726   1.158  0.00  0.00    -0.289 NA
ATOM     16  C   LIG    1       -2.229  -0.689   1.039  0.00  0.00    +0.100 C 
ATOM     17  C   LIG    1       -0.693  -0.803   0.899  0.00  0.00    +0.100 C 
ATOM     18  N   LIG    1       -0.237  -0.104  -0.308  0.00  0.00    -0.298 NA
ATOM     19  C   LIG    1       -0.638   1.307  -0.209  0.00  0.00    +0.100 C 
ATOM     20  C   LIG    1       -2.175   1.420  -0.060  0.00  0.00    +0.100 C 
BRANCH  18  21
ATOM     21  C   LIG    1        1.215  -0.261  -0.450  0.00  0.00    +0.112 C 
BRANCH  21  22
ATOM     22  C   LIG    1        1.752   0.263  -1.796  0.00  0.00    +0.176 C 
BRANCH  22  23
ATOM     23  O   LIG    1        3.096  -0.175  -1.943  0.00  0.00    -0.367 OA
BRANCH  23  24
ATOM     24  C   LIG    1        3.701   0.229  -3.169  0.00  0.00    +0.280 C 
BRANCH  24  25
ATOM     25  C   LIG    1        5.150  -0.277  -3.253  0.00  0.00    +0.331 C 
ATOM     26  O   LIG    1        5.871  -0.030  -4.218  0.00  0.00    -0.248 OA
BRANCH  25  27
ATOM     27  O   LIG    1        5.543  -1.014  -2.172  0.00  0.00    -0.479 OA
ATOM     28  H   LIG    1        6.450  -1.319  -2.247  0.00  0.00    +0.295 HD
ENDBRANCH  25  27
ENDBRANCH  24  25
ENDBRANCH  23  24
ENDBRANCH  22  23
ENDBRANCH  21  22
ENDBRANCH  18  21
ENDBRANCH   1  15
TORSDOF 9
