REMARK  Name = DB00618
REMARK                            x       y       z     vdW  Elec       q    Type
REMARK                         _______ _______ _______ _____ _____    ______ ____
ROOT
ATOM      1  C   LIG    1        2.633  -2.124  -1.384  0.00  0.00    +0.121 C 
ATOM      2  C   LIG    1        2.191  -0.834  -1.298  0.00  0.00    +0.127 C 
ATOM      3  C   LIG    1        1.449  -0.216  -0.095  0.00  0.00    +0.129 C 
ATOM      4  C   LIG    1        2.002  -0.932   1.180  0.00  0.00    +0.061 C 
ATOM      5  C   LIG    1        3.468  -0.533   1.464  0.00  0.00    +0.020 C 
ATOM      6  C   LIG    1        3.980  -1.051   2.828  0.00  0.00    +0.060 C 
ATOM      7  C   LIG    1        5.518  -0.941   2.949  0.00  0.00    +0.154 C 
ATOM      8  C   LIG    1        5.960  -1.384   4.342  0.00  0.00    +0.014 A 
ATOM      9  C   LIG    1        5.266  -2.438   4.996  0.00  0.00    +0.070 A 
ATOM     10  C   LIG    1        5.722  -2.837   6.281  0.00  0.00    +0.128 A 
ATOM     11  C   LIG    1        6.811  -2.212   6.882  0.00  0.00    +0.047 A 
ATOM     12  C   LIG    1        7.479  -1.190   6.232  0.00  0.00    +0.024 A 
ATOM     13  C   LIG    1        4.087  -3.143   4.332  0.00  0.00    +0.197 C 
ATOM     14  O   LIG    1        3.608  -4.168   4.822  0.00  0.00    -0.287 OA
ATOM     15  C   LIG    1        7.064  -0.778   4.973  0.00  0.00    +0.048 A 
ATOM     16 CL   LIG    1        7.967   0.488   4.211  0.00  0.00    -0.083 Cl
ATOM     17  C   LIG    1        3.521  -2.495   3.107  0.00  0.00    +0.046 C 
ATOM     18  C   LIG    1        2.597  -3.125   2.319  0.00  0.00    +0.141 C 
ATOM     19  C   LIG    1        1.866  -2.490   1.097  0.00  0.00    +0.190 C 
ATOM     20  C   LIG    1        2.406  -3.069  -0.250  0.00  0.00    +0.211 C 
ATOM     21  O   LIG    1        2.638  -4.277  -0.364  0.00  0.00    -0.288 OA
ENDROOT
BRANCH   1  22
ATOM     22  C   LIG    1        3.344  -2.544  -2.587  0.00  0.00    +0.248 C 
ATOM     23  N   LIG    1        2.855  -3.624  -3.208  0.00  0.00    -0.325 N 
ATOM     24  H   LIG    1        2.057  -4.113  -2.830  0.00  0.00    +0.145 HD
ATOM     25  H   LIG    1        3.293  -3.963  -4.051  0.00  0.00    +0.145 HD
ATOM     26  O   LIG    1        4.321  -1.941  -3.030  0.00  0.00    -0.270 OA
ENDBRANCH   1  22
BRANCH   3  27
ATOM     27  N   LIG    1       -0.028  -0.229  -0.245  0.00  0.00    -0.299 NA
ATOM     28  C   LIG    1       -0.515   0.289  -1.526  0.00  0.00    +0.105 C 
ATOM     29  C   LIG    1       -0.688   0.545   0.810  0.00  0.00    +0.105 C 
ENDBRANCH   3  27
BRANCH   2  30
ATOM     30  O   LIG    1        2.400   0.137  -2.237  0.00  0.00    -0.509 OA
ATOM     31  H   LIG    1        2.006   0.961  -1.942  0.00  0.00    +0.292 HD
ENDBRANCH   2  30
BRANCH   7  32
ATOM     32  O   LIG    1        6.208  -1.649   1.933  0.00  0.00    -0.387 OA
ATOM     33  H   LIG    1        7.125  -1.364   1.933  0.00  0.00    +0.210 HD
ENDBRANCH   7  32
BRANCH  10  34
ATOM     34  O   LIG    1        5.130  -3.832   7.020  0.00  0.00    -0.506 OA
ATOM     35  H   LIG    1        5.558  -3.976   7.867  0.00  0.00    +0.292 HD
ENDBRANCH  10  34
BRANCH  18  36
ATOM     36  O   LIG    1        2.179  -4.416   2.501  0.00  0.00    -0.507 OA
ATOM     37  H   LIG    1        1.524  -4.634   1.833  0.00  0.00    +0.292 HD
ENDBRANCH  18  36
BRANCH  19  38
ATOM     38  O   LIG    1        0.482  -2.821   1.156  0.00  0.00    -0.373 OA
ATOM     39  H   LIG    1        0.012  -2.262   0.531  0.00  0.00    +0.211 HD
ENDBRANCH  19  38
TORSDOF 7
