REMARK  Name = DB00711
REMARK                            x       y       z     vdW  Elec       q    Type
REMARK                         _______ _______ _______ _____ _____    ______ ____
ROOT
ATOM      1  O   LIG    1        1.907  -0.868   1.046  0.00  0.00    -0.252 OA
ATOM      2  C   LIG    1        1.447   0.006   0.304  0.00  0.00    +0.305 C 
ATOM      3  N   LIG    1        0.132  -0.004  -0.057  0.00  0.00    -0.286 N 
ATOM      4  N   LIG    1        2.228   1.014  -0.180  0.00  0.00    -0.283 N 
ATOM      5  C   LIG    1        3.504   1.308   0.507  0.00  0.00    +0.124 C 
ATOM      6  C   LIG    1        3.854   2.800   0.304  0.00  0.00    +0.103 C 
ATOM      7  N   LIG    1        3.827   3.177  -1.110  0.00  0.00    -0.302 NA
ATOM      8  C   LIG    1        4.209   4.577  -1.265  0.00  0.00    +0.105 C 
ATOM      9  C   LIG    1        2.501   2.949  -1.683  0.00  0.00    +0.103 C 
ATOM     10  C   LIG    1        2.088   1.463  -1.585  0.00  0.00    +0.124 C 
ENDROOT
BRANCH   3  11
ATOM     11  C   LIG    1       -0.687   1.222  -0.019  0.00  0.00    +0.106 C 
ATOM     12  C   LIG    1       -1.334   1.481   1.352  0.00  0.00    +0.024 C 
ENDBRANCH   3  11
BRANCH   3  13
ATOM     13  C   LIG    1       -0.653  -1.252  -0.041  0.00  0.00    +0.106 C 
ATOM     14  C   LIG    1       -0.157  -2.329  -1.022  0.00  0.00    +0.024 C 
ENDBRANCH   3  13
TORSDOF 2
