REMARK  Name = DB00277
REMARK                            x       y       z     vdW  Elec       q    Type
REMARK                         _______ _______ _______ _____ _____    ______ ____
ROOT
ATOM      1  C   LIG    1       -0.046  -0.074   0.000  0.00  0.00    +0.155 C 
ATOM      2  N   LIG    1        1.421   0.030   0.000  0.00  0.00    -0.280 N 
ATOM      3  C   LIG    1        2.024   1.270   0.000  0.00  0.00    +0.333 A 
ATOM      4  O   LIG    1        1.363   2.314   0.000  0.00  0.00    -0.246 OA
ATOM      5  N   LIG    1        3.417   1.243   0.000  0.00  0.00    -0.262 N 
ATOM      6  C   LIG    1        4.097   2.559   0.000  0.00  0.00    +0.157 C 
ATOM      7  C   LIG    1        4.293   0.167   0.000  0.00  0.00    +0.282 A 
ATOM      8  O   LIG    1        5.524   0.255   0.000  0.00  0.00    -0.265 OA
ATOM      9  C   LIG    1        3.543  -1.063   0.000  0.00  0.00    +0.149 A 
ATOM     10  N   LIG    1        3.968  -2.363   0.000  0.00  0.00    -0.339 N 
ATOM     11  H   LIG    1        4.924  -2.691   0.000  0.00  0.00    +0.167 HD
ATOM     12  C   LIG    1        2.827  -3.125   0.000  0.00  0.00    +0.199 A 
ATOM     13  N   LIG    1        1.730  -2.401   0.000  0.00  0.00    -0.218 NA
ATOM     14  C   LIG    1        2.163  -1.146   0.000  0.00  0.00    +0.168 A 
ENDROOT
TORSDOF 0
