REMARK  Name = DB00227
REMARK                            x       y       z     vdW  Elec       q    Type
REMARK                         _______ _______ _______ _____ _____    ______ ____
ROOT
ATOM      1  C   LIG    1        1.520  -0.126   0.361  0.00  0.00    +0.185 C 
ATOM      2  C   LIG    1        1.862  -1.165   1.438  0.00  0.00    +0.052 C 
ATOM      3  C   LIG    1        3.396  -1.322   1.566  0.00  0.00    +0.012 C 
ATOM      4  C   LIG    1        3.783  -2.509   2.464  0.00  0.00    +0.012 C 
ATOM      5  C   LIG    1        4.026  -1.465   0.182  0.00  0.00    -0.020 C 
ATOM      6  C   LIG    1        3.412  -1.178  -0.989  0.00  0.00    -0.044 C 
ATOM      7  C   LIG    1        4.030  -1.566  -2.241  0.00  0.00    -0.000 C 
ATOM      8  C   LIG    1        3.309  -1.772  -3.356  0.00  0.00    -0.023 C 
ATOM      9  C   LIG    1        1.782  -1.660  -3.413  0.00  0.00    +0.012 C 
ATOM     10  C   LIG    1        1.419  -0.494  -4.360  0.00  0.00    +0.012 C 
ATOM     11  C   LIG    1        1.154  -1.551  -1.965  0.00  0.00    +0.007 C 
ATOM     12  C   LIG    1        1.996  -0.568  -1.067  0.00  0.00    +0.063 C 
ENDROOT
BRANCH   1  13
ATOM     13  O   LIG    1        0.161   0.291   0.482  0.00  0.00    -0.461 OA
BRANCH  13  14
ATOM     14  C   LIG    1       -0.270   1.489   0.017  0.00  0.00    +0.310 C 
ATOM     15  O   LIG    1        0.425   2.334  -0.551  0.00  0.00    -0.251 OA
BRANCH  14  16
ATOM     16  C   LIG    1       -1.779   1.686   0.246  0.00  0.00    +0.094 C 
ATOM     17  C   LIG    1       -2.019   2.357   1.615  0.00  0.00    +0.019 C 
BRANCH  16  18
ATOM     18  C   LIG    1       -2.452   2.447  -0.927  0.00  0.00    +0.011 C 
ATOM     19  C   LIG    1       -3.983   2.537  -0.830  0.00  0.00    +0.004 C 
ENDBRANCH  16  18
ENDBRANCH  14  16
ENDBRANCH  13  14
ENDBRANCH   1  13
BRANCH  11  20
ATOM     20  C   LIG    1       -0.376  -1.286  -1.995  0.00  0.00    +0.008 C 
BRANCH  20  21
ATOM     21  C   LIG    1       -1.219  -2.291  -2.813  0.00  0.00    +0.045 C 
BRANCH  21  22
ATOM     22  C   LIG    1       -2.720  -1.938  -2.884  0.00  0.00    +0.179 C 
ATOM     23  C   LIG    1       -3.045  -0.781  -3.872  0.00  0.00    +0.076 C 
ATOM     24  C   LIG    1       -4.435  -0.151  -3.625  0.00  0.00    +0.129 C 
ATOM     25  C   LIG    1       -5.333  -1.032  -2.739  0.00  0.00    +0.152 C 
ATOM     26  C   LIG    1       -4.599  -1.400  -1.441  0.00  0.00    +0.310 C 
ATOM     27  O   LIG    1       -5.046  -1.333  -0.298  0.00  0.00    -0.251 OA
ATOM     28  O   LIG    1       -3.298  -1.794  -1.576  0.00  0.00    -0.461 OA
BRANCH  24  29
ATOM     29  O   LIG    1       -5.094   0.156  -4.836  0.00  0.00    -0.391 OA
ATOM     30  H   LIG    1       -5.367   1.075  -4.811  0.00  0.00    +0.210 HD
ENDBRANCH  24  29
ENDBRANCH  21  22
ENDBRANCH  20  21
ENDBRANCH  11  20
TORSDOF 8
