REMARK  Name = DB00181
REMARK                            x       y       z     vdW  Elec       q    Type
REMARK                         _______ _______ _______ _____ _____    ______ ____
ROOT
ATOM      1  C   LIG    1       -0.057   0.179   0.091  0.00  0.00    +0.043 C 
ENDROOT
BRANCH   1   6
ATOM      2 CL   LIG    1       -1.871  -3.112   4.829  0.00  0.00    -0.084 Cl
ATOM      3  C   LIG    1       -1.351  -2.172   3.478  0.00  0.00    +0.041 A 
ATOM      4  C   LIG    1       -0.676  -0.972   3.689  0.00  0.00    +0.020 A 
ATOM      5  C   LIG    1       -0.258  -0.214   2.598  0.00  0.00    +0.005 A 
ATOM      6  C   LIG    1       -0.514  -0.655   1.295  0.00  0.00    -0.042 A 
ATOM      7  C   LIG    1       -1.191  -1.863   1.093  0.00  0.00    +0.005 A 
ATOM      8  C   LIG    1       -1.610  -2.620   2.184  0.00  0.00    +0.020 A 
ENDBRANCH   1   6
BRANCH   1   9
ATOM      9  C   LIG    1       -0.742   1.571   0.042  0.00  0.00    +0.086 C 
BRANCH   9  10
ATOM     10  N   LIG    1       -2.188   1.461  -0.048  0.00  0.00    -0.329 NA
ATOM     11  H   LIG    1       -2.601   2.383  -0.053  0.00  0.00    +0.118 HD
ATOM     12  H   LIG    1       -2.543   0.992   0.773  0.00  0.00    +0.118 HD
ENDBRANCH   9  10
ENDBRANCH   1   9
BRANCH   1  13
ATOM     13  C   LIG    1        1.495   0.277   0.047  0.00  0.00    +0.129 C 
BRANCH  13  14
ATOM     14  C   LIG    1        2.093   0.745  -1.290  0.00  0.00    +0.305 C 
ATOM     15  O   LIG    1        1.442   0.913  -2.320  0.00  0.00    -0.251 OA
BRANCH  14  16
ATOM     16  O   LIG    1        3.440   0.931  -1.186  0.00  0.00    -0.481 OA
ATOM     17  H   LIG    1        3.832   1.218  -2.014  0.00  0.00    +0.295 HD
ENDBRANCH  14  16
ENDBRANCH  13  14
ENDBRANCH   1  13
TORSDOF 6
