REMARK  Name = DB00701
REMARK                            x       y       z     vdW  Elec       q    Type
REMARK                         _______ _______ _______ _____ _____    ______ ____
ROOT
ATOM      1  C   LIG    1        1.875  -1.465   0.265  0.00  0.00    +0.151 C 
ENDROOT
BRANCH   1   2
ATOM      2  O   LIG    1        1.257  -1.849  -0.952  0.00  0.00    -0.389 OA
ATOM      3  H   LIG    1        1.532  -1.239  -1.640  0.00  0.00    +0.210 HD
ENDBRANCH   1   2
BRANCH   1   4
ATOM      4  C   LIG    1        1.384  -0.042   0.641  0.00  0.00    +0.142 C 
BRANCH   4   5
ATOM      5  N   LIG    1       -0.095   0.147   0.625  0.00  0.00    -0.174 NA
BRANCH   5   6
ATOM      6  S   LIG    1       -0.674   1.780   0.249  0.00  0.00    +0.061 S 
ATOM      7  O   LIG    1       -2.139   1.737   0.155  0.00  0.00    -0.153 OA
ATOM      8  O   LIG    1        0.125   2.303  -0.866  0.00  0.00    -0.153 OA
BRANCH   6   9
ATOM      9  C   LIG    1       -0.254   2.740   1.701  0.00  0.00    +0.106 A 
ATOM     10  C   LIG    1        1.007   3.334   1.797  0.00  0.00    +0.030 A 
ATOM     11  C   LIG    1        1.348   4.055   2.938  0.00  0.00    +0.024 A 
ATOM     12  C   LIG    1        0.428   4.179   3.979  0.00  0.00    +0.025 A 
ATOM     13  C   LIG    1       -0.831   3.585   3.886  0.00  0.00    +0.024 A 
ATOM     14  C   LIG    1       -1.173   2.862   2.747  0.00  0.00    +0.030 A 
BRANCH  12  15
ATOM     15  N   LIG    1        0.770   4.901   5.122  0.00  0.00    -0.358 N 
ATOM     16  H   LIG    1        0.094   5.003   5.865  0.00  0.00    +0.142 HD
ATOM     17  H   LIG    1        1.681   5.332   5.183  0.00  0.00    +0.142 HD
ENDBRANCH  12  15
ENDBRANCH   6   9
ENDBRANCH   5   6
BRANCH   5  18
ATOM     18  C   LIG    1       -0.900  -0.651   1.592  0.00  0.00    +0.112 C 
BRANCH  18  19
ATOM     19  C   LIG    1       -1.500  -1.943   0.986  0.00  0.00    -0.001 C 
ATOM     20  C   LIG    1       -2.412  -2.639   2.011  0.00  0.00    +0.008 C 
ATOM     21  C   LIG    1       -2.250  -1.710  -0.342  0.00  0.00    +0.008 C 
ENDBRANCH  18  19
ENDBRANCH   5  18
ENDBRANCH   4   5
ENDBRANCH   1   4
BRANCH   1  22
ATOM     22  C   LIG    1        3.426  -1.578   0.129  0.00  0.00    +0.110 C 
BRANCH  22  23
ATOM     23  N   LIG    1        4.120  -0.823   1.183  0.00  0.00    -0.275 N 
ATOM     24  H   LIG    1        3.641  -0.683   2.061  0.00  0.00    +0.152 HD
ATOM     25  C   LIG    1        5.405  -0.319   1.049  0.00  0.00    +0.401 C 
ATOM     26  O   LIG    1        6.130  -0.425   0.057  0.00  0.00    -0.226 OA
BRANCH  25  27
ATOM     27  O   LIG    1        5.743   0.323   2.188  0.00  0.00    -0.445 OA
BRANCH  27  28
ATOM     28  C   LIG    1        6.998   0.992   2.331  0.00  0.00    +0.206 C 
ATOM     29  C   LIG    1        8.043   0.043   2.920  0.00  0.00    +0.204 C 
ATOM     30  O   LIG    1        7.890   0.193   4.324  0.00  0.00    -0.376 OA
ATOM     31  C   LIG    1        7.615   1.564   4.598  0.00  0.00    +0.163 C 
ATOM     32  C   LIG    1        6.881   2.101   3.365  0.00  0.00    +0.075 C 
ENDBRANCH  27  28
ENDBRANCH  25  27
ENDBRANCH  22  23
BRANCH  22  33
ATOM     33  C   LIG    1        3.953  -3.039   0.024  0.00  0.00    +0.060 C 
BRANCH  33  34
ATOM     34  C   LIG    1        3.626  -3.745  -1.285  0.00  0.00    -0.046 A 
ATOM     35  C   LIG    1        4.288  -3.374  -2.459  0.00  0.00    +0.004 A 
ATOM     36  C   LIG    1        3.987  -4.013  -3.659  0.00  0.00    +0.000 A 
ATOM     37  C   LIG    1        3.028  -5.023  -3.681  0.00  0.00    +0.000 A 
ATOM     38  C   LIG    1        2.366  -5.401  -2.514  0.00  0.00    +0.000 A 
ATOM     39  C   LIG    1        2.667  -4.762  -1.313  0.00  0.00    +0.004 A 
ENDBRANCH  33  34
ENDBRANCH  22  33
ENDBRANCH   1  22
TORSDOF 14
