REMARK  Name = DB00982
REMARK                            x       y       z     vdW  Elec       q    Type
REMARK                         _______ _______ _______ _____ _____    ______ ____
ROOT
ATOM      1  C   LIG    1       -0.017  -0.027  -0.444  0.00  0.00    -0.050 C 
ATOM      2  C   LIG    1       -0.615  -1.428  -0.491  0.00  0.00    +0.044 C 
ATOM      3  C   LIG    1       -0.765   1.095  -0.295  0.00  0.00    +0.003 C 
ENDROOT
BRANCH   1   5
ATOM      4  C   LIG    1        2.195   0.882   0.261  0.00  0.00    +0.004 C 
ATOM      5  C   LIG    1        1.436   0.075  -0.510  0.00  0.00    +0.003 C 
BRANCH   4   7
ATOM      6  C   LIG    1        4.242   2.384  -0.137  0.00  0.00    -0.010 C 
ATOM      7  C   LIG    1        3.654   0.976   0.176  0.00  0.00    -0.043 C 
ATOM      8  C   LIG    1        4.450  -0.117   0.392  0.00  0.00    -0.069 C 
ATOM      9  C   LIG    1        5.975  -0.077   0.272  0.00  0.00    +0.031 C 
ATOM     10  C   LIG    1        6.537   1.341   0.406  0.00  0.00    +0.005 C 
ATOM     11  C   LIG    1        3.922  -1.512   0.729  0.00  0.00    +0.039 C 
ATOM     12  C   LIG    1        5.757   2.300  -0.493  0.00  0.00    +0.011 C 
ATOM     13  C   LIG    1        3.522   2.980  -1.375  0.00  0.00    +0.016 C 
ATOM     14  C   LIG    1        4.068   3.262   1.127  0.00  0.00    +0.016 C 
ENDBRANCH   4   7
ENDBRANCH   1   5
BRANCH   3  15
ATOM     15  C   LIG    1       -2.215   1.168  -0.200  0.00  0.00    +0.001 C 
ATOM     16  C   LIG    1       -2.874   2.330  -0.017  0.00  0.00    +0.003 C 
BRANCH  16  17
ATOM     17  C   LIG    1       -4.333   2.473   0.084  0.00  0.00    -0.044 C 
ATOM     18  C   LIG    1       -5.217   1.243  -0.103  0.00  0.00    +0.044 C 
ATOM     19  C   LIG    1       -4.963   3.655   0.324  0.00  0.00    +0.094 C 
BRANCH  19  20
ATOM     20  C   LIG    1       -4.372   4.957   0.564  0.00  0.00    +0.330 C 
ATOM     21  O   LIG    1       -3.229   5.172   0.961  0.00  0.00    -0.246 OA
BRANCH  20  22
ATOM     22  O   LIG    1       -5.279   5.952   0.345  0.00  0.00    -0.478 OA
ATOM     23  H   LIG    1       -4.913   6.822   0.518  0.00  0.00    +0.295 HD
ENDBRANCH  20  22
ENDBRANCH  19  20
ENDBRANCH  16  17
ENDBRANCH   3  15
TORSDOF 6
