REMARK  Name = DB00374
REMARK                            x       y       z     vdW  Elec       q    Type
REMARK                         _______ _______ _______ _____ _____    ______ ____
ROOT
ATOM      1  C   LIG    1       -3.622   4.728  -1.269  0.00  0.00    -0.040 A 
ATOM      2  C   LIG    1       -2.768   3.465  -1.251  0.00  0.00    +0.039 C 
ATOM      3  C   LIG    1       -2.729   2.857   0.177  0.00  0.00    +0.002 C 
ATOM      4  C   LIG    1       -2.168   1.415   0.232  0.00  0.00    +0.021 C 
ATOM      5  C   LIG    1       -2.940   0.741   1.379  0.00  0.00    +0.118 C 
ATOM      6  C   LIG    1       -4.307   1.424   1.449  0.00  0.00    +0.035 C 
ATOM      7  C   LIG    1       -4.103   2.850   0.913  0.00  0.00    -0.000 C 
ATOM      8  C   LIG    1       -5.276   3.386   0.053  0.00  0.00    +0.043 C 
ATOM      9  C   LIG    1       -4.873   4.698  -0.624  0.00  0.00    -0.002 A 
ATOM     10  C   LIG    1       -5.679   5.851  -0.605  0.00  0.00    +0.125 A 
ATOM     11  C   LIG    1       -5.228   7.017  -1.245  0.00  0.00    +0.046 A 
ATOM     12  C   LIG    1       -3.993   7.041  -1.883  0.00  0.00    +0.004 A 
ATOM     13  C   LIG    1       -3.194   5.903  -1.891  0.00  0.00    +0.004 A 
ENDROOT
BRANCH   5  14
ATOM     14  O   LIG    1       -2.986  -0.672   1.383  0.00  0.00    -0.391 OA
ATOM     15  H   LIG    1       -3.351  -0.966   0.545  0.00  0.00    +0.210 HD
ENDBRANCH   5  14
BRANCH   4  16
ATOM     16  C   LIG    1       -0.625   1.400   0.374  0.00  0.00    +0.009 C 
BRANCH  16  17
ATOM     17  C   LIG    1        0.012  -0.006   0.319  0.00  0.00    +0.032 C 
BRANCH  17  18
ATOM     18  C   LIG    1        1.557  -0.001   0.279  0.00  0.00    +0.115 C 
BRANCH  18  19
ATOM     19  O   LIG    1        2.065   0.627   1.442  0.00  0.00    -0.392 OA
ATOM     20  H   LIG    1        1.786   0.119   2.208  0.00  0.00    +0.210 HD
ENDBRANCH  18  19
BRANCH  18  21
ATOM     21  C   LIG    1        2.142  -1.426   0.160  0.00  0.00    +0.031 C 
BRANCH  21  22
ATOM     22  C   LIG    1        3.675  -1.470  -0.011  0.00  0.00    +0.002 C 
BRANCH  22  23
ATOM     23  C   LIG    1        4.220  -2.902  -0.156  0.00  0.00    -0.000 C 
BRANCH  23  24
ATOM     24  C   LIG    1        5.748  -2.950  -0.326  0.00  0.00    -0.003 C 
ATOM     25  C   LIG    1        6.292  -4.380  -0.448  0.00  0.00    +0.004 C 
ENDBRANCH  23  24
ENDBRANCH  22  23
ENDBRANCH  21  22
ENDBRANCH  18  21
ENDBRANCH  17  18
ENDBRANCH  16  17
ENDBRANCH   4  16
BRANCH  10  26
ATOM     26  O   LIG    1       -6.893   5.767   0.055  0.00  0.00    -0.481 OA
BRANCH  26  27
ATOM     27  C   LIG    1       -7.724   6.922   0.160  0.00  0.00    +0.349 C 
BRANCH  27  28
ATOM     28  C   LIG    1       -8.941   6.582   1.026  0.00  0.00    +0.343 C 
ATOM     29  O   LIG    1       -9.137   5.483   1.542  0.00  0.00    -0.247 OA
BRANCH  28  30
ATOM     30  O   LIG    1       -9.771   7.657   1.149  0.00  0.00    -0.478 OA
ATOM     31  H   LIG    1      -10.539   7.464   1.691  0.00  0.00    +0.295 HD
ENDBRANCH  28  30
ENDBRANCH  27  28
ENDBRANCH  26  27
ENDBRANCH  10  26
TORSDOF 13
