REMARK  Name = DB00255
REMARK                            x       y       z     vdW  Elec       q    Type
REMARK                         _______ _______ _______ _____ _____    ______ ____
ROOT
ATOM      1  C   LIG    1        1.423   0.037   0.005  0.00  0.00    -0.037 C 
ATOM      2  C   LIG    1        2.178  -0.671   0.893  0.00  0.00    -0.037 C 
ENDROOT
BRANCH   1   3
ATOM      3  C   LIG    1       -0.057   0.051   0.059  0.00  0.00    -0.021 A 
ATOM      4  C   LIG    1       -0.731   1.221   0.421  0.00  0.00    +0.012 A 
ATOM      5  C   LIG    1       -2.123   1.246   0.447  0.00  0.00    +0.046 A 
ATOM      6  C   LIG    1       -2.842   0.105   0.099  0.00  0.00    +0.117 A 
ATOM      7  C   LIG    1       -2.179  -1.062  -0.278  0.00  0.00    +0.046 A 
ATOM      8  C   LIG    1       -0.787  -1.087  -0.303  0.00  0.00    +0.012 A 
BRANCH   6   9
ATOM      9  O   LIG    1       -4.211   0.131   0.124  0.00  0.00    -0.507 OA
ATOM     10  H   LIG    1       -4.606  -0.705  -0.136  0.00  0.00    +0.292 HD
ENDBRANCH   6   9
ENDBRANCH   1   3
BRANCH   2  11
ATOM     11  C   LIG    1        3.658  -0.680   0.845  0.00  0.00    -0.021 A 
ATOM     12  C   LIG    1        4.340  -1.851   0.500  0.00  0.00    +0.012 A 
ATOM     13  C   LIG    1        5.732  -1.870   0.485  0.00  0.00    +0.046 A 
ATOM     14  C   LIG    1        6.444  -0.721   0.826  0.00  0.00    +0.117 A 
ATOM     15  C   LIG    1        5.772   0.446   1.184  0.00  0.00    +0.046 A 
ATOM     16  C   LIG    1        4.380   0.465   1.198  0.00  0.00    +0.012 A 
BRANCH  14  17
ATOM     17  O   LIG    1        7.813  -0.741   0.812  0.00  0.00    -0.507 OA
ATOM     18  H   LIG    1        8.201   0.100   1.062  0.00  0.00    +0.292 HD
ENDBRANCH  14  17
ENDBRANCH   2  11
BRANCH   1  19
ATOM     19  C   LIG    1        2.008   0.866  -1.147  0.00  0.00    +0.032 C 
ATOM     20  C   LIG    1        1.639   0.347  -2.546  0.00  0.00    +0.009 C 
ENDBRANCH   1  19
BRANCH   2  21
ATOM     21  C   LIG    1        1.591  -1.502   2.044  0.00  0.00    +0.032 C 
ATOM     22  C   LIG    1        1.962  -0.988   3.444  0.00  0.00    +0.009 C 
ENDBRANCH   2  21
TORSDOF 6
