REMARK  Name = DB00651
REMARK                            x       y       z     vdW  Elec       q    Type
REMARK                         _______ _______ _______ _____ _____    ______ ____
ROOT
ATOM      1  N   LIG    1       -0.700   1.379  -0.116  0.00  0.00    -0.322 N 
ATOM      2  C   LIG    1       -1.142   2.145  -1.171  0.00  0.00    +0.202 A 
ATOM      3  N   LIG    1       -1.524   3.351  -0.827  0.00  0.00    -0.218 NA
ATOM      4  C   LIG    1       -1.350   3.386   0.485  0.00  0.00    +0.168 A 
ATOM      5  N   LIG    1       -1.606   4.434   1.360  0.00  0.00    -0.280 N 
ATOM      6  C   LIG    1       -2.160   5.696   0.845  0.00  0.00    +0.155 C 
ATOM      7  C   LIG    1       -1.335   4.341   2.707  0.00  0.00    +0.333 A 
ATOM      8  N   LIG    1       -0.859   3.102   3.123  0.00  0.00    -0.262 N 
ATOM      9  C   LIG    1       -0.652   2.970   4.586  0.00  0.00    +0.157 C 
ATOM     10  C   LIG    1       -0.612   1.947   2.394  0.00  0.00    +0.282 A 
ATOM     11  O   LIG    1       -0.242   0.878   2.885  0.00  0.00    -0.265 OA
ATOM     12  O   LIG    1       -1.506   5.299   3.470  0.00  0.00    -0.246 OA
ATOM     13  C   LIG    1       -0.850   2.195   0.987  0.00  0.00    +0.152 A 
ENDROOT
BRANCH   1  14
ATOM     14  C   LIG    1       -0.201   0.007  -0.191  0.00  0.00    +0.157 C 
BRANCH  14  15
ATOM     15  C   LIG    1        1.318  -0.079   0.090  0.00  0.00    +0.159 C 
BRANCH  15  16
ATOM     16  O   LIG    1        1.668  -1.449   0.110  0.00  0.00    -0.388 OA
ATOM     17  H   LIG    1        2.612  -1.517   0.278  0.00  0.00    +0.210 HD
ENDBRANCH  15  16
BRANCH  15  18
ATOM     18  C   LIG    1        2.186   0.651  -0.961  0.00  0.00    +0.188 C 
BRANCH  18  19
ATOM     19  O   LIG    1        3.543   0.694  -0.565  0.00  0.00    -0.392 OA
ATOM     20  H   LIG    1        4.044   1.163  -1.236  0.00  0.00    +0.210 HD
ENDBRANCH  18  19
ENDBRANCH  15  18
ENDBRANCH  14  15
ENDBRANCH   1  14
TORSDOF 5
