REMARK  Name = DB00450
REMARK                            x       y       z     vdW  Elec       q    Type
REMARK                         _______ _______ _______ _____ _____    ______ ____
ROOT
ATOM      1  N   LIG    1       -0.590   1.158  -0.068  0.00  0.00    -0.298 NA
ATOM      2  C   LIG    1       -2.051   0.976  -0.042  0.00  0.00    +0.113 C 
ATOM      3  C   LIG    1       -2.672   0.629  -1.392  0.00  0.00    +0.010 C 
ATOM      4  C   LIG    1       -2.011   0.843  -2.551  0.00  0.00    +0.027 C 
ATOM      5  C   LIG    1       -0.599   1.432  -2.576  0.00  0.00    +0.069 C 
ATOM      6  C   LIG    1       -0.224   2.037  -1.193  0.00  0.00    +0.091 C 
ENDROOT
BRANCH   4   7
ATOM      7  N   LIG    1       -2.557   0.475  -3.748  0.00  0.00    -0.265 N 
ATOM      8  C   LIG    1       -3.591   1.137  -4.342  0.00  0.00    +0.332 A 
ATOM      9  N   LIG    1       -3.799   0.476  -5.501  0.00  0.00    -0.306 N 
ATOM     10  H   LIG    1       -4.507   0.733  -6.174  0.00  0.00    +0.170 HD
ATOM     11  C   LIG    1       -2.931  -0.577  -5.651  0.00  0.00    +0.067 A 
ATOM     12  C   LIG    1       -2.776  -1.521  -6.664  0.00  0.00    +0.028 A 
ATOM     13  C   LIG    1       -1.781  -2.494  -6.518  0.00  0.00    +0.002 A 
ATOM     14  C   LIG    1       -0.968  -2.509  -5.376  0.00  0.00    +0.002 A 
ATOM     15  C   LIG    1       -1.141  -1.551  -4.371  0.00  0.00    +0.028 A 
ATOM     16  O   LIG    1       -4.210   2.122  -3.936  0.00  0.00    -0.246 OA
ATOM     17  C   LIG    1       -2.137  -0.584  -4.536  0.00  0.00    +0.074 A 
ENDBRANCH   4   7
BRANCH   1  18
ATOM     18  C   LIG    1        0.094  -0.146  -0.049  0.00  0.00    +0.085 C 
BRANCH  18  19
ATOM     19  C   LIG    1        1.634  -0.057   0.003  0.00  0.00    +0.023 C 
BRANCH  19  20
ATOM     20  C   LIG    1        2.182   0.720   1.222  0.00  0.00    +0.081 C 
BRANCH  20  21
ATOM     21  C   LIG    1        3.720   0.789   1.318  0.00  0.00    +0.163 C 
ATOM     22  O   LIG    1        4.408   0.271   0.435  0.00  0.00    -0.292 OA
BRANCH  21  27
ATOM     23  F   LIG    1        6.036   3.372   5.776  0.00  0.00    -0.205 F 
ATOM     24  C   LIG    1        5.475   2.754   4.712  0.00  0.00    +0.123 A 
ATOM     25  C   LIG    1        6.285   2.140   3.763  0.00  0.00    +0.039 A 
ATOM     26  C   LIG    1        5.707   1.505   2.666  0.00  0.00    +0.014 A 
ATOM     27  C   LIG    1        4.313   1.478   2.512  0.00  0.00    +0.018 A 
ATOM     28  C   LIG    1        3.510   2.103   3.479  0.00  0.00    +0.014 A 
ATOM     29  C   LIG    1        4.090   2.738   4.574  0.00  0.00    +0.039 A 
ENDBRANCH  21  27
ENDBRANCH  20  21
ENDBRANCH  19  20
ENDBRANCH  18  19
ENDBRANCH   1  18
TORSDOF 6
