REMARK  Name = DB00332
REMARK                            x       y       z     vdW  Elec       q    Type
REMARK                         _______ _______ _______ _____ _____    ______ ____
ROOT
ATOM      1  O   LIG    1        0.110   0.390   0.332  0.00  0.00    -0.461 OA
ENDROOT
BRANCH   1   2
ATOM      2  C   LIG    1        1.494   0.038   0.357  0.00  0.00    +0.173 C 
ATOM      3  C   LIG    1        1.942  -0.510  -1.039  0.00  0.00    +0.030 C 
ATOM      4  C   LIG    1        1.862  -2.057  -1.200  0.00  0.00    -0.062 C 
ATOM      5  C   LIG    1        0.407  -2.553  -1.035  0.00  0.00    -0.016 C 
ATOM      6  C   LIG    1        0.247  -2.829   0.465  0.00  0.00    -0.016 C 
ATOM      7  C   LIG    1        1.621  -2.486   1.089  0.00  0.00    -0.062 C 
ATOM      8  N   LIG    1        2.648  -2.772  -0.053  0.00  0.00    +0.384 N 
ATOM      9  C   LIG    1        2.746  -4.308  -0.330  0.00  0.00    -0.091 C 
ATOM     10  C   LIG    1        1.680  -0.989   1.516  0.00  0.00    +0.030 C 
BRANCH   8  11
ATOM     11  C   LIG    1        4.106  -2.221   0.203  0.00  0.00    -0.071 C 
ATOM     12  C   LIG    1        4.753  -2.822   1.474  0.00  0.00    -0.013 C 
ATOM     13  C   LIG    1        5.021  -2.365  -1.036  0.00  0.00    -0.013 C 
ENDBRANCH   8  11
ENDBRANCH   1   2
BRANCH   1  14
ATOM     14  C   LIG    1       -0.330   1.549  -0.209  0.00  0.00    +0.317 C 
ATOM     15  O   LIG    1        0.383   2.442  -0.674  0.00  0.00    -0.250 OA
BRANCH  14  16
ATOM     16  C   LIG    1       -1.870   1.648  -0.183  0.00  0.00    +0.153 C 
BRANCH  16  17
ATOM     17  C   LIG    1       -2.425   0.671  -1.227  0.00  0.00    -0.032 A 
ATOM     18  C   LIG    1       -2.366   0.963  -2.596  0.00  0.00    +0.004 A 
ATOM     19  C   LIG    1       -2.863   0.053  -3.526  0.00  0.00    +0.000 A 
ATOM     20  C   LIG    1       -3.417  -1.147  -3.089  0.00  0.00    +0.000 A 
ATOM     21  C   LIG    1       -3.480  -1.447  -1.731  0.00  0.00    +0.000 A 
ATOM     22  C   LIG    1       -2.984  -0.538  -0.800  0.00  0.00    +0.004 A 
ENDBRANCH  16  17
BRANCH  16  23
ATOM     23  C   LIG    1       -2.427   3.086  -0.355  0.00  0.00    +0.175 C 
BRANCH  23  24
ATOM     24  O   LIG    1       -2.067   3.914   0.734  0.00  0.00    -0.394 OA
ATOM     25  H   LIG    1       -1.127   4.098   0.679  0.00  0.00    +0.209 HD
ENDBRANCH  23  24
ENDBRANCH  16  23
ENDBRANCH  14  16
ENDBRANCH   1  14
TORSDOF 7
