REMARK  Name = DB00592
REMARK                            x       y       z     vdW  Elec       q    Type
REMARK                         _______ _______ _______ _____ _____    ______ ____
ROOT
ATOM      1  N   LIG    1       -0.803  -0.891  -4.976  0.00  0.00    -0.314 NA
ATOM      2  H   LIG    1       -0.990  -0.664  -4.010  0.00  0.00    +0.122 HD
ATOM      3  C   LIG    1        0.601  -0.627  -5.290  0.00  0.00    +0.096 C 
ATOM      4  C   LIG    1        0.924  -1.011  -6.754  0.00  0.00    +0.096 C 
ATOM      5  N   LIG    1        0.611  -2.417  -7.008  0.00  0.00    -0.314 NA
ATOM      6  H   LIG    1        0.799  -2.644  -7.974  0.00  0.00    +0.122 HD
ATOM      7  C   LIG    1       -0.793  -2.680  -6.695  0.00  0.00    +0.096 C 
ATOM      8  C   LIG    1       -1.115  -2.297  -5.230  0.00  0.00    +0.096 C 
ENDROOT
TORSDOF 0
