REMARK  Name = DB00427
REMARK                            x       y       z     vdW  Elec       q    Type
REMARK                         _______ _______ _______ _____ _____    ______ ____
ROOT
ATOM      1  C   LIG    1        1.505  -0.200   0.388  0.00  0.00    -0.001 C 
ATOM      2  C   LIG    1        2.196  -1.119  -0.333  0.00  0.00    +0.005 C 
ENDROOT
BRANCH   2   3
ATOM      3  C   LIG    1        1.494  -2.194  -1.077  0.00  0.00    -0.016 A 
ATOM      4  C   LIG    1        1.581  -2.251  -2.472  0.00  0.00    +0.009 A 
ATOM      5  C   LIG    1        0.935  -3.264  -3.175  0.00  0.00    +0.004 A 
ATOM      6  C   LIG    1        0.197  -4.228  -2.485  0.00  0.00    -0.050 A 
ATOM      7  C   LIG    1       -0.497  -5.342  -3.247  0.00  0.00    +0.044 C 
ATOM      8  C   LIG    1        0.115  -4.182  -1.092  0.00  0.00    +0.004 A 
ATOM      9  C   LIG    1        0.761  -3.168  -0.391  0.00  0.00    +0.009 A 
ENDBRANCH   2   3
BRANCH   2  10
ATOM     10  C   LIG    1        3.693  -1.107  -0.406  0.00  0.00    +0.071 A 
ATOM     11  C   LIG    1        4.426  -2.254  -0.760  0.00  0.00    +0.028 A 
ATOM     12  C   LIG    1        5.819  -2.191  -0.814  0.00  0.00    +0.004 A 
ATOM     13  C   LIG    1        6.466  -0.993  -0.514  0.00  0.00    +0.020 A 
ATOM     14  C   LIG    1        5.687   0.109  -0.166  0.00  0.00    +0.111 A 
ATOM     15  N   LIG    1        4.333   0.063  -0.109  0.00  0.00    -0.255 NA
ENDBRANCH   2  10
BRANCH   1  16
ATOM     16  C   LIG    1       -0.009  -0.074   0.513  0.00  0.00    +0.112 C 
BRANCH  16  17
ATOM     17  N   LIG    1       -0.539   1.240   0.147  0.00  0.00    -0.299 NA
ATOM     18  C   LIG    1       -0.125   2.334   1.017  0.00  0.00    +0.085 C 
ATOM     19  C   LIG    1       -1.091   3.483   0.714  0.00  0.00    +0.017 C 
ATOM     20  C   LIG    1       -2.335   2.789   0.151  0.00  0.00    +0.017 C 
ATOM     21  C   LIG    1       -1.992   1.299   0.212  0.00  0.00    +0.085 C 
ENDBRANCH  16  17
ENDBRANCH   1  16
TORSDOF 4
