REMARK  Name = DB00525
REMARK                            x       y       z     vdW  Elec       q    Type
REMARK                         _______ _______ _______ _____ _____    ______ ____
ROOT
ATOM      1  S   LIG    1       -2.623  -0.743   0.172  0.00  0.00    +0.007 S 
ATOM      2  C   LIG    1       -0.945  -0.870  -0.001  0.00  0.00    +0.240 C 
ENDROOT
BRANCH   2   3
ATOM      3  N   LIG    1       -0.045   0.181  -0.015  0.00  0.00    -0.268 N 
ATOM      4  C   LIG    1       -0.511   1.573   0.123  0.00  0.00    +0.139 C 
BRANCH   3   5
ATOM      5  C   LIG    1        1.349   0.006  -0.020  0.00  0.00    +0.037 A 
ATOM      6  C   LIG    1        2.026  -0.185  -1.230  0.00  0.00    +0.023 A 
ATOM      7  C   LIG    1        3.410  -0.350  -1.233  0.00  0.00    +0.002 A 
ATOM      8  C   LIG    1        4.121  -0.326  -0.032  0.00  0.00    +0.003 A 
ATOM      9  C   LIG    1        3.450  -0.134   1.180  0.00  0.00    -0.049 A 
ATOM     10  C   LIG    1        4.218  -0.103   2.489  0.00  0.00    +0.044 C 
ATOM     11  C   LIG    1        2.063   0.040   1.183  0.00  0.00    +0.027 A 
ENDBRANCH   3   5
ENDBRANCH   2   3
BRANCH   2  12
ATOM     12  O   LIG    1       -0.236  -2.085  -0.162  0.00  0.00    -0.435 OA
BRANCH  12  13
ATOM     13  C   LIG    1       -0.838  -3.325  -0.105  0.00  0.00    +0.131 A 
ATOM     14  C   LIG    1       -1.084  -4.021  -1.286  0.00  0.00    +0.047 A 
ATOM     15  C   LIG    1       -1.665  -5.286  -1.259  0.00  0.00    +0.012 A 
ATOM     16  C   LIG    1       -2.006  -5.891  -0.024  0.00  0.00    -0.018 A 
ATOM     17  C   LIG    1       -2.600  -7.176   0.040  0.00  0.00    +0.008 A 
ATOM     18  C   LIG    1       -2.920  -7.743   1.271  0.00  0.00    +0.001 A 
ATOM     19  C   LIG    1       -2.662  -7.057   2.454  0.00  0.00    +0.001 A 
ATOM     20  C   LIG    1       -2.080  -5.793   2.427  0.00  0.00    +0.008 A 
ATOM     21  C   LIG    1       -1.742  -5.187   1.191  0.00  0.00    -0.014 A 
ATOM     22  C   LIG    1       -1.149  -3.902   1.128  0.00  0.00    +0.054 A 
ENDBRANCH  12  13
ENDBRANCH   2  12
TORSDOF 4
