REMARK  Name = DB00339
REMARK                            x       y       z     vdW  Elec       q    Type
REMARK                         _______ _______ _______ _____ _____    ______ ____
ROOT
ATOM      1  C   LIG    1       -0.016  -0.026   0.082  0.00  0.00    +0.143 A 
ATOM      2  C   LIG    1       -0.718   1.180  -0.083  0.00  0.00    +0.143 A 
ATOM      3  N   LIG    1       -2.075   1.219  -0.153  0.00  0.00    -0.259 NA
ATOM      4  C   LIG    1       -2.737   0.037  -0.057  0.00  0.00    +0.130 A 
ATOM      5  C   LIG    1       -2.053  -1.169   0.107  0.00  0.00    +0.131 A 
ATOM      6  N   LIG    1       -0.697  -1.208   0.178  0.00  0.00    -0.247 NA
ENDROOT
BRANCH   1   8
ATOM      7  O   LIG    1        2.150   0.998   0.073  0.00  0.00    -0.269 OA
ATOM      8  C   LIG    1        1.495  -0.040   0.158  0.00  0.00    +0.261 C 
ATOM      9  N   LIG    1        2.094  -1.226   0.320  0.00  0.00    -0.324 N 
ATOM     10  H   LIG    1        3.101  -1.283   0.375  0.00  0.00    +0.145 HD
ATOM     11  H   LIG    1        1.543  -2.069   0.389  0.00  0.00    +0.145 HD
ENDBRANCH   1   8
TORSDOF 1
