REMARK  Name = DB00297
REMARK                            x       y       z     vdW  Elec       q    Type
REMARK                         _______ _______ _______ _____ _____    ______ ____
ROOT
ATOM      1  C   LIG    1        0.518  -0.043   2.485  0.00  0.00    +0.234 C 
ATOM      2  O   LIG    1        0.730   1.164   2.628  0.00  0.00    -0.274 OA
ATOM      3  N   LIG    1        0.798  -0.960   3.435  0.00  0.00    -0.284 N 
ATOM      4  H   LIG    1        0.456  -1.900   3.300  0.00  0.00    +0.155 HD
ENDROOT
BRANCH   3   5
ATOM      5  C   LIG    1        1.397  -0.693   4.681  0.00  0.00    +0.039 A 
ATOM      6  C   LIG    1        2.697  -0.148   4.790  0.00  0.00    -0.029 A 
ATOM      7  C   LIG    1        3.577   0.136   3.576  0.00  0.00    +0.045 C 
ATOM      8  C   LIG    1        3.235   0.091   6.058  0.00  0.00    +0.005 A 
ATOM      9  C   LIG    1        2.512  -0.216   7.207  0.00  0.00    +0.001 A 
ATOM     10  C   LIG    1        1.242  -0.775   7.101  0.00  0.00    +0.005 A 
ATOM     11  C   LIG    1        0.678  -1.024   5.847  0.00  0.00    -0.029 A 
ATOM     12  C   LIG    1       -0.721  -1.630   5.781  0.00  0.00    +0.045 C 
ENDBRANCH   3   5
BRANCH   1  15
ATOM     13  C   LIG    1       -2.438   0.623   1.194  0.00  0.00    +0.003 C 
ATOM     14  C   LIG    1       -1.682  -0.703   1.397  0.00  0.00    +0.028 C 
ATOM     15  C   LIG    1       -0.143  -0.598   1.187  0.00  0.00    +0.143 C 
ATOM     16  N   LIG    1        0.211   0.193  -0.018  0.00  0.00    -0.291 NA
ATOM     17  C   LIG    1       -0.496   1.466  -0.226  0.00  0.00    +0.085 C 
ATOM     18  C   LIG    1       -2.022   1.292  -0.122  0.00  0.00    +0.015 C 
BRANCH  16  19
ATOM     19  C   LIG    1        1.638   0.243  -0.372  0.00  0.00    +0.085 C 
BRANCH  19  20
ATOM     20  C   LIG    1        1.925  -0.567  -1.652  0.00  0.00    +0.015 C 
BRANCH  20  21
ATOM     21  C   LIG    1        1.222  -0.043  -2.921  0.00  0.00    -0.002 C 
ATOM     22  C   LIG    1        1.625  -0.808  -4.189  0.00  0.00    +0.004 C 
ENDBRANCH  20  21
ENDBRANCH  19  20
ENDBRANCH  16  19
ENDBRANCH   1  15
TORSDOF 5
