REMARK  Name = DB00836
REMARK                            x       y       z     vdW  Elec       q    Type
REMARK                         _______ _______ _______ _____ _____    ______ ____
ROOT
ATOM      1  C   LIG    1        1.608   0.051   0.255  0.00  0.00    +0.098 C 
ENDROOT
BRANCH   1   2
ATOM      2  C   LIG    1        1.935  -1.471   0.058  0.00  0.00    -0.028 A 
ATOM      3  C   LIG    1        1.307  -2.191  -0.977  0.00  0.00    +0.005 A 
ATOM      4  C   LIG    1        1.565  -3.543  -1.178  0.00  0.00    +0.000 A 
ATOM      5  C   LIG    1        2.463  -4.203  -0.348  0.00  0.00    +0.000 A 
ATOM      6  C   LIG    1        3.108  -3.517   0.675  0.00  0.00    +0.000 A 
ATOM      7  C   LIG    1        2.847  -2.164   0.874  0.00  0.00    +0.005 A 
ENDBRANCH   1   2
BRANCH   1   8
ATOM      8  C   LIG    1        2.222   0.702   1.548  0.00  0.00    -0.028 A 
ATOM      9  C   LIG    1        1.961   0.114   2.799  0.00  0.00    +0.005 A 
ATOM     10  C   LIG    1        2.444   0.672   3.978  0.00  0.00    +0.000 A 
ATOM     11  C   LIG    1        3.187   1.846   3.929  0.00  0.00    +0.000 A 
ATOM     12  C   LIG    1        3.438   2.469   2.712  0.00  0.00    +0.000 A 
ATOM     13  C   LIG    1        2.952   1.908   1.534  0.00  0.00    +0.005 A 
ENDBRANCH   1   8
BRANCH   1  14
ATOM     14  C   LIG    1        2.058   0.779  -1.079  0.00  0.00    +0.230 C 
ATOM     15  N   LIG    1        3.357   0.767  -1.502  0.00  0.00    -0.307 N 
ATOM     16  C   LIG    1        4.496   0.178  -0.794  0.00  0.00    +0.131 C 
ATOM     17  C   LIG    1        3.763   1.347  -2.788  0.00  0.00    +0.131 C 
ATOM     18  O   LIG    1        1.196   1.347  -1.757  0.00  0.00    -0.274 OA
ENDBRANCH   1  14
BRANCH   1  19
ATOM     19  C   LIG    1        0.039   0.169   0.416  0.00  0.00    +0.041 C 
BRANCH  19  20
ATOM     20  C   LIG    1       -0.521   1.560   0.830  0.00  0.00    +0.086 C 
BRANCH  20  24
ATOM     21  C   LIG    1       -4.576   2.930  -0.333  0.00  0.00    +0.093 C 
ATOM     22  C   LIG    1       -4.050   2.905   1.136  0.00  0.00    +0.055 C 
ATOM     23  C   LIG    1       -2.521   2.810   1.318  0.00  0.00    +0.087 C 
ATOM     24  N   LIG    1       -1.949   1.712   0.537  0.00  0.00    -0.302 NA
ATOM     25  C   LIG    1       -2.192   1.952  -0.889  0.00  0.00    +0.087 C 
ATOM     26  C   LIG    1       -3.700   1.979  -1.210  0.00  0.00    +0.055 C 
BRANCH  21  31
ATOM     27 CL   LIG    1      -10.409   1.257  -0.145  0.00  0.00    -0.084 Cl
ATOM     28  C   LIG    1       -8.749   1.728  -0.210  0.00  0.00    +0.041 A 
ATOM     29  C   LIG    1       -8.416   3.052  -0.482  0.00  0.00    +0.020 A 
ATOM     30  C   LIG    1       -7.078   3.432  -0.532  0.00  0.00    +0.008 A 
ATOM     31  C   LIG    1       -6.058   2.490  -0.331  0.00  0.00    -0.016 A 
ATOM     32  C   LIG    1       -6.415   1.166  -0.030  0.00  0.00    +0.008 A 
ATOM     33  C   LIG    1       -7.752   0.784   0.020  0.00  0.00    +0.020 A 
ENDBRANCH  21  31
BRANCH  21  34
ATOM     34  O   LIG    1       -4.322   4.245  -0.810  0.00  0.00    -0.384 OA
ATOM     35  H   LIG    1       -4.458   4.861  -0.086  0.00  0.00    +0.211 HD
ENDBRANCH  21  34
ENDBRANCH  20  24
ENDBRANCH  19  20
ENDBRANCH   1  19
TORSDOF 8
