REMARK  Name = DB00962
REMARK                            x       y       z     vdW  Elec       q    Type
REMARK                         _______ _______ _______ _____ _____    ______ ____
ROOT
ATOM      1  C   LIG    1        1.538  -0.122  -0.054  0.00  0.00    +0.037 A 
ATOM      2  C   LIG    1        2.142  -0.685  -1.181  0.00  0.00    +0.023 A 
ATOM      3  C   LIG    1        3.497  -1.005  -1.158  0.00  0.00    +0.002 A 
ATOM      4  C   LIG    1        4.253  -0.764  -0.010  0.00  0.00    +0.010 A 
ATOM      5  C   LIG    1        3.673  -0.197   1.134  0.00  0.00    +0.002 A 
ATOM      6  C   LIG    1        2.303   0.102   1.100  0.00  0.00    +0.033 A 
ENDROOT
BRANCH   5   7
ATOM      7  C   LIG    1        4.504   0.046   2.354  0.00  0.00    +0.076 A 
ATOM      8  C   LIG    1        5.456  -0.874   2.802  0.00  0.00    +0.048 A 
ATOM      9  C   LIG    1        6.176  -0.590   3.961  0.00  0.00    +0.115 A 
ATOM     10  N   LIG    1        6.018   0.542   4.696  0.00  0.00    -0.235 NA
ATOM     11  C   LIG    1        5.116   1.435   4.264  0.00  0.00    +0.174 A 
ATOM     12  C   LIG    1        4.699   2.704   4.745  0.00  0.00    +0.115 A 
ATOM     13  C   LIG    1        3.742   3.110   3.816  0.00  0.00    +0.156 A 
ATOM     14  N   LIG    1        3.533   2.251   2.841  0.00  0.00    -0.172 NA
ATOM     15  N   LIG    1        4.352   1.200   3.102  0.00  0.00    -0.213 N 
BRANCH  12  16
ATOM     16  C   LIG    1        5.159   3.422   5.921  0.00  0.00    +0.104 C 
ATOM     17  N   LIG    1        5.524   3.993   6.858  0.00  0.00    -0.191 NA
ENDBRANCH  12  16
ENDBRANCH   5   7
BRANCH   1  21
ATOM     18  O   LIG    1       -1.466   1.643   0.559  0.00  0.00    -0.276 OA
ATOM     19  C   LIG    1       -0.308   1.423   0.199  0.00  0.00    +0.217 C 
ATOM     20  C   LIG    1        0.616   2.636   0.017  0.00  0.00    +0.109 C 
ATOM     21  N   LIG    1        0.159   0.173  -0.089  0.00  0.00    -0.272 N 
BRANCH  21  22
ATOM     22  C   LIG    1       -0.758  -0.980  -0.023  0.00  0.00    +0.110 C 
ATOM     23  C   LIG    1       -0.769  -1.697   1.338  0.00  0.00    +0.025 C 
ENDBRANCH  21  22
ENDBRANCH   1  21
TORSDOF 4
