REMARK  Name = DB00428
REMARK                            x       y       z     vdW  Elec       q    Type
REMARK                         _______ _______ _______ _____ _____    ______ ____
ROOT
ATOM      1  O   LIG    1        3.303   0.044   1.609  0.00  0.00    -0.341 OA
ATOM      2  C   LIG    1        1.897   0.004   1.630  0.00  0.00    +0.270 C 
ATOM      3  C   LIG    1        1.331  -0.087   0.194  0.00  0.00    +0.161 C 
ATOM      4  C   LIG    1        1.980  -1.273  -0.565  0.00  0.00    +0.171 C 
ATOM      5  C   LIG    1        3.519  -1.246  -0.452  0.00  0.00    +0.176 C 
ATOM      6  C   LIG    1        3.950  -1.099   1.028  0.00  0.00    +0.178 C 
ENDROOT
BRANCH   3   7
ATOM      7  N   LIG    1       -0.138  -0.074   0.112  0.00  0.00    -0.288 N 
ATOM      8  H   LIG    1       -0.578  -0.970  -0.040  0.00  0.00    +0.151 HD
ATOM      9  C   LIG    1       -0.926   1.016   0.225  0.00  0.00    +0.324 C 
ATOM     10  N   LIG    1       -2.249   0.761   0.090  0.00  0.00    -0.144 N 
ATOM     11  C   LIG    1       -3.085   1.655  -0.732  0.00  0.00    +0.166 C 
ATOM     12  O   LIG    1       -0.473   2.158   0.326  0.00  0.00    -0.251 OA
BRANCH  10  13
ATOM     13  N   LIG    1       -2.794  -0.217   0.906  0.00  0.00    +0.052 NA
ATOM     14  O   LIG    1       -3.996  -0.365   0.822  0.00  0.00    -0.126 OA
ENDBRANCH  10  13
ENDBRANCH   3   7
BRANCH   5  15
ATOM     15  O   LIG    1        4.102  -2.390  -1.054  0.00  0.00    -0.387 OA
ATOM     16  H   LIG    1        3.697  -3.174  -0.675  0.00  0.00    +0.210 HD
ENDBRANCH   5  15
BRANCH   4  17
ATOM     17  O   LIG    1        1.549  -1.325  -1.915  0.00  0.00    -0.387 OA
ATOM     18  H   LIG    1        1.848  -0.531  -2.363  0.00  0.00    +0.210 HD
ENDBRANCH   4  17
BRANCH   2  19
ATOM     19  O   LIG    1        1.398  -1.028   2.394  0.00  0.00    -0.365 OA
ATOM     20  H   LIG    1        1.647  -0.866   3.307  0.00  0.00    +0.213 HD
ENDBRANCH   2  19
BRANCH   6  21
ATOM     21  C   LIG    1        5.474  -0.916   1.192  0.00  0.00    +0.190 C 
BRANCH  21  22
ATOM     22  O   LIG    1        5.839  -0.927   2.557  0.00  0.00    -0.392 OA
ATOM     23  H   LIG    1        6.788  -0.797   2.622  0.00  0.00    +0.210 HD
ENDBRANCH  21  22
ENDBRANCH   6  21
TORSDOF 7
