REMARK  Name = DB00163
REMARK                            x       y       z     vdW  Elec       q    Type
REMARK                         _______ _______ _______ _____ _____    ______ ____
ROOT
ATOM      1  O   LIG    1       -4.664  -1.724  -1.318  0.00  0.00    -0.485 OA
ATOM      2  C   LIG    1       -6.010  -1.730  -0.969  0.00  0.00    +0.128 A 
ATOM      3  C   LIG    1       -6.381  -2.635   0.037  0.00  0.00    -0.002 A 
ATOM      4  C   LIG    1       -5.349  -3.615   0.603  0.00  0.00    +0.048 C 
ATOM      5  C   LIG    1       -7.705  -2.643   0.507  0.00  0.00    -0.002 A 
ATOM      6  C   LIG    1       -8.122  -3.603   1.625  0.00  0.00    +0.048 C 
ATOM      7  C   LIG    1       -8.639  -1.748  -0.039  0.00  0.00    +0.123 A 
ATOM      8  C   LIG    1       -8.262  -0.846  -1.048  0.00  0.00    -0.002 A 
ATOM      9  C   LIG    1       -9.296   0.105  -1.658  0.00  0.00    +0.048 C 
ATOM     10  C   LIG    1       -6.939  -0.823  -1.521  0.00  0.00    +0.001 A 
ATOM     11  C   LIG    1       -6.486   0.129  -2.635  0.00  0.00    +0.043 C 
ATOM     12  C   LIG    1       -4.955   0.221  -2.694  0.00  0.00    +0.052 C 
ATOM     13  C   LIG    1       -4.297  -1.181  -2.595  0.00  0.00    +0.108 C 
ATOM     14  C   LIG    1       -4.782  -2.132  -3.721  0.00  0.00    +0.055 C 
ENDROOT
BRANCH   7  15
ATOM     15  O   LIG    1       -9.937  -1.757   0.417  0.00  0.00    -0.506 OA
ATOM     16  H   LIG    1      -10.085  -2.415   1.100  0.00  0.00    +0.292 HD
ENDBRANCH   7  15
BRANCH  13  17
ATOM     17  C   LIG    1       -2.748  -1.066  -2.575  0.00  0.00    +0.048 C 
BRANCH  17  18
ATOM     18  C   LIG    1       -2.128  -0.230  -1.432  0.00  0.00    +0.004 C 
BRANCH  18  19
ATOM     19  C   LIG    1       -0.587  -0.310  -1.405  0.00  0.00    +0.003 C 
BRANCH  19  20
ATOM     20  C   LIG    1        0.079   0.334  -0.160  0.00  0.00    -0.014 C 
ATOM     21  C   LIG    1       -0.256   1.834  -0.024  0.00  0.00    +0.007 C 
BRANCH  20  22
ATOM     22  C   LIG    1        1.615   0.125  -0.127  0.00  0.00    +0.003 C 
BRANCH  22  23
ATOM     23  C   LIG    1        2.072  -1.348  -0.080  0.00  0.00    +0.001 C 
BRANCH  23  24
ATOM     24  C   LIG    1        3.590  -1.503   0.158  0.00  0.00    +0.003 C 
BRANCH  24  25
ATOM     25  C   LIG    1        4.132  -2.955   0.097  0.00  0.00    -0.014 C 
ATOM     26  C   LIG    1        4.008  -3.559  -1.318  0.00  0.00    +0.007 C 
BRANCH  25  27
ATOM     27  C   LIG    1        3.515  -3.862   1.193  0.00  0.00    +0.003 C 
BRANCH  27  28
ATOM     28  C   LIG    1        4.190  -5.240   1.343  0.00  0.00    +0.001 C 
BRANCH  28  29
ATOM     29  C   LIG    1        3.599  -6.074   2.498  0.00  0.00    +0.003 C 
BRANCH  29  30
ATOM     30  C   LIG    1        4.270  -7.452   2.712  0.00  0.00    -0.017 C 
ATOM     31  C   LIG    1        3.785  -8.103   4.020  0.00  0.00    +0.007 C 
ATOM     32  C   LIG    1        4.067  -8.410   1.521  0.00  0.00    +0.007 C 
ENDBRANCH  29  30
ENDBRANCH  28  29
ENDBRANCH  27  28
ENDBRANCH  25  27
ENDBRANCH  24  25
ENDBRANCH  23  24
ENDBRANCH  22  23
ENDBRANCH  20  22
ENDBRANCH  19  20
ENDBRANCH  18  19
ENDBRANCH  17  18
ENDBRANCH  13  17
TORSDOF 13
