REMARK  Name = DB00737
REMARK                            x       y       z     vdW  Elec       q    Type
REMARK                         _______ _______ _______ _____ _____    ______ ____
ROOT
ATOM      1  C   LIG    1        1.461  -0.159   0.121  0.00  0.00    +0.117 C 
ENDROOT
BRANCH   1   6
ATOM      2 CL   LIG    1        3.717  -5.761   0.477  0.00  0.00    -0.084 Cl
ATOM      3  C   LIG    1        3.069  -4.164   0.386  0.00  0.00    +0.041 A 
ATOM      4  C   LIG    1        1.902  -3.851   1.080  0.00  0.00    +0.020 A 
ATOM      5  C   LIG    1        1.379  -2.563   1.004  0.00  0.00    +0.007 A 
ATOM      6  C   LIG    1        2.021  -1.585   0.233  0.00  0.00    -0.026 A 
ATOM      7  C   LIG    1        3.192  -1.911  -0.458  0.00  0.00    +0.007 A 
ATOM      8  C   LIG    1        3.716  -3.199  -0.382  0.00  0.00    +0.020 A 
ENDBRANCH   1   6
BRANCH   1   9
ATOM      9  C   LIG    1        2.045   0.711   1.245  0.00  0.00    -0.026 A 
ATOM     10  C   LIG    1        1.433   0.780   2.504  0.00  0.00    +0.005 A 
ATOM     11  C   LIG    1        1.975   1.584   3.502  0.00  0.00    +0.000 A 
ATOM     12  C   LIG    1        3.130   2.319   3.244  0.00  0.00    +0.000 A 
ATOM     13  C   LIG    1        3.747   2.256   1.997  0.00  0.00    +0.000 A 
ATOM     14  C   LIG    1        3.205   1.452   0.999  0.00  0.00    +0.005 A 
ENDBRANCH   1   9
BRANCH   1  15
ATOM     15  N   LIG    1       -0.020  -0.098   0.020  0.00  0.00    -0.289 NA
ATOM     16  C   LIG    1       -0.539  -0.891  -1.111  0.00  0.00    +0.100 C 
ATOM     17  C   LIG    1       -2.085  -0.866  -1.131  0.00  0.00    +0.100 C 
ATOM     18  N   LIG    1       -2.565   0.514  -1.293  0.00  0.00    -0.296 NA
ATOM     19  C   LIG    1       -2.065   1.307  -0.164  0.00  0.00    +0.100 C 
ATOM     20  C   LIG    1       -0.518   1.282  -0.139  0.00  0.00    +0.100 C 
BRANCH  18  21
ATOM     21  C   LIG    1       -4.029   0.582  -1.342  0.00  0.00    +0.119 C 
BRANCH  21  22
ATOM     22  C   LIG    1       -4.589   0.033  -2.649  0.00  0.00    -0.033 A 
ATOM     23  C   LIG    1       -5.148  -1.248  -2.694  0.00  0.00    +0.005 A 
ATOM     24  C   LIG    1       -5.612  -1.769  -3.902  0.00  0.00    +0.001 A 
ATOM     25  C   LIG    1       -5.508  -1.019  -5.073  0.00  0.00    +0.003 A 
ATOM     26  C   LIG    1       -4.938   0.257  -5.041  0.00  0.00    -0.050 A 
ATOM     27  C   LIG    1       -4.800   1.069  -6.316  0.00  0.00    +0.044 C 
ATOM     28  C   LIG    1       -4.473   0.775  -3.829  0.00  0.00    +0.008 A 
ENDBRANCH  21  22
ENDBRANCH  18  21
ENDBRANCH   1  15
TORSDOF 5
