REMARK  Name = DB00955
REMARK                            x       y       z     vdW  Elec       q    Type
REMARK                         _______ _______ _______ _____ _____    ______ ____
ROOT
ATOM      1  C   LIG    1       -0.101   0.158   0.395  0.00  0.00    +0.169 C 
ATOM      2  C   LIG    1       -0.529  -0.655  -0.861  0.00  0.00    +0.087 C 
ATOM      3  C   LIG    1       -2.049  -0.946  -0.838  0.00  0.00    +0.042 C 
ATOM      4  C   LIG    1       -2.481  -1.685   0.441  0.00  0.00    +0.084 C 
ATOM      5  C   LIG    1       -2.089  -0.874   1.700  0.00  0.00    +0.170 C 
ATOM      6  C   LIG    1       -0.581  -0.509   1.712  0.00  0.00    +0.175 C 
ENDROOT
BRANCH   4   7
ATOM      7  N   LIG    1       -3.889  -2.040   0.409  0.00  0.00    -0.325 NA
ATOM      8  H   LIG    1       -4.129  -2.549   1.249  0.00  0.00    +0.119 HD
ATOM      9  H   LIG    1       -4.071  -2.658  -0.369  0.00  0.00    +0.119 HD
ENDBRANCH   4   7
BRANCH   2  10
ATOM     10  N   LIG    1       -0.035  -0.123  -2.133  0.00  0.00    -0.311 NA
ATOM     11  H   LIG    1       -0.058  -0.839  -2.845  0.00  0.00    +0.122 HD
BRANCH  10  12
ATOM     12  C   LIG    1       -0.691   1.090  -2.606  0.00  0.00    +0.078 C 
ATOM     13  C   LIG    1        0.053   1.617  -3.838  0.00  0.00    +0.020 C 
ENDBRANCH  10  12
ENDBRANCH   2  10
BRANCH   6  14
ATOM     14  O   LIG    1       -0.301   0.331   2.817  0.00  0.00    -0.387 OA
ATOM     15  H   LIG    1       -0.769   1.160   2.697  0.00  0.00    +0.210 HD
ENDBRANCH   6  14
BRANCH   5  16
ATOM     16  O   LIG    1       -2.398  -1.663   2.855  0.00  0.00    -0.333 OA
BRANCH  16  17
ATOM     17  C   LIG    1       -3.180  -1.054   3.841  0.00  0.00    +0.324 C 
ATOM     18  C   LIG    1       -3.229  -2.018   5.048  0.00  0.00    +0.124 C 
ATOM     19  C   LIG    1       -4.062  -1.367   6.176  0.00  0.00    +0.055 C 
ATOM     20  C   LIG    1       -5.331  -0.784   5.587  0.00  0.00    +0.017 C 
ATOM     21  C   LIG    1       -5.458  -0.556   4.262  0.00  0.00    +0.111 C 
ATOM     22  O   LIG    1       -4.473  -0.755   3.336  0.00  0.00    -0.465 OA
BRANCH  18  23
ATOM     23  N   LIG    1       -3.676  -3.364   4.718  0.00  0.00    -0.322 NA
ATOM     24  H   LIG    1       -3.059  -3.765   4.026  0.00  0.00    +0.119 HD
ATOM     25  H   LIG    1       -4.595  -3.321   4.301  0.00  0.00    +0.119 HD
ENDBRANCH  18  23
BRANCH  21  26
ATOM     26  C   LIG    1       -6.690  -0.022   3.542  0.00  0.00    +0.152 C 
BRANCH  26  27
ATOM     27  N   LIG    1       -7.857   0.250   4.363  0.00  0.00    -0.324 NA
ATOM     28  H   LIG    1       -7.622   0.920   5.082  0.00  0.00    +0.119 HD
ATOM     29  H   LIG    1       -8.152  -0.595   4.831  0.00  0.00    +0.119 HD
ENDBRANCH  26  27
ENDBRANCH  21  26
ENDBRANCH  16  17
ENDBRANCH   5  16
BRANCH   1  30
ATOM     30  O   LIG    1        1.330   0.251   0.421  0.00  0.00    -0.341 OA
BRANCH  30  31
ATOM     31  C   LIG    1        1.893   1.489   0.074  0.00  0.00    +0.281 C 
ATOM     32  O   LIG    1        1.767   2.417   1.124  0.00  0.00    -0.346 OA
ATOM     33  C   LIG    1        2.568   2.138   2.279  0.00  0.00    +0.199 C 
ATOM     34  C   LIG    1        4.076   1.979   1.985  0.00  0.00    +0.104 C 
ATOM     35  C   LIG    1        4.830   1.643   3.292  0.00  0.00    +0.045 C 
ATOM     36  C   LIG    1        4.254   0.908   0.868  0.00  0.00    +0.121 C 
ATOM     37  C   LIG    1        3.360   1.272  -0.346  0.00  0.00    +0.190 C 
BRANCH  36  38
ATOM     38  N   LIG    1        5.647   0.663   0.472  0.00  0.00    -0.311 NA
ATOM     39  H   LIG    1        5.710   0.572  -0.533  0.00  0.00    +0.122 HD
ATOM     40  C   LIG    1        6.255  -0.484   1.132  0.00  0.00    +0.101 C 
ENDBRANCH  36  38
BRANCH  34  41
ATOM     41  O   LIG    1        4.573   3.240   1.561  0.00  0.00    -0.385 OA
ATOM     42  H   LIG    1        5.528   3.178   1.490  0.00  0.00    +0.210 HD
ENDBRANCH  34  41
BRANCH  37  43
ATOM     43  O   LIG    1        3.424   0.312  -1.388  0.00  0.00    -0.385 OA
ATOM     44  H   LIG    1        3.310  -0.560  -1.003  0.00  0.00    +0.210 HD
ENDBRANCH  37  43
ENDBRANCH  30  31
ENDBRANCH   1  30
TORSDOF 14
