REMARK  Name = DB00676
REMARK                            x       y       z     vdW  Elec       q    Type
REMARK                         _______ _______ _______ _____ _____    ______ ____
ROOT
ATOM      1  O   LIG    1        0.171   0.197   0.000  0.00  0.00    -0.456 OA
ENDROOT
BRANCH   1   2
ATOM      2  C   LIG    1       -0.427   1.415   0.000  0.00  0.00    +0.339 C 
ATOM      3  O   LIG    1        0.197   2.480   0.000  0.00  0.00    -0.245 OA
BRANCH   2   4
ATOM      4  C   LIG    1       -1.927   1.337   0.000  0.00  0.00    +0.059 A 
ATOM      5  C   LIG    1       -2.673   2.525   0.000  0.00  0.00    +0.015 A 
ATOM      6  C   LIG    1       -4.065   2.486   0.000  0.00  0.00    +0.001 A 
ATOM      7  C   LIG    1       -4.722   1.260   0.000  0.00  0.00    +0.000 A 
ATOM      8  C   LIG    1       -3.998   0.071   0.000  0.00  0.00    +0.001 A 
ATOM      9  C   LIG    1       -2.607   0.107   0.000  0.00  0.00    +0.015 A 
ENDBRANCH   2   4
ENDBRANCH   1   2
BRANCH   1  10
ATOM     10  C   LIG    1        1.588   0.075   0.000  0.00  0.00    +0.268 C 
BRANCH  10  11
ATOM     11  C   LIG    1        1.966  -1.394   0.000  0.00  0.00    -0.010 A 
ATOM     12  C   LIG    1        2.137  -2.068   1.212  0.00  0.00    +0.007 A 
ATOM     13  C   LIG    1        2.482  -3.418   1.211  0.00  0.00    +0.000 A 
ATOM     14  C   LIG    1        2.652  -4.086   0.000  0.00  0.00    +0.000 A 
ATOM     15  C   LIG    1        2.482  -3.418  -1.211  0.00  0.00    +0.000 A 
ATOM     16  C   LIG    1        2.137  -2.068  -1.211  0.00  0.00    +0.007 A 
ENDBRANCH  10  11
ENDBRANCH   1  10
TORSDOF 4
