REMARK  Name = DB00243
REMARK                            x       y       z     vdW  Elec       q    Type
REMARK                         _______ _______ _______ _____ _____    ______ ____
ROOT
ATOM      1  N   LIG    1       -0.313   1.499   0.452  0.00  0.00    -0.297 NA
ATOM      2  C   LIG    1       -1.502   1.479   1.315  0.00  0.00    +0.100 C 
ATOM      3  C   LIG    1       -2.164   2.879   1.355  0.00  0.00    +0.100 C 
ATOM      4  N   LIG    1       -2.586   3.277   0.005  0.00  0.00    -0.292 NA
ATOM      5  C   LIG    1       -1.389   3.309  -0.855  0.00  0.00    +0.100 C 
ATOM      6  C   LIG    1       -0.721   1.915  -0.899  0.00  0.00    +0.100 C 
ENDROOT
BRANCH   1   7
ATOM      7  C   LIG    1        0.319   0.172   0.448  0.00  0.00    +0.119 C 
BRANCH   7   8
ATOM      8  C   LIG    1        1.732   0.148  -0.190  0.00  0.00    +0.166 C 
BRANCH   8   9
ATOM      9  O   LIG    1        2.601   0.992   0.544  0.00  0.00    -0.387 OA
ATOM     10  H   LIG    1        2.185   1.854   0.623  0.00  0.00    +0.210 HD
ENDBRANCH   8   9
BRANCH   8  11
ATOM     11  C   LIG    1        2.334  -1.270  -0.214  0.00  0.00    +0.261 C 
BRANCH  11  12
ATOM     12  O   LIG    1        1.571  -2.076  -1.109  0.00  0.00    -0.486 OA
BRANCH  12  13
ATOM     13  C   LIG    1        1.921  -3.399  -1.314  0.00  0.00    +0.162 A 
ATOM     14  C   LIG    1        3.018  -4.021  -0.692  0.00  0.00    +0.049 A 
ATOM     15  C   LIG    1        3.313  -5.359  -0.946  0.00  0.00    +0.004 A 
ATOM     16  C   LIG    1        2.520  -6.092  -1.822  0.00  0.00    +0.004 A 
ATOM     17  C   LIG    1        1.430  -5.488  -2.446  0.00  0.00    +0.049 A 
ATOM     18  C   LIG    1        1.120  -4.139  -2.199  0.00  0.00    +0.161 A 
BRANCH  18  19
ATOM     19  O   LIG    1        0.054  -3.478  -2.785  0.00  0.00    -0.491 OA
ATOM     20  C   LIG    1       -0.796  -4.180  -3.686  0.00  0.00    +0.277 C 
ENDBRANCH  18  19
ENDBRANCH  12  13
ENDBRANCH  11  12
ENDBRANCH   8  11
ENDBRANCH   7   8
ENDBRANCH   1   7
BRANCH   4  21
ATOM     21  C   LIG    1       -3.265   4.582   0.043  0.00  0.00    +0.180 C 
BRANCH  21  22
ATOM     22  C   LIG    1       -4.050   4.837  -1.260  0.00  0.00    +0.231 C 
ATOM     23  N   LIG    1       -3.959   6.087  -1.760  0.00  0.00    -0.284 N 
ATOM     24  H   LIG    1       -3.300   6.720  -1.331  0.00  0.00    +0.155 HD
ATOM     25  O   LIG    1       -4.703   3.932  -1.787  0.00  0.00    -0.274 OA
BRANCH  23  26
ATOM     26  C   LIG    1       -4.579   6.543  -2.939  0.00  0.00    +0.039 A 
ATOM     27  C   LIG    1       -5.984   6.564  -3.094  0.00  0.00    -0.029 A 
ATOM     28  C   LIG    1       -6.946   6.157  -1.982  0.00  0.00    +0.045 C 
ATOM     29  C   LIG    1       -6.534   7.031  -4.292  0.00  0.00    +0.005 A 
ATOM     30  C   LIG    1       -5.715   7.485  -5.321  0.00  0.00    +0.001 A 
ATOM     31  C   LIG    1       -4.333   7.487  -5.161  0.00  0.00    +0.005 A 
ATOM     32  C   LIG    1       -3.755   7.026  -3.975  0.00  0.00    -0.029 A 
ATOM     33  C   LIG    1       -2.234   7.038  -3.852  0.00  0.00    +0.045 C 
ENDBRANCH  23  26
ENDBRANCH  21  22
ENDBRANCH   4  21
TORSDOF 10
