REMARK  Name = DB00874
REMARK                            x       y       z     vdW  Elec       q    Type
REMARK                         _______ _______ _______ _____ _____    ______ ____
ROOT
ATOM      1  O   LIG    1        0.011   0.189   0.028  0.00  0.00    -0.486 OA
ENDROOT
BRANCH   1   2
ATOM      2  C   LIG    1       -0.563   1.449   0.015  0.00  0.00    +0.162 A 
ATOM      3  C   LIG    1        0.180   2.643   0.041  0.00  0.00    +0.049 A 
ATOM      4  C   LIG    1       -0.461   3.879   0.027  0.00  0.00    +0.004 A 
ATOM      5  C   LIG    1       -1.850   3.942  -0.012  0.00  0.00    +0.004 A 
ATOM      6  C   LIG    1       -2.599   2.767  -0.039  0.00  0.00    +0.049 A 
ATOM      7  C   LIG    1       -1.965   1.512  -0.027  0.00  0.00    +0.161 A 
BRANCH   7   8
ATOM      8  O   LIG    1       -2.649   0.309  -0.056  0.00  0.00    -0.491 OA
ATOM      9  C   LIG    1       -4.072   0.312  -0.097  0.00  0.00    +0.277 C 
ENDBRANCH   7   8
ENDBRANCH   1   2
BRANCH   1  10
ATOM     10  C   LIG    1        1.430   0.057   0.085  0.00  0.00    +0.262 C 
BRANCH  10  11
ATOM     11  C   LIG    1        1.813  -1.435   0.103  0.00  0.00    +0.177 C 
BRANCH  11  12
ATOM     12  O   LIG    1        1.393  -1.996   1.335  0.00  0.00    -0.386 OA
ATOM     13  H   LIG    1        1.645  -2.923   1.345  0.00  0.00    +0.210 HD
ENDBRANCH  11  12
BRANCH  11  14
ATOM     14  C   LIG    1        3.334  -1.653  -0.052  0.00  0.00    +0.190 C 
BRANCH  14  15
ATOM     15  O   LIG    1        3.640  -3.021  -0.242  0.00  0.00    -0.392 OA
ATOM     16  H   LIG    1        4.591  -3.111  -0.343  0.00  0.00    +0.210 HD
ENDBRANCH  14  15
ENDBRANCH  11  14
ENDBRANCH  10  11
ENDBRANCH   1  10
TORSDOF 7
