REMARK  Name = DB00302
REMARK                            x       y       z     vdW  Elec       q    Type
REMARK                         _______ _______ _______ _____ _____    ______ ____
ROOT
ATOM      1  C   LIG    1       -2.077  -0.804   1.252  0.00  0.00    +0.015 C 
ATOM      2  C   LIG    1       -2.619  -1.484  -0.034  0.00  0.00    +0.098 C 
ATOM      3  C   LIG    1       -2.088  -0.805  -1.327  0.00  0.00    +0.015 C 
ATOM      4  C   LIG    1       -0.544  -0.782  -1.302  0.00  0.00    +0.005 C 
ATOM      5  C   LIG    1       -0.008  -0.048  -0.047  0.00  0.00    +0.003 C 
ATOM      6  C   LIG    1       -0.534  -0.777   1.211  0.00  0.00    +0.005 C 
ENDROOT
BRANCH   2   7
ATOM      7  C   LIG    1       -4.162  -1.480  -0.001  0.00  0.00    +0.308 C 
ATOM      8  O   LIG    1       -4.866  -0.745  -0.692  0.00  0.00    -0.251 OA
BRANCH   7   9
ATOM      9  O   LIG    1       -4.646  -2.393   0.892  0.00  0.00    -0.480 OA
ATOM     10  H   LIG    1       -5.606  -2.398   0.921  0.00  0.00    +0.295 HD
ENDBRANCH   7   9
ENDBRANCH   2   7
BRANCH   5  11
ATOM     11  C   LIG    1        1.535   0.051  -0.019  0.00  0.00    +0.081 C 
BRANCH  11  12
ATOM     12  N   LIG    1        2.044   0.859  -1.112  0.00  0.00    -0.330 NA
ATOM     13  H   LIG    1        3.050   0.924  -1.046  0.00  0.00    +0.118 HD
ATOM     14  H   LIG    1        1.690   1.802  -1.030  0.00  0.00    +0.118 HD
ENDBRANCH  11  12
ENDBRANCH   5  11
TORSDOF 4
