REMARK  Name = DB00578
REMARK                            x       y       z     vdW  Elec       q    Type
REMARK                         _______ _______ _______ _____ _____    ______ ____
ROOT
ATOM      1  N   LIG    1       -0.047  -0.018   0.116  0.00  0.00    -0.301 N 
ATOM      2  H   LIG    1       -0.515  -0.912   0.139  0.00  0.00    +0.150 HD
ATOM      3  C   LIG    1       -0.804   1.091   0.016  0.00  0.00    +0.232 C 
ATOM      4  O   LIG    1       -0.333   2.229  -0.037  0.00  0.00    -0.275 OA
ENDROOT
BRANCH   1  12
ATOM      5  S   LIG    1        1.222  -2.733   1.418  0.00  0.00    -0.127 S 
ATOM      6  C   LIG    1        2.552  -3.774   0.742  0.00  0.00    +0.042 C 
ATOM      7  C   LIG    1        2.090  -5.227   0.504  0.00  0.00    +0.025 C 
ATOM      8  C   LIG    1        3.653  -3.809   1.843  0.00  0.00    +0.025 C 
ATOM      9  CA  LIG    1        3.001  -3.017  -0.559  0.00  0.00    +0.201 C 
ATOM     10  N   LIG    1        2.804  -1.586  -0.283  0.00  0.00    -0.271 N 
ATOM     11  C   LIG    1        2.055  -0.729  -1.098  0.00  0.00    +0.240 C 
ATOM     12  CA  LIG    1        1.418  -0.069   0.144  0.00  0.00    +0.190 C 
ATOM     13  O   LIG    1        1.908  -0.636  -2.316  0.00  0.00    -0.273 OA
ATOM     14  C   LIG    1        2.079  -1.205   0.957  0.00  0.00    +0.165 C 
BRANCH   9  15
ATOM     15  C   LIG    1        4.423  -3.362  -1.055  0.00  0.00    +0.327 C 
ATOM     16  OXT LIG    1        5.371  -2.606  -0.991  0.00  0.00    -0.249 OA
BRANCH  15  17
ATOM     17  O   LIG    1        4.444  -4.611  -1.602  0.00  0.00    -0.479 OA
ATOM     18  H   LIG    1        5.312  -4.849  -1.935  0.00  0.00    +0.295 HD
ENDBRANCH  15  17
ENDBRANCH   9  15
ENDBRANCH   1  12
BRANCH   3  19
ATOM     19  C   LIG    1       -2.334   0.870  -0.041  0.00  0.00    +0.213 C 
BRANCH  19  20
ATOM     20  C   LIG    1       -2.798   0.728  -1.503  0.00  0.00    -0.025 A 
ATOM     21  C   LIG    1       -3.358  -0.479  -1.938  0.00  0.00    +0.005 A 
ATOM     22  C   LIG    1       -3.778  -0.623  -3.258  0.00  0.00    +0.000 A 
ATOM     23  C   LIG    1       -3.643   0.442  -4.146  0.00  0.00    +0.000 A 
ATOM     24  C   LIG    1       -3.094   1.651  -3.725  0.00  0.00    +0.000 A 
ATOM     25  C   LIG    1       -2.674   1.795  -2.406  0.00  0.00    +0.005 A 
ENDBRANCH  19  20
BRANCH  19  26
ATOM     26  C   LIG    1       -3.203   1.863   0.771  0.00  0.00    +0.321 C 
ATOM     27  O   LIG    1       -4.210   2.417   0.329  0.00  0.00    -0.250 OA
BRANCH  26  28
ATOM     28  O   LIG    1       -2.753   2.012   2.052  0.00  0.00    -0.480 OA
ATOM     29  H   LIG    1       -3.295   2.619   2.561  0.00  0.00    +0.295 HD
ENDBRANCH  26  28
ENDBRANCH  19  26
ENDBRANCH   3  19
TORSDOF 7
