REMARK  Name = DB00637
REMARK                            x       y       z     vdW  Elec       q    Type
REMARK                         _______ _______ _______ _____ _____    ______ ____
ROOT
ATOM      1  N   LIG    1       -3.790   0.572   1.515  0.00  0.00    -0.312 N 
ATOM      2  H   LIG    1       -4.114   0.041   0.720  0.00  0.00    +0.149 HD
ENDROOT
BRANCH   1  11
ATOM      3  N   LIG    1       -6.029   0.660   2.408  0.00  0.00    -0.307 N 
ATOM      4  C   LIG    1       -6.596   1.090   3.594  0.00  0.00    +0.070 A 
ATOM      5  C   LIG    1       -7.913   1.160   4.065  0.00  0.00    +0.028 A 
ATOM      6  C   LIG    1       -8.093   1.664   5.355  0.00  0.00    +0.002 A 
ATOM      7  C   LIG    1       -7.019   2.080   6.143  0.00  0.00    +0.002 A 
ATOM      8  C   LIG    1       -5.707   2.013   5.672  0.00  0.00    +0.030 A 
ATOM      9  C   LIG    1       -5.494   1.513   4.379  0.00  0.00    +0.091 A 
ATOM     10  N   LIG    1       -4.317   1.358   3.700  0.00  0.00    -0.214 NA
ATOM     11  C   LIG    1       -4.664   0.863   2.536  0.00  0.00    +0.197 A 
BRANCH   3  12
ATOM     12  C   LIG    1       -6.757   0.158   1.240  0.00  0.00    +0.160 C 
BRANCH  12  17
ATOM     13  F   LIG    1       -9.653   4.169  -1.507  0.00  0.00    -0.205 F 
ATOM     14  C   LIG    1       -8.960   3.211  -0.851  0.00  0.00    +0.123 A 
ATOM     15  C   LIG    1       -9.634   2.111  -0.323  0.00  0.00    +0.038 A 
ATOM     16  C   LIG    1       -8.923   1.123   0.352  0.00  0.00    +0.008 A 
ATOM     17  C   LIG    1       -7.537   1.238   0.501  0.00  0.00    -0.027 A 
ATOM     18  C   LIG    1       -6.867   2.342  -0.035  0.00  0.00    +0.008 A 
ATOM     19  C   LIG    1       -7.579   3.330  -0.710  0.00  0.00    +0.038 A 
ENDBRANCH  12  17
ENDBRANCH   3  12
ENDBRANCH   1  11
BRANCH   1  20
ATOM     20  C   LIG    1       -2.335   0.656   1.569  0.00  0.00    +0.075 C 
ATOM     21  C   LIG    1       -1.770  -0.558   2.332  0.00  0.00    +0.037 C 
ATOM     22  C   LIG    1       -0.232  -0.624   2.241  0.00  0.00    +0.086 C 
ATOM     23  N   LIG    1        0.238  -0.608   0.849  0.00  0.00    -0.302 NA
ATOM     24  C   LIG    1       -0.246   0.568   0.108  0.00  0.00    +0.086 C 
ATOM     25  C   LIG    1       -1.785   0.666   0.132  0.00  0.00    +0.037 C 
BRANCH  23  26
ATOM     26  C   LIG    1        1.698  -0.751   0.796  0.00  0.00    +0.089 C 
BRANCH  26  27
ATOM     27  C   LIG    1        2.258  -1.071  -0.610  0.00  0.00    +0.050 C 
BRANCH  27  28
ATOM     28  C   LIG    1        1.617  -2.284  -1.277  0.00  0.00    -0.046 A 
ATOM     29  C   LIG    1        1.931  -3.568  -0.830  0.00  0.00    +0.007 A 
ATOM     30  C   LIG    1        1.342  -4.677  -1.431  0.00  0.00    +0.046 A 
ATOM     31  C   LIG    1        0.436  -4.518  -2.481  0.00  0.00    +0.120 A 
ATOM     32  C   LIG    1        0.124  -3.224  -2.927  0.00  0.00    +0.046 A 
ATOM     33  C   LIG    1        0.714  -2.114  -2.327  0.00  0.00    +0.007 A 
BRANCH  31  34
ATOM     34  O   LIG    1       -0.099  -5.675  -3.014  0.00  0.00    -0.495 OA
ATOM     35  C   LIG    1       -1.035  -5.580  -4.082  0.00  0.00    +0.277 C 
ENDBRANCH  31  34
ENDBRANCH  27  28
ENDBRANCH  26  27
ENDBRANCH  23  26
ENDBRANCH   1  20
TORSDOF 8
