REMARK  Name = DB00950
REMARK                            x       y       z     vdW  Elec       q    Type
REMARK                         _______ _______ _______ _____ _____    ______ ____
ROOT
ATOM      1  C   LIG    1        0.410   4.364  -3.117  0.00  0.00    +0.032 C 
ATOM      2  C   LIG    1        0.063   2.865  -3.304  0.00  0.00    +0.022 C 
ATOM      3  C   LIG    1       -0.295   2.191  -1.963  0.00  0.00    +0.085 C 
ATOM      4  N   LIG    1        0.788   2.318  -0.972  0.00  0.00    -0.302 NA
ATOM      5  C   LIG    1        1.279   3.697  -0.803  0.00  0.00    +0.085 C 
ATOM      6  C   LIG    1        1.622   4.367  -2.151  0.00  0.00    +0.022 C 
ENDROOT
BRANCH   1   7
ATOM      7  C   LIG    1        0.618   5.196  -4.450  0.00  0.00    +0.119 C 
BRANCH   7  10
ATOM      8  C   LIG    1        2.733   2.958  -6.769  0.00  0.00    +0.000 A 
ATOM      9  C   LIG    1        1.659   3.493  -6.063  0.00  0.00    +0.007 A 
ATOM     10  C   LIG    1        1.828   4.616  -5.238  0.00  0.00    -0.011 A 
ATOM     11  C   LIG    1        3.109   5.184  -5.134  0.00  0.00    +0.007 A 
ATOM     12  C   LIG    1        4.184   4.650  -5.838  0.00  0.00    +0.000 A 
ATOM     13  C   LIG    1        3.991   3.539  -6.655  0.00  0.00    +0.000 A 
ENDBRANCH   7  10
BRANCH   7  14
ATOM     14  C   LIG    1       -0.652   5.303  -5.342  0.00  0.00    -0.011 A 
ATOM     15  C   LIG    1       -1.940   5.002  -4.865  0.00  0.00    +0.007 A 
ATOM     16  C   LIG    1       -3.055   5.140  -5.688  0.00  0.00    +0.000 A 
ATOM     17  C   LIG    1       -2.900   5.598  -6.992  0.00  0.00    +0.000 A 
ATOM     18  C   LIG    1       -1.639   5.928  -7.478  0.00  0.00    +0.000 A 
ATOM     19  C   LIG    1       -0.526   5.789  -6.654  0.00  0.00    +0.007 A 
ENDBRANCH   7  14
BRANCH   7  20
ATOM     20  O   LIG    1        0.882   6.519  -3.998  0.00  0.00    -0.379 OA
ATOM     21  H   LIG    1        1.004   7.080  -4.766  0.00  0.00    +0.211 HD
ENDBRANCH   7  20
ENDBRANCH   1   7
BRANCH   4  22
ATOM     22  C   LIG    1        0.434   1.747   0.333  0.00  0.00    +0.084 C 
BRANCH  22  23
ATOM     23  C   LIG    1        0.191   0.221   0.315  0.00  0.00    +0.018 C 
BRANCH  23  24
ATOM     24  C   LIG    1        1.402  -0.614  -0.157  0.00  0.00    +0.037 C 
BRANCH  24  25
ATOM     25  C   LIG    1        1.149  -2.140  -0.173  0.00  0.00    +0.145 C 
BRANCH  25  26
ATOM     26  C   LIG    1        0.810  -2.708   1.206  0.00  0.00    -0.019 A 
ATOM     27  C   LIG    1       -0.493  -3.125   1.485  0.00  0.00    +0.006 A 
ATOM     28  C   LIG    1       -0.815  -3.627   2.743  0.00  0.00    +0.005 A 
ATOM     29  C   LIG    1        0.157  -3.716   3.753  0.00  0.00    -0.031 A 
ATOM     30  C   LIG    1        1.464  -3.293   3.457  0.00  0.00    +0.005 A 
ATOM     31  C   LIG    1        1.788  -2.793   2.199  0.00  0.00    +0.006 A 
BRANCH  29  32
ATOM     32  C   LIG    1       -0.171  -4.279   5.164  0.00  0.00    +0.087 C 
ATOM     33  C   LIG    1        0.757  -5.494   5.457  0.00  0.00    +0.027 C 
ATOM     34  C   LIG    1       -1.633  -4.793   5.309  0.00  0.00    +0.027 C 
BRANCH  32  35
ATOM     35  C   LIG    1        0.055  -3.157   6.220  0.00  0.00    +0.315 C 
ATOM     36  O   LIG    1        0.856  -3.239   7.151  0.00  0.00    -0.250 OA
BRANCH  35  37
ATOM     37  O   LIG    1       -0.726  -2.060   5.984  0.00  0.00    -0.480 OA
ATOM     38  H   LIG    1       -0.580  -1.364   6.628  0.00  0.00    +0.295 HD
ENDBRANCH  35  37
ENDBRANCH  32  35
ENDBRANCH  29  32
ENDBRANCH  25  26
BRANCH  25  39
ATOM     39  O   LIG    1        2.274  -2.775  -0.750  0.00  0.00    -0.387 OA
ATOM     40  H   LIG    1        2.530  -2.287  -1.536  0.00  0.00    +0.210 HD
ENDBRANCH  25  39
ENDBRANCH  24  25
ENDBRANCH  23  24
ENDBRANCH  22  23
ENDBRANCH   4  22
TORSDOF 13
