REMARK  Name = DB00571
REMARK                            x       y       z     vdW  Elec       q    Type
REMARK                         _______ _______ _______ _____ _____    ______ ____
ROOT
ATOM      1  O   LIG    1        3.312   0.763   1.492  0.00  0.00    -0.489 OA
ENDROOT
BRANCH   1   5
ATOM      2  C   LIG    1        5.471   2.789   4.488  0.00  0.00    +0.009 A 
ATOM      3  C   LIG    1        4.083   2.768   4.529  0.00  0.00    +0.004 A 
ATOM      4  C   LIG    1        3.356   2.104   3.549  0.00  0.00    +0.046 A 
ATOM      5  C   LIG    1        3.993   1.437   2.491  0.00  0.00    +0.128 A 
ATOM      6  C   LIG    1        5.420   1.447   2.432  0.00  0.00    +0.024 A 
ATOM      7  C   LIG    1        6.138   0.794   1.392  0.00  0.00    +0.012 A 
ATOM      8  C   LIG    1        7.529   0.819   1.363  0.00  0.00    +0.001 A 
ATOM      9  C   LIG    1        8.245   1.486   2.350  0.00  0.00    +0.001 A 
ATOM     10  C   LIG    1        7.580   2.139   3.384  0.00  0.00    +0.008 A 
ATOM     11  C   LIG    1        6.164   2.132   3.445  0.00  0.00    -0.014 A 
ENDBRANCH   1   5
BRANCH   1  12
ATOM     12  C   LIG    1        1.885   0.726   1.505  0.00  0.00    +0.261 C 
BRANCH  12  13
ATOM     13  C   LIG    1        1.382  -0.088   0.294  0.00  0.00    +0.166 C 
BRANCH  13  14
ATOM     14  O   LIG    1        1.765  -1.439   0.467  0.00  0.00    -0.387 OA
ATOM     15  H   LIG    1        2.713  -1.468   0.615  0.00  0.00    +0.210 HD
ENDBRANCH  13  14
BRANCH  13  16
ATOM     16  C   LIG    1       -0.151  -0.057   0.115  0.00  0.00    +0.115 C 
BRANCH  16  17
ATOM     17  N   LIG    1       -0.598   1.283  -0.254  0.00  0.00    -0.311 NA
ATOM     18  H   LIG    1       -0.068   1.625  -1.044  0.00  0.00    +0.122 HD
BRANCH  17  19
ATOM     19  C   LIG    1       -2.029   1.380  -0.533  0.00  0.00    +0.048 C 
ATOM     20  C   LIG    1       -2.876   1.179   0.741  0.00  0.00    +0.023 C 
ATOM     21  C   LIG    1       -2.285   2.761  -1.160  0.00  0.00    +0.023 C 
ENDBRANCH  17  19
ENDBRANCH  16  17
ENDBRANCH  13  16
ENDBRANCH  12  13
ENDBRANCH   1  12
TORSDOF 7
