REMARK  Name = DB00174
REMARK                            x       y       z     vdW  Elec       q    Type
REMARK                         _______ _______ _______ _____ _____    ______ ____
ROOT
ATOM      1  CA  ASN A  1       -0.061  -0.011   0.094  0.00  0.00    +0.169 C 
ENDROOT
BRANCH   1   2
ATOM      2  N   ASN A  1       -0.565   1.367  -0.027  0.00  0.00    -0.318 NA
ATOM      3  H1  ASN A  1       -1.570   1.364  -0.130  0.00  0.00    +0.119 HD
ATOM      4  H2  ASN A  1       -0.206   1.802  -0.865  0.00  0.00    +0.119 HD
ENDBRANCH   1   2
BRANCH   1   5
ATOM      5  C   ASN A  1       -0.639  -0.578   1.407  0.00  0.00    +0.322 C 
ATOM      6  OXT ASN A  1       -1.551  -1.403   1.411  0.00  0.00    -0.249 OA
BRANCH   5   7
ATOM      7  O   ASN A  1       -0.036  -0.059   2.519  0.00  0.00    -0.480 OA
ATOM      8  H   ASN A  1       -0.400  -0.418   3.331  0.00  0.00    +0.295 HD
ENDBRANCH   5   7
ENDBRANCH   1   5
BRANCH   1   9
ATOM      9  CB  ASN A  1        1.487  -0.083  -0.027  0.00  0.00    +0.125 C 
BRANCH   9  10
ATOM     10  CG  ASN A  1        2.038  -1.507  -0.181  0.00  0.00    +0.213 C 
ATOM     11  ND2 ASN A  1        2.424  -1.884  -1.403  0.00  0.00    -0.329 N 
ATOM     12 HD21 ASN A  1        2.799  -2.810  -1.552  0.00  0.00    +0.145 HD
ATOM     13 HD22 ASN A  1        2.344  -1.251  -2.185  0.00  0.00    +0.145 HD
ATOM     14  OD1 ASN A  1        2.127  -2.251   0.793  0.00  0.00    -0.276 OA
ENDBRANCH   9  10
ENDBRANCH   1   9
TORSDOF 5
