REMARK  Name = DB00468
REMARK                            x       y       z     vdW  Elec       q    Type
REMARK                         _______ _______ _______ _____ _____    ______ ____
ROOT
ATOM      1  C   LIG    1        1.439  -0.348   0.641  0.00  0.00    +0.162 C 
ENDROOT
BRANCH   1   7
ATOM      2  C   LIG    1       -2.830   2.196  -0.364  0.00  0.00    +0.032 A 
ATOM      3  C   LIG    1       -2.152   1.014   0.012  0.00  0.00    +0.072 A 
ATOM      4  N   LIG    1       -2.902  -0.094   0.256  0.00  0.00    -0.255 NA
ATOM      5  C   LIG    1       -2.269  -1.235   0.608  0.00  0.00    +0.112 A 
ATOM      6  C   LIG    1       -0.891  -1.337   0.740  0.00  0.00    +0.026 A 
ATOM      7  C   LIG    1       -0.088  -0.215   0.507  0.00  0.00    -0.007 A 
ATOM      8  C   LIG    1       -0.723   1.017   0.121  0.00  0.00    +0.010 A 
ATOM      9  C   LIG    1       -0.037   2.234  -0.164  0.00  0.00    +0.056 A 
ATOM     10  C   LIG    1       -0.730   3.394  -0.543  0.00  0.00    +0.121 A 
ATOM     11  C   LIG    1       -2.117   3.358  -0.634  0.00  0.00    +0.048 A 
BRANCH  10  12
ATOM     12  O   LIG    1       -0.126   4.601  -0.841  0.00  0.00    -0.495 OA
ATOM     13  C   LIG    1        1.293   4.704  -0.785  0.00  0.00    +0.277 C 
ENDBRANCH  10  12
ENDBRANCH   1   7
BRANCH   1  14
ATOM     14  C   LIG    1        2.085  -1.075  -0.575  0.00  0.00    +0.090 C 
ATOM     15  N   LIG    1        1.590  -0.793  -1.950  0.00  0.00    -0.296 NA
ATOM     16  C   LIG    1        2.275   0.417  -2.456  0.00  0.00    +0.085 C 
ATOM     17  C   LIG    1        3.828   0.264  -2.499  0.00  0.00    +0.019 C 
ATOM     18  C   LIG    1        4.248  -1.118  -1.941  0.00  0.00    -0.000 C 
ATOM     19  C   LIG    1        3.533  -2.173  -2.834  0.00  0.00    +0.028 C 
ATOM     20  C   LIG    1        1.986  -1.926  -2.819  0.00  0.00    +0.092 C 
ATOM     21  C   LIG    1        3.647  -1.195  -0.514  0.00  0.00    +0.026 C 
BRANCH  19  22
ATOM     22  C   LIG    1        3.863  -3.600  -2.410  0.00  0.00    -0.030 C 
ATOM     23  C   LIG    1        4.531  -4.489  -3.161  0.00  0.00    +0.004 C 
ENDBRANCH  19  22
ENDBRANCH   1  14
BRANCH   1  24
ATOM     24  O   LIG    1        1.805  -1.022   1.834  0.00  0.00    -0.386 OA
ATOM     25  H   LIG    1        1.532  -0.486   2.582  0.00  0.00    +0.210 HD
ENDBRANCH   1  24
TORSDOF 5
