REMARK  Name = DB00330
REMARK                            x       y       z     vdW  Elec       q    Type
REMARK                         _______ _______ _______ _____ _____    ______ ____
ROOT
ATOM      1  C   LIG    1        1.399  -0.349  -0.318  0.00  0.00    +0.096 C 
ENDROOT
BRANCH   1   2
ATOM      2  N   LIG    1        2.023   0.600  -1.242  0.00  0.00    -0.310 NA
ATOM      3  H   LIG    1        1.789   0.341  -2.190  0.00  0.00    +0.122 HD
BRANCH   2   4
ATOM      4  CA  LIG    1        3.482   0.726  -1.135  0.00  0.00    +0.079 C 
BRANCH   4   5
ATOM      5  C   LIG    1        3.935   1.328   0.221  0.00  0.00    +0.017 C 
ATOM      6  C   LIG    1        3.234   2.641   0.614  0.00  0.00    +0.005 C 
ENDBRANCH   4   5
BRANCH   4   7
ATOM      7  C   LIG    1        4.228  -0.592  -1.464  0.00  0.00    +0.174 C 
BRANCH   7   8
ATOM      8  O   LIG    1        3.963  -1.030  -2.784  0.00  0.00    -0.393 OA
ATOM      9  H   LIG    1        4.472  -1.828  -2.948  0.00  0.00    +0.209 HD
ENDBRANCH   7   8
ENDBRANCH   4   7
ENDBRANCH   2   4
ENDBRANCH   1   2
BRANCH   1  10
ATOM     10  C   LIG    1       -0.136  -0.250  -0.393  0.00  0.00    +0.096 C 
BRANCH  10  11
ATOM     11  N   LIG    1       -0.587   1.012   0.189  0.00  0.00    -0.310 NA
ATOM     12  H   LIG    1       -0.166   1.780  -0.316  0.00  0.00    +0.122 HD
BRANCH  11  13
ATOM     13  CA  LIG    1       -2.042   1.179   0.238  0.00  0.00    +0.079 C 
BRANCH  13  14
ATOM     14  C   LIG    1       -2.361   2.385   1.160  0.00  0.00    +0.017 C 
ATOM     15  C   LIG    1       -1.878   2.228   2.614  0.00  0.00    +0.005 C 
ENDBRANCH  13  14
BRANCH  13  16
ATOM     16  C   LIG    1       -2.629   1.354  -1.188  0.00  0.00    +0.174 C 
BRANCH  16  17
ATOM     17  O   LIG    1       -4.036   1.494  -1.153  0.00  0.00    -0.393 OA
ATOM     18  H   LIG    1       -4.249   2.335  -0.742  0.00  0.00    +0.209 HD
ENDBRANCH  16  17
ENDBRANCH  13  16
ENDBRANCH  11  13
ENDBRANCH  10  11
ENDBRANCH   1  10
TORSDOF 11
