REMARK  Name = DB00517
REMARK                            x       y       z     vdW  Elec       q    Type
REMARK                         _______ _______ _______ _____ _____    ______ ____
ROOT
ATOM      1  O   LIG    1       -0.565  -0.974   0.256  0.00  0.00    -0.461 OA
ENDROOT
BRANCH   1   2
ATOM      2  C   LIG    1       -1.965  -1.253   0.205  0.00  0.00    +0.173 C 
ATOM      3  C   LIG    1       -2.324  -1.934  -1.156  0.00  0.00    +0.030 C 
ATOM      4  C   LIG    1       -2.332  -3.490  -1.135  0.00  0.00    -0.062 C 
ATOM      5  C   LIG    1       -0.941  -4.057  -0.772  0.00  0.00    -0.016 C 
ATOM      6  C   LIG    1       -0.933  -4.165   0.761  0.00  0.00    -0.016 C 
ATOM      7  C   LIG    1       -2.321  -3.656   1.214  0.00  0.00    -0.062 C 
ATOM      8  N   LIG    1       -3.245  -4.004   0.013  0.00  0.00    +0.380 N 
ATOM      9  C   LIG    1       -3.503  -5.536  -0.093  0.00  0.00    -0.092 C 
ATOM     10  C   LIG    1       -4.662  -3.364   0.065  0.00  0.00    -0.092 C 
ATOM     11  C   LIG    1       -2.314  -2.119   1.454  0.00  0.00    +0.030 C 
ENDBRANCH   1   2
BRANCH   1  12
ATOM     12  C   LIG    1       -0.044   0.164  -0.257  0.00  0.00    +0.310 C 
ATOM     13  O   LIG    1       -0.683   1.058  -0.818  0.00  0.00    -0.251 OA
BRANCH  12  14
ATOM     14  C   LIG    1        1.488   0.231  -0.087  0.00  0.00    +0.098 C 
BRANCH  14  15
ATOM     15  C   LIG    1        2.167   0.932  -1.297  0.00  0.00    +0.014 C 
BRANCH  15  16
ATOM     16  C   LIG    1        3.692   0.725  -1.385  0.00  0.00    -0.003 C 
ATOM     17  C   LIG    1        4.307   1.349  -2.645  0.00  0.00    +0.004 C 
ENDBRANCH  15  16
ENDBRANCH  14  15
BRANCH  14  18
ATOM     18  C   LIG    1        1.884   0.870   1.274  0.00  0.00    +0.014 C 
BRANCH  18  19
ATOM     19  C   LIG    1        1.414   0.100   2.527  0.00  0.00    -0.003 C 
ATOM     20  C   LIG    1        1.963   0.692   3.833  0.00  0.00    +0.004 C 
ENDBRANCH  18  19
ENDBRANCH  14  18
ENDBRANCH  12  14
ENDBRANCH   1  12
TORSDOF 7
