REMARK  Name = DB00913
REMARK                            x       y       z     vdW  Elec       q    Type
REMARK                         _______ _______ _______ _____ _____    ______ ____
ROOT
ATOM      1  C   LIG    1       -2.831   0.674  -1.160  0.00  0.00    +0.095 C 
ATOM      2  C   LIG    1       -2.165   1.321   0.094  0.00  0.00    +0.038 C 
ATOM      3  C   LIG    1       -0.617   1.356   0.047  0.00  0.00    +0.086 C 
ATOM      4  N   LIG    1       -0.046   0.024  -0.189  0.00  0.00    -0.302 NA
ATOM      5  C   LIG    1       -0.615  -0.692  -1.337  0.00  0.00    +0.086 C 
ATOM      6  C   LIG    1       -2.158  -0.740  -1.251  0.00  0.00    +0.038 C 
ENDROOT
BRANCH   1   7
ATOM      7  C   LIG    1       -4.372   0.619  -0.926  0.00  0.00    -0.031 A 
ATOM      8  C   LIG    1       -5.132   1.804  -0.931  0.00  0.00    +0.005 A 
ATOM      9  C   LIG    1       -6.502   1.782  -0.689  0.00  0.00    +0.000 A 
ATOM     10  C   LIG    1       -7.134   0.573  -0.421  0.00  0.00    +0.000 A 
ATOM     11  C   LIG    1       -6.404  -0.610  -0.388  0.00  0.00    +0.000 A 
ATOM     12  C   LIG    1       -5.034  -0.586  -0.630  0.00  0.00    +0.005 A 
ENDBRANCH   1   7
BRANCH   1  13
ATOM     13  C   LIG    1       -2.554   1.513  -2.452  0.00  0.00    +0.318 C 
ATOM     14  O   LIG    1       -2.368   2.733  -2.407  0.00  0.00    -0.250 OA
BRANCH  13  15
ATOM     15  O   LIG    1       -2.554   0.774  -3.588  0.00  0.00    -0.464 OA
BRANCH  15  16
ATOM     16  C   LIG    1       -2.321   1.382  -4.851  0.00  0.00    +0.229 C 
ATOM     17  C   LIG    1       -2.351   0.309  -5.944  0.00  0.00    +0.048 C 
ENDBRANCH  15  16
ENDBRANCH  13  15
ENDBRANCH   1  13
BRANCH   4  18
ATOM     18  C   LIG    1        1.421   0.018  -0.189  0.00  0.00    +0.089 C 
BRANCH  18  19
ATOM     19  C   LIG    1        1.980  -0.761   1.021  0.00  0.00    +0.050 C 
BRANCH  19  20
ATOM     20  C   LIG    1        1.497  -2.205   1.112  0.00  0.00    -0.046 A 
ATOM     21  C   LIG    1        2.134  -3.201   0.369  0.00  0.00    +0.005 A 
ATOM     22  C   LIG    1        1.683  -4.517   0.437  0.00  0.00    +0.023 A 
ATOM     23  C   LIG    1        0.592  -4.833   1.248  0.00  0.00    +0.025 A 
ATOM     24  C   LIG    1       -0.047  -3.842   1.992  0.00  0.00    +0.023 A 
ATOM     25  C   LIG    1        0.407  -2.527   1.925  0.00  0.00    +0.005 A 
BRANCH  23  26
ATOM     26  N   LIG    1        0.137  -6.149   1.313  0.00  0.00    -0.358 N 
ATOM     27  H   LIG    1        0.586  -6.858   0.752  0.00  0.00    +0.142 HD
ATOM     28  H   LIG    1       -0.669  -6.368   1.881  0.00  0.00    +0.142 HD
ENDBRANCH  23  26
ENDBRANCH  19  20
ENDBRANCH  18  19
ENDBRANCH   4  18
TORSDOF 8
