REMARK  Name = DB00684
REMARK                            x       y       z     vdW  Elec       q    Type
REMARK                         _______ _______ _______ _____ _____    ______ ____
ROOT
ATOM      1  C   LIG    1        1.141  -0.010   0.399  0.00  0.00    +0.169 C 
ATOM      2  C   LIG    1        1.801   0.407   1.745  0.00  0.00    +0.175 C 
ATOM      3  C   LIG    1        3.354   0.363   1.731  0.00  0.00    +0.169 C 
ATOM      4  C   LIG    1        3.954   1.055   0.474  0.00  0.00    +0.084 C 
ATOM      5  C   LIG    1        3.305   0.513  -0.815  0.00  0.00    +0.042 C 
ATOM      6  C   LIG    1        1.777   0.697  -0.828  0.00  0.00    +0.084 C 
ENDROOT
BRANCH   4   7
ATOM      7  N   LIG    1        5.400   0.959   0.384  0.00  0.00    -0.325 NA
ATOM      8  H   LIG    1        5.717   1.406  -0.465  0.00  0.00    +0.119 HD
ATOM      9  H   LIG    1        5.673  -0.011   0.315  0.00  0.00    +0.119 HD
ENDBRANCH   4   7
BRANCH   6  10
ATOM     10  N   LIG    1        1.204   0.266  -2.090  0.00  0.00    -0.325 NA
ATOM     11  H   LIG    1        1.611   0.799  -2.845  0.00  0.00    +0.119 HD
ATOM     12  H   LIG    1        0.216   0.476  -2.091  0.00  0.00    +0.119 HD
ENDBRANCH   6  10
BRANCH   2  13
ATOM     13  O   LIG    1        1.304  -0.407   2.794  0.00  0.00    -0.387 OA
ATOM     14  H   LIG    1        1.557  -1.317   2.622  0.00  0.00    +0.210 HD
ENDBRANCH   2  13
BRANCH   1  15
ATOM     15  O   LIG    1       -0.289   0.092   0.467  0.00  0.00    -0.341 OA
BRANCH  15  18
ATOM     16  C   LIG    1       -2.216   0.846  -1.473  0.00  0.00    +0.177 C 
ATOM     17  O   LIG    1       -1.282   1.740  -0.848  0.00  0.00    -0.341 OA
ATOM     18  C   LIG    1       -0.886   1.365   0.448  0.00  0.00    +0.281 C 
ATOM     19  C   LIG    1       -2.103   1.355   1.386  0.00  0.00    +0.189 C 
ATOM     20  C   LIG    1       -3.207   0.402   0.863  0.00  0.00    +0.116 C 
ATOM     21  C   LIG    1       -3.506   0.705  -0.625  0.00  0.00    +0.165 C 
BRANCH  20  22
ATOM     22  N   LIG    1       -4.409   0.452   1.685  0.00  0.00    -0.323 NA
ATOM     23  H   LIG    1       -5.119  -0.143   1.281  0.00  0.00    +0.119 HD
ATOM     24  H   LIG    1       -4.786   1.389   1.680  0.00  0.00    +0.119 HD
ENDBRANCH  20  22
BRANCH  19  25
ATOM     25  O   LIG    1       -1.692   1.051   2.707  0.00  0.00    -0.385 OA
ATOM     26  H   LIG    1       -1.567   0.102   2.776  0.00  0.00    +0.210 HD
ENDBRANCH  19  25
BRANCH  21  27
ATOM     27  O   LIG    1       -4.399  -0.251  -1.173  0.00  0.00    -0.388 OA
ATOM     28  H   LIG    1       -4.014  -1.125  -1.068  0.00  0.00    +0.210 HD
ENDBRANCH  21  27
BRANCH  16  29
ATOM     29  C   LIG    1       -2.510   1.378  -2.894  0.00  0.00    +0.190 C 
BRANCH  29  30
ATOM     30  O   LIG    1       -1.356   1.337  -3.708  0.00  0.00    -0.392 OA
ATOM     31  H   LIG    1       -1.148   0.419  -3.898  0.00  0.00    +0.210 HD
ENDBRANCH  29  30
ENDBRANCH  16  29
ENDBRANCH  15  18
ENDBRANCH   1  15
BRANCH   3  32
ATOM     32  O   LIG    1        3.768   0.993   2.950  0.00  0.00    -0.342 OA
BRANCH  32  33
ATOM     33  C   LIG    1        4.957   0.572   3.567  0.00  0.00    +0.268 C 
ATOM     34  C   LIG    1        4.755   0.621   5.091  0.00  0.00    +0.110 C 
ATOM     35  C   LIG    1        4.553   2.076   5.551  0.00  0.00    +0.057 C 
ATOM     36  C   LIG    1        5.670   2.990   5.025  0.00  0.00    +0.146 C 
ATOM     37  C   LIG    1        5.903   2.774   3.508  0.00  0.00    +0.163 C 
ATOM     38  O   LIG    1        6.055   1.376   3.211  0.00  0.00    -0.343 OA
BRANCH  34  39
ATOM     39  N   LIG    1        3.727  -0.282   5.578  0.00  0.00    -0.323 NA
ATOM     40  H   LIG    1        3.701  -0.243   6.587  0.00  0.00    +0.119 HD
ATOM     41  H   LIG    1        3.978  -1.232   5.345  0.00  0.00    +0.119 HD
ENDBRANCH  34  39
BRANCH  36  42
ATOM     42  O   LIG    1        5.369   4.340   5.324  0.00  0.00    -0.389 OA
ATOM     43  H   LIG    1        4.519   4.555   4.933  0.00  0.00    +0.210 HD
ENDBRANCH  36  42
BRANCH  37  44
ATOM     44  C   LIG    1        7.158   3.520   3.004  0.00  0.00    +0.112 C 
BRANCH  44  45
ATOM     45  N   LIG    1        7.256   3.467   1.557  0.00  0.00    -0.328 NA
ATOM     46  H   LIG    1        6.433   3.885   1.147  0.00  0.00    +0.118 HD
ATOM     47  H   LIG    1        7.262   2.501   1.261  0.00  0.00    +0.118 HD
ENDBRANCH  44  45
ENDBRANCH  37  44
ENDBRANCH  32  33
ENDBRANCH   3  32
TORSDOF 16
