REMARK  Name = DB00182
REMARK                            x       y       z     vdW  Elec       q    Type
REMARK                         _______ _______ _______ _____ _____    ______ ____
ROOT
ATOM      1  C   LIG    1       -0.535   1.483   0.063  0.00  0.00    -0.046 A 
ATOM      2  C   LIG    1       -0.663   2.134  -1.167  0.00  0.00    +0.004 A 
ATOM      3  C   LIG    1       -1.156   3.435  -1.218  0.00  0.00    +0.000 A 
ATOM      4  C   LIG    1       -1.519   4.082  -0.038  0.00  0.00    +0.000 A 
ATOM      5  C   LIG    1       -1.395   3.439   1.192  0.00  0.00    +0.000 A 
ATOM      6  C   LIG    1       -0.902   2.137   1.243  0.00  0.00    +0.004 A 
ENDROOT
BRANCH   1   7
ATOM      7  C   LIG    1        0.005   0.058   0.114  0.00  0.00    +0.053 C 
BRANCH   7   8
ATOM      8  C   LIG    1        1.544  -0.041   0.005  0.00  0.00    +0.052 C 
ATOM      9  C   LIG    1        2.034  -1.498  -0.049  0.00  0.00    +0.024 C 
BRANCH   8  10
ATOM     10  N   LIG    1        2.186   0.623   1.128  0.00  0.00    -0.327 NA
ATOM     11  H   LIG    1        3.187   0.505   1.063  0.00  0.00    +0.118 HD
ATOM     12  H   LIG    1        1.902   0.179   1.990  0.00  0.00    +0.118 HD
ENDBRANCH   8  10
ENDBRANCH   7   8
ENDBRANCH   1   7
TORSDOF 3
