REMARK  Name = DB00303
REMARK                            x       y       z     vdW  Elec       q    Type
REMARK                         _______ _______ _______ _____ _____    ______ ____
ROOT
ATOM      1  C   LIG    1        1.385  -1.251   2.212  0.00  0.00    +0.067 C 
ATOM      2  C   LIG    1        2.660  -1.796   2.840  0.00  0.00    +0.044 C 
ATOM      3  C   LIG    1        2.623  -1.120   4.216  0.00  0.00    +0.142 C 
ATOM      4  N   LIG    1        2.050   0.209   4.022  0.00  0.00    -0.305 NA
ATOM      5  H   LIG    1        2.797   0.868   3.853  0.00  0.00    +0.123 HD
ATOM      6  C   LIG    1        1.194   0.133   2.845  0.00  0.00    +0.096 C 
ENDROOT
BRANCH   3   7
ATOM      7  C   LIG    1        4.024  -1.057   4.861  0.00  0.00    +0.234 C 
ATOM      8  N   LIG    1        4.309  -2.060   5.722  0.00  0.00    -0.284 N 
ATOM      9  H   LIG    1        3.592  -2.760   5.838  0.00  0.00    +0.155 HD
ATOM     10  O   LIG    1        4.804  -0.154   4.548  0.00  0.00    -0.274 OA
BRANCH   8  11
ATOM     11  C   LIG    1        5.477  -2.304   6.472  0.00  0.00    +0.034 A 
ATOM     12  C   LIG    1        5.512  -3.513   7.174  0.00  0.00    +0.038 A 
ATOM     13  C   LIG    1        6.618  -3.870   7.961  0.00  0.00    +0.061 A 
ATOM     14  C   LIG    1        7.701  -2.982   8.035  0.00  0.00    +0.015 A 
ATOM     15  C   LIG    1        7.675  -1.772   7.346  0.00  0.00    +0.003 A 
ATOM     16  C   LIG    1        6.571  -1.429   6.569  0.00  0.00    +0.023 A 
BRANCH  13  17
ATOM     17  C   LIG    1        6.628  -5.187   8.703  0.00  0.00    +0.337 C 
ATOM     18  O   LIG    1        5.693  -5.985   8.638  0.00  0.00    -0.245 OA
BRANCH  17  19
ATOM     19  O   LIG    1        7.748  -5.425   9.447  0.00  0.00    -0.477 OA
ATOM     20  H   LIG    1        7.711  -6.272   9.897  0.00  0.00    +0.295 HD
ENDBRANCH  17  19
ENDBRANCH  13  17
ENDBRANCH   8  11
ENDBRANCH   3   7
BRANCH   1  21
ATOM     21  S   LIG    1        1.380  -1.299   0.396  0.00  0.00    -0.122 S 
BRANCH  21  23
ATOM     22  C   LIG    1       -0.396   0.677  -0.626  0.00  0.00    +0.131 C 
ATOM     23  C   LIG    1       -0.171  -0.496   0.012  0.00  0.00    +0.019 C 
ATOM     24  C   LIG    1       -1.504  -1.155   0.365  0.00  0.00    +0.046 C 
ATOM     25  C   LIG    1       -1.670  -2.569  -0.225  0.00  0.00    +0.015 C 
ATOM     26  C   LIG    1       -2.567  -0.125  -0.084  0.00  0.00    +0.104 C 
ATOM     27  C   LIG    1       -3.303  -0.225  -1.450  0.00  0.00    +0.125 C 
ATOM     28  C   LIG    1       -2.538   1.081  -1.805  0.00  0.00    +0.228 C 
ATOM     29  O   LIG    1       -2.586   1.909  -2.712  0.00  0.00    -0.275 OA
ATOM     30  N   LIG    1       -1.724   0.931  -0.676  0.00  0.00    -0.260 N 
BRANCH  22  31
ATOM     31  C   LIG    1        0.584   1.625  -1.126  0.00  0.00    +0.352 C 
ATOM     32  O   LIG    1        0.420   2.844  -1.121  0.00  0.00    -0.244 OA
BRANCH  31  33
ATOM     33  O   LIG    1        1.693   1.026  -1.651  0.00  0.00    -0.476 OA
ATOM     34  H   LIG    1        2.324   1.662  -1.992  0.00  0.00    +0.295 HD
ENDBRANCH  31  33
ENDBRANCH  22  31
BRANCH  27  35
ATOM     35  C   LIG    1       -4.849  -0.067  -1.451  0.00  0.00    +0.125 C 
ATOM     36  C   LIG    1       -5.539  -1.293  -0.831  0.00  0.00    +0.038 C 
BRANCH  35  37
ATOM     37  O   LIG    1       -5.303   1.076  -0.744  0.00  0.00    -0.391 OA
ATOM     38  H   LIG    1       -4.898   1.856  -1.131  0.00  0.00    +0.210 HD
ENDBRANCH  35  37
ENDBRANCH  27  35
ENDBRANCH  21  23
ENDBRANCH   1  21
TORSDOF 10
