REMARK  Name = DB00150
REMARK                            x       y       z     vdW  Elec       q    Type
REMARK                         _______ _______ _______ _____ _____    ______ ____
ROOT
ATOM      1  CG  TRP A  1        2.078   0.806  -1.226  0.00  0.00    -0.020 A 
ATOM      2  CD2 TRP A  1        2.338   0.199  -2.529  0.00  0.00    +0.003 A 
ATOM      3  CE3 TRP A  1        2.206  -1.106  -3.061  0.00  0.00    +0.010 A 
ATOM      4  CZ3 TRP A  1        2.553  -1.388  -4.398  0.00  0.00    +0.001 A 
ATOM      5  CH2 TRP A  1        3.042  -0.369  -5.239  0.00  0.00    +0.002 A 
ATOM      6  CZ2 TRP A  1        3.184   0.940  -4.743  0.00  0.00    +0.026 A 
ATOM      7  CE2 TRP A  1        2.832   1.210  -3.409  0.00  0.00    +0.047 A 
ATOM      8  NE1 TRP A  1        2.842   2.356  -2.640  0.00  0.00    -0.360 N 
ATOM      9  HE1 TRP A  1        3.132   3.272  -2.952  0.00  0.00    +0.165 HD
ATOM     10  CD1 TRP A  1        2.386   2.117  -1.361  0.00  0.00    +0.087 A 
ENDROOT
BRANCH   1  11
ATOM     11  CB  TRP A  1        1.517   0.164   0.010  0.00  0.00    +0.067 C 
BRANCH  11  12
ATOM     12  CA  TRP A  1       -0.021   0.025   0.057  0.00  0.00    +0.165 C 
BRANCH  12  13
ATOM     13  N   TRP A  1       -0.715   1.322   0.132  0.00  0.00    -0.318 NA
ATOM     14  H1  TRP A  1       -0.547   1.774   1.019  0.00  0.00    +0.119 HD
ATOM     15  H2  TRP A  1       -1.714   1.210   0.037  0.00  0.00    +0.119 HD
ENDBRANCH  12  13
BRANCH  12  16
ATOM     16  C   TRP A  1       -0.469  -0.806   1.277  0.00  0.00    +0.322 C 
ATOM     17  O   TRP A  1       -0.442  -0.375   2.431  0.00  0.00    -0.249 OA
BRANCH  16  18
ATOM     18  OXT TRP A  1       -0.863  -2.062   0.914  0.00  0.00    -0.480 OA
ATOM     19  HXT TRP A  1       -1.133  -2.591   1.668  0.00  0.00    +0.295 HD
ENDBRANCH  16  18
ENDBRANCH  12  16
ENDBRANCH  11  12
ENDBRANCH   1  11
TORSDOF 5
