REMARK  Name = DB00265
REMARK                            x       y       z     vdW  Elec       q    Type
REMARK                         _______ _______ _______ _____ _____    ______ ____
ROOT
ATOM      1  O   LIG    1       -1.847   1.156  -0.544  0.00  0.00    -0.270 OA
ATOM      2  C   LIG    1       -0.675   1.212  -0.155  0.00  0.00    +0.243 C 
ATOM      3  N   LIG    1        0.040   0.090   0.170  0.00  0.00    -0.268 N 
ENDROOT
BRANCH   3   4
ATOM      4  C   LIG    1        1.455   0.051   0.107  0.00  0.00    +0.039 A 
ATOM      5  C   LIG    1        2.104   0.289  -1.116  0.00  0.00    +0.024 A 
ATOM      6  C   LIG    1        3.493   0.236  -1.201  0.00  0.00    +0.002 A 
ATOM      7  C   LIG    1        4.249  -0.057  -0.069  0.00  0.00    +0.000 A 
ATOM      8  C   LIG    1        3.616  -0.297   1.150  0.00  0.00    +0.005 A 
ATOM      9  C   LIG    1        2.221  -0.249   1.251  0.00  0.00    -0.029 A 
ATOM     10  C   LIG    1        1.582  -0.484   2.615  0.00  0.00    +0.045 C 
ENDBRANCH   3   4
BRANCH   2  11
ATOM     11  C   LIG    1       -0.024   2.497   0.053  0.00  0.00    +0.063 C 
ATOM     12  C   LIG    1       -0.541   3.662  -0.386  0.00  0.00    -0.025 C 
ATOM     13  C   LIG    1        0.109   5.014  -0.182  0.00  0.00    +0.035 C 
ENDBRANCH   2  11
BRANCH   3  14
ATOM     14  C   LIG    1       -0.633  -1.224   0.134  0.00  0.00    +0.110 C 
ATOM     15  C   LIG    1       -0.540  -1.950  -1.220  0.00  0.00    +0.025 C 
ENDBRANCH   3  14
TORSDOF 3
