REMARK  Name = DB00556
REMARK                            x       y       z     vdW  Elec       q    Type
REMARK                         _______ _______ _______ _____ _____    ______ ____
ROOT
ATOM      1  C   LIG    1        1.500  -0.000  -0.001  0.00  0.00    +0.434 C 
ATOM      2  F   LIG    1        1.958   0.597  -1.104  0.00  0.00    -0.186 F 
ATOM      3  F   LIG    1        1.958  -1.254  -0.035  0.00  0.00    -0.186 F 
ENDROOT
BRANCH   1   4
ATOM      4  C   LIG    1       -0.048  -0.022  -0.038  0.00  0.00    +0.463 C 
ATOM      5  F   LIG    1       -0.562   1.209  -0.047  0.00  0.00    -0.165 F 
ATOM      6  F   LIG    1       -0.562  -0.645   1.023  0.00  0.00    -0.165 F 
ATOM      7  F   LIG    1       -0.498  -0.649  -1.125  0.00  0.00    -0.165 F 
ENDBRANCH   1   4
BRANCH   1   8
ATOM      8  C   LIG    1        2.078   0.718   1.244  0.00  0.00    +0.463 C 
ATOM      9  F   LIG    1        1.687   0.137   2.379  0.00  0.00    -0.165 F 
ATOM     10  F   LIG    1        1.687   1.992   1.308  0.00  0.00    -0.165 F 
ATOM     11  F   LIG    1        3.412   0.712   1.232  0.00  0.00    -0.165 F 
ENDBRANCH   1   8
TORSDOF 2
