REMARK  Name = DB00400
REMARK                            x       y       z     vdW  Elec       q    Type
REMARK                         _______ _______ _______ _____ _____    ______ ____
ROOT
ATOM      1 CL   LIG    1       -0.309  -2.365   4.236  0.00  0.00    -0.076 Cl
ATOM      2  C   LIG    1        0.143  -0.700   4.362  0.00  0.00    +0.125 A 
ATOM      3  C   LIG    1       -0.248   0.070   5.467  0.00  0.00    +0.145 A 
ATOM      4  C   LIG    1        0.146   1.423   5.531  0.00  0.00    +0.093 A 
ATOM      5  C   LIG    1        0.917   2.010   4.510  0.00  0.00    +0.138 A 
ATOM      6  C   LIG    1        1.287   1.218   3.420  0.00  0.00    +0.107 A 
ATOM      7  C   LIG    1        2.066   1.505   2.213  0.00  0.00    +0.221 C 
ATOM      8  C   LIG    1        2.067   0.173   1.440  0.00  0.00    +0.231 C 
ATOM      9  C   LIG    1        1.342   0.359   0.098  0.00  0.00    +0.152 C 
ATOM     10  C   LIG    1        1.985   0.416  -1.097  0.00  0.00    +0.091 C 
ATOM     11  C   LIG    1        3.429   0.294  -1.247  0.00  0.00    +0.160 C 
ATOM     12  C   LIG    1        4.260   0.254   0.045  0.00  0.00    +0.087 C 
ATOM     13  O   LIG    1        3.956   0.308  -2.357  0.00  0.00    -0.293 OA
ATOM     14  C   LIG    1        3.510  -0.406   1.231  0.00  0.00    +0.053 C 
ATOM     15  C   LIG    1        4.440  -0.490   2.460  0.00  0.00    +0.013 C 
ATOM     16  O   LIG    1        1.349  -0.767   2.241  0.00  0.00    -0.467 OA
ATOM     17  O   LIG    1        2.612   2.560   1.890  0.00  0.00    -0.287 OA
ATOM     18  C   LIG    1        0.905  -0.108   3.357  0.00  0.00    +0.159 A 
ENDROOT
BRANCH   9  19
ATOM     19  O   LIG    1       -0.010   0.474   0.263  0.00  0.00    -0.495 OA
ATOM     20  C   LIG    1       -0.847   0.660  -0.875  0.00  0.00    +0.276 C 
ENDBRANCH   9  19
BRANCH   5  21
ATOM     21  O   LIG    1        1.342   3.325   4.495  0.00  0.00    -0.494 OA
ATOM     22  C   LIG    1        0.987   4.180   5.576  0.00  0.00    +0.277 C 
ENDBRANCH   5  21
BRANCH   3  23
ATOM     23  O   LIG    1       -1.007  -0.557   6.440  0.00  0.00    -0.493 OA
ATOM     24  C   LIG    1       -1.434   0.179   7.580  0.00  0.00    +0.277 C 
ENDBRANCH   3  23
TORSDOF 3
