REMARK  Name = DB00496
REMARK                            x       y       z     vdW  Elec       q    Type
REMARK                         _______ _______ _______ _____ _____    ______ ____
ROOT
ATOM      1  C   LIG    1        1.664  -0.009   0.015  0.00  0.00    +0.100 C 
ENDROOT
BRANCH   1   2
ATOM      2  C   LIG    1        2.085   0.877   1.236  0.00  0.00    -0.028 A 
ATOM      3  C   LIG    1        1.173   1.310   2.214  0.00  0.00    +0.005 A 
ATOM      4  C   LIG    1        1.590   2.106   3.278  0.00  0.00    +0.000 A 
ATOM      5  C   LIG    1        2.925   2.487   3.377  0.00  0.00    +0.000 A 
ATOM      6  C   LIG    1        3.845   2.080   2.418  0.00  0.00    +0.000 A 
ATOM      7  C   LIG    1        3.427   1.283   1.357  0.00  0.00    +0.005 A 
ENDBRANCH   1   2
BRANCH   1   8
ATOM      8  C   LIG    1        1.986   0.845  -1.264  0.00  0.00    -0.028 A 
ATOM      9  C   LIG    1        1.171   1.950  -1.571  0.00  0.00    +0.005 A 
ATOM     10  C   LIG    1        1.422   2.752  -2.680  0.00  0.00    +0.000 A 
ATOM     11  C   LIG    1        2.510   2.475  -3.499  0.00  0.00    +0.000 A 
ATOM     12  C   LIG    1        3.354   1.410  -3.207  0.00  0.00    +0.000 A 
ATOM     13  C   LIG    1        3.100   0.610  -2.096  0.00  0.00    +0.005 A 
ENDBRANCH   1   8
BRANCH   1  15
ATOM     14  O   LIG    1        2.551  -2.086  -0.954  0.00  0.00    -0.275 OA
ATOM     15  C   LIG    1        2.449  -1.383   0.051  0.00  0.00    +0.226 C 
ATOM     16  N   LIG    1        2.957  -1.826   1.209  0.00  0.00    -0.328 N 
ATOM     17  H   LIG    1        3.437  -2.713   1.244  0.00  0.00    +0.145 HD
ATOM     18  H   LIG    1        2.868  -1.273   2.049  0.00  0.00    +0.145 HD
ENDBRANCH   1  15
BRANCH   1  19
ATOM     19  C   LIG    1        0.108  -0.368   0.011  0.00  0.00    +0.028 C 
ATOM     20  C   LIG    1       -0.433  -1.007  -1.290  0.00  0.00    +0.089 C 
ATOM     21  N   LIG    1       -1.603  -1.782  -0.902  0.00  0.00    -0.302 NA
ATOM     22  C   LIG    1       -1.163  -2.427   0.324  0.00  0.00    +0.085 C 
ATOM     23  C   LIG    1       -0.438  -1.328   1.101  0.00  0.00    +0.022 C 
BRANCH  21  24
ATOM     24  C   LIG    1       -2.072  -2.732  -1.913  0.00  0.00    +0.089 C 
BRANCH  24  25
ATOM     25  C   LIG    1       -2.560  -2.065  -3.221  0.00  0.00    +0.050 C 
BRANCH  25  26
ATOM     26  C   LIG    1       -3.583  -0.951  -3.025  0.00  0.00    -0.046 A 
ATOM     27  C   LIG    1       -3.249   0.377  -3.335  0.00  0.00    +0.007 A 
ATOM     28  C   LIG    1       -4.181   1.403  -3.162  0.00  0.00    +0.046 A 
ATOM     29  C   LIG    1       -5.438   1.077  -2.663  0.00  0.00    +0.124 A 
ATOM     30  C   LIG    1       -5.787  -0.223  -2.349  0.00  0.00    -0.002 A 
ATOM     31  C   LIG    1       -7.217  -0.225  -1.919  0.00  0.00    +0.080 C 
ATOM     32  C   LIG    1       -7.521   1.277  -1.824  0.00  0.00    +0.234 C 
ATOM     33  O   LIG    1       -6.457   1.975  -2.474  0.00  0.00    -0.491 OA
ATOM     34  C   LIG    1       -4.864  -1.252  -2.540  0.00  0.00    +0.011 A 
ENDBRANCH  25  26
ENDBRANCH  24  25
ENDBRANCH  21  24
ENDBRANCH   1  19
TORSDOF 7
