REMARK  Name = DB00621
REMARK                            x       y       z     vdW  Elec       q    Type
REMARK                         _______ _______ _______ _____ _____    ______ ____
ROOT
ATOM      1  C   LIG    1        1.405   0.070  -0.039  0.00  0.00    +0.069 C 
ATOM      2  C   LIG    1        1.918   0.866  -1.270  0.00  0.00    +0.042 C 
ATOM      3  C   LIG    1        1.966   0.675   1.280  0.00  0.00    +0.035 C 
ATOM      4  C   LIG    1        3.120  -0.234   1.750  0.00  0.00    +0.007 C 
ATOM      5  C   LIG    1        3.287  -1.263   0.627  0.00  0.00    +0.001 C 
ATOM      6  C   LIG    1        3.972  -2.624   0.933  0.00  0.00    -0.004 C 
ATOM      7  C   LIG    1        5.392  -2.432   1.523  0.00  0.00    +0.004 C 
ATOM      8  C   LIG    1        6.105  -3.777   1.759  0.00  0.00    +0.005 C 
ATOM      9  C   LIG    1        6.145  -4.628   0.466  0.00  0.00    +0.009 C 
ATOM     10  C   LIG    1        6.938  -5.933   0.646  0.00  0.00    +0.124 C 
ATOM     11  C   LIG    1        6.903  -6.867  -0.577  0.00  0.00    +0.307 C 
ATOM     12  O   LIG    1        7.765  -7.693  -0.868  0.00  0.00    -0.251 OA
ATOM     13  O   LIG    1        5.851  -6.770  -1.446  0.00  0.00    -0.464 OA
ATOM     14  C   LIG    1        4.926  -5.673  -1.432  0.00  0.00    +0.239 C 
ATOM     15  C   LIG    1        4.720  -4.895  -0.105  0.00  0.00    +0.009 C 
ATOM     16  C   LIG    1        3.866  -5.774   0.859  0.00  0.00    +0.015 C 
ATOM     17  C   LIG    1        4.060  -3.490  -0.374  0.00  0.00    +0.002 C 
ATOM     18  C   LIG    1        2.710  -3.552  -1.161  0.00  0.00    +0.005 C 
ATOM     19  C   LIG    1        2.061  -2.158  -1.342  0.00  0.00    +0.010 C 
ATOM     20  C   LIG    1        1.872  -1.429   0.019  0.00  0.00    -0.000 C 
ATOM     21  C   LIG    1        0.898  -2.243   0.937  0.00  0.00    +0.014 C 
ENDROOT
BRANCH   1  22
ATOM     22  O   LIG    1        0.001   0.248  -0.136  0.00  0.00    -0.388 OA
ATOM     23  H   LIG    1       -0.188   1.189  -0.118  0.00  0.00    +0.210 HD
ENDBRANCH   1  22
TORSDOF 1
