REMARK  Name = DB00091
REMARK                            x       y       z     vdW  Elec       q    Type
REMARK                         _______ _______ _______ _____ _____    ______ ____
ROOT
ATOM      1  C   LIG    1        0.903   0.492  -0.452  0.00  0.00    +0.190 C 
ATOM      2  C   LIG    1       -0.334  -0.399  -0.199  0.00  0.00    +0.237 C 
ATOM      3  O   LIG    1       -0.643  -1.248  -1.034  0.00  0.00    -0.274 OA
ATOM      4  N   LIG    1       -1.013  -0.166   0.935  0.00  0.00    -0.302 N 
ATOM      5  H   LIG    1       -0.695   0.561   1.561  0.00  0.00    +0.150 HD
ATOM      6  C   LIG    1       -2.231  -0.863   1.352  0.00  0.00    +0.159 C 
ATOM      7  C   LIG    1       -3.002  -0.018   2.403  0.00  0.00    +0.236 C 
ATOM      8  O   LIG    1       -2.336   0.652   3.200  0.00  0.00    -0.274 OA
ATOM      9  N   LIG    1       -4.364  -0.057   2.437  0.00  0.00    -0.294 N 
ATOM     10  C   LIG    1       -5.180  -0.891   1.545  0.00  0.00    +0.132 C 
ATOM     11  C   LIG    1       -5.102   0.713   3.456  0.00  0.00    +0.203 C 
ATOM     12  C   LIG    1       -5.454  -0.142   4.699  0.00  0.00    +0.233 C 
ATOM     13  N   LIG    1       -6.292   0.365   5.648  0.00  0.00    -0.292 N 
ATOM     14  C   LIG    1       -6.619  -0.475   6.817  0.00  0.00    +0.133 C 
ATOM     15  C   LIG    1       -6.921   1.714   5.542  0.00  0.00    +0.162 C 
ATOM     16  C   LIG    1       -6.521   2.733   6.637  0.00  0.00    +0.234 C 
ATOM     17  O   LIG    1       -6.461   3.921   6.323  0.00  0.00    -0.274 OA
ATOM     18  N   LIG    1       -6.271   2.289   7.883  0.00  0.00    -0.302 N 
ATOM     19  H   LIG    1       -6.314   1.298   8.070  0.00  0.00    +0.150 HD
ATOM     20  C   LIG    1       -6.019   3.146   9.051  0.00  0.00    +0.162 C 
ATOM     21  C   LIG    1       -4.722   4.000   8.894  0.00  0.00    +0.237 C 
ATOM     22  O   LIG    1       -3.695   3.402   8.565  0.00  0.00    -0.274 OA
ATOM     23  N   LIG    1       -4.770   5.358   9.063  0.00  0.00    -0.291 N 
ATOM     24  C   LIG    1       -5.973   6.037   9.567  0.00  0.00    +0.133 C 
ATOM     25  C   LIG    1       -3.650   6.297   8.763  0.00  0.00    +0.162 C 
ATOM     26  C   LIG    1       -3.311   6.478   7.263  0.00  0.00    +0.234 C 
ATOM     27  O   LIG    1       -3.066   7.611   6.850  0.00  0.00    -0.274 OA
ATOM     28  N   LIG    1       -3.301   5.383   6.486  0.00  0.00    -0.303 N 
ATOM     29  H   LIG    1       -3.525   4.492   6.908  0.00  0.00    +0.149 HD
ATOM     30  C   LIG    1       -2.912   5.326   5.079  0.00  0.00    +0.156 C 
ATOM     31  C   LIG    1       -2.774   3.850   4.682  0.00  0.00    +0.038 C 
ATOM     32  C   LIG    1       -3.863   6.063   4.120  0.00  0.00    +0.234 C 
ATOM     33  O   LIG    1       -3.379   6.704   3.188  0.00  0.00    -0.274 OA
ATOM     34  N   LIG    1       -5.182   5.983   4.367  0.00  0.00    -0.303 N 
ATOM     35  H   LIG    1       -5.519   5.442   5.152  0.00  0.00    +0.149 HD
ATOM     36  C   LIG    1       -6.196   6.641   3.547  0.00  0.00    +0.156 C 
ATOM     37  C   LIG    1       -6.383   8.094   4.018  0.00  0.00    +0.038 C 
ATOM     38  C   LIG    1       -7.520   5.860   3.588  0.00  0.00    +0.236 C 
ATOM     39  O   LIG    1       -8.051   5.750   4.696  0.00  0.00    -0.274 OA
ATOM     40  N   LIG    1       -8.083   5.389   2.436  0.00  0.00    -0.291 N 
ATOM     41  C   LIG    1       -9.408   4.750   2.498  0.00  0.00    +0.133 C 
ATOM     42  C   LIG    1       -7.503   5.399   1.065  0.00  0.00    +0.162 C 
ATOM     43  C   LIG    1       -6.256   4.472   0.861  0.00  0.00    +0.236 C 
ATOM     44  O   LIG    1       -6.473   3.306   1.200  0.00  0.00    -0.274 OA
ATOM     45  N   LIG    1       -5.090   4.831   0.232  0.00  0.00    -0.291 N 
ATOM     46  C   LIG    1       -4.624   6.211   0.042  0.00  0.00    +0.133 C 
ATOM     47  C   LIG    1       -4.199   3.768  -0.326  0.00  0.00    +0.162 C 
ATOM     48  C   LIG    1       -2.714   3.765   0.145  0.00  0.00    +0.236 C 
ATOM     49  O   LIG    1       -2.517   3.101   1.161  0.00  0.00    -0.274 OA
ATOM     50  N   LIG    1       -1.701   4.395  -0.534  0.00  0.00    -0.291 N 
ATOM     51  C   LIG    1       -1.925   5.300  -1.668  0.00  0.00    +0.133 C 
ATOM     52  C   LIG    1       -0.242   4.267  -0.223  0.00  0.00    +0.164 C 
ATOM     53  C   LIG    1        0.271   2.852   0.205  0.00  0.00    +0.237 C 
ATOM     54  O   LIG    1        0.420   2.637   1.407  0.00  0.00    -0.274 OA
ATOM     55  O   LIG    1       -4.949  -1.265   4.799  0.00  0.00    -0.274 OA
ATOM     56  N   LIG    1        0.495   1.897  -0.749  0.00  0.00    -0.289 N 
ATOM     57  C   LIG    1        0.166   2.092  -2.170  0.00  0.00    +0.133 C 
ENDROOT
BRANCH  20  58
ATOM     58  C   LIG    1       -5.946   2.307  10.371  0.00  0.00    +0.012 C 
ATOM     59  C   LIG    1       -7.303   1.652  10.691  0.00  0.00    +0.009 C 
ATOM     60  C   LIG    1       -4.829   1.240  10.434  0.00  0.00    +0.009 C 
ENDBRANCH  20  58
BRANCH  52  61
ATOM     61  C   LIG    1        0.275   5.405   0.725  0.00  0.00    +0.012 C 
ATOM     62  C   LIG    1       -0.383   5.471   2.118  0.00  0.00    +0.009 C 
ATOM     63  C   LIG    1        1.811   5.440   0.857  0.00  0.00    +0.009 C 
ENDBRANCH  52  61
BRANCH   6  64
ATOM     64  C   LIG    1       -1.944  -2.306   1.853  0.00  0.00    +0.028 C 
ATOM     65  C   LIG    1       -0.992  -2.417   3.060  0.00  0.00    +0.006 C 
ENDBRANCH   6  64
BRANCH   1  66
ATOM     66  C   LIG    1        2.063   0.275   0.587  0.00  0.00    +0.147 C 
BRANCH  66  67
ATOM     67  O   LIG    1        3.178   1.056   0.186  0.00  0.00    -0.389 OA
ATOM     68  H   LIG    1        2.878   1.954   0.030  0.00  0.00    +0.210 HD
ENDBRANCH  66  67
BRANCH  66  69
ATOM     69  C   LIG    1        2.529  -1.204   0.795  0.00  0.00    +0.021 C 
ATOM     70  C   LIG    1        3.548  -1.320   1.952  0.00  0.00    +0.010 C 
BRANCH  69  71
ATOM     71  C   LIG    1        3.042  -1.892  -0.498  0.00  0.00    +0.032 C 
BRANCH  71  72
ATOM     72  C   LIG    1        3.294  -3.383  -0.354  0.00  0.00    -0.031 C 
ATOM     73  C   LIG    1        4.489  -3.978  -0.507  0.00  0.00    -0.034 C 
ATOM     74  C   LIG    1        4.735  -5.464  -0.359  0.00  0.00    +0.035 C 
ENDBRANCH  71  72
ENDBRANCH  69  71
ENDBRANCH  66  69
ENDBRANCH   1  66
BRANCH  15  75
ATOM     75  C   LIG    1       -8.472   1.623   5.468  0.00  0.00    +0.035 C 
BRANCH  75  76
ATOM     76  C   LIG    1       -9.057   0.697   4.374  0.00  0.00    -0.015 C 
ATOM     77  C   LIG    1      -10.579   0.513   4.562  0.00  0.00    +0.007 C 
ATOM     78  C   LIG    1       -8.693   1.159   2.947  0.00  0.00    +0.007 C 
ENDBRANCH  75  76
ENDBRANCH  15  75
BRANCH  25  79
ATOM     79  C   LIG    1       -2.414   6.013   9.667  0.00  0.00    +0.035 C 
BRANCH  79  80
ATOM     80  C   LIG    1       -1.289   7.081   9.649  0.00  0.00    -0.015 C 
ATOM     81  C   LIG    1       -0.536   7.125  10.999  0.00  0.00    +0.007 C 
ATOM     82  C   LIG    1       -0.319   6.907   8.457  0.00  0.00    +0.007 C 
ENDBRANCH  79  80
ENDBRANCH  25  79
BRANCH  42  83
ATOM     83  C   LIG    1       -7.675   6.784   0.378  0.00  0.00    +0.035 C 
BRANCH  83  84
ATOM     84  C   LIG    1       -7.664   6.760  -1.172  0.00  0.00    -0.015 C 
ATOM     85  C   LIG    1       -8.897   6.029  -1.751  0.00  0.00    +0.007 C 
ATOM     86  C   LIG    1       -7.495   8.181  -1.752  0.00  0.00    +0.007 C 
ENDBRANCH  83  84
ENDBRANCH  42  83
BRANCH  47  87
ATOM     87  C   LIG    1       -4.505   3.514  -1.832  0.00  0.00    +0.035 C 
BRANCH  87  88
ATOM     88  C   LIG    1       -3.689   2.392  -2.521  0.00  0.00    -0.015 C 
ATOM     89  C   LIG    1       -3.807   1.037  -1.793  0.00  0.00    +0.007 C 
ATOM     90  C   LIG    1       -4.052   2.283  -4.016  0.00  0.00    +0.007 C 
ENDBRANCH  87  88
ENDBRANCH  47  87
TORSDOF 16
