REMARK  Name = DB00794
REMARK                            x       y       z     vdW  Elec       q    Type
REMARK                         _______ _______ _______ _____ _____    ______ ____
ROOT
ATOM      1  O   LIG    1        0.075  -0.915  -2.346  0.00  0.00    -0.274 OA
ATOM      2  C   LIG    1       -0.570  -0.791  -1.305  0.00  0.00    +0.234 C 
ATOM      3  C   LIG    1       -0.065  -0.053   0.000  0.00  0.00    +0.147 C 
ATOM      4  C   LIG    1       -0.570  -0.791   1.305  0.00  0.00    +0.234 C 
ATOM      5  N   LIG    1       -1.827  -1.282   1.198  0.00  0.00    -0.299 N 
ATOM      6  H   LIG    1       -2.235  -1.767   1.984  0.00  0.00    +0.150 HD
ATOM      7  C   LIG    1       -2.640  -1.024  -0.000  0.00  0.00    +0.212 C 
ATOM      8  O   LIG    1        0.075  -0.915   2.346  0.00  0.00    -0.274 OA
ATOM      9  N   LIG    1       -1.827  -1.282  -1.198  0.00  0.00    -0.299 N 
ATOM     10  H   LIG    1       -2.235  -1.767  -1.984  0.00  0.00    +0.150 HD
ENDROOT
BRANCH   3  11
ATOM     11  C   LIG    1       -0.551   1.443  -0.000  0.00  0.00    -0.024 A 
ATOM     12  C   LIG    1       -0.711   2.160   1.203  0.00  0.00    +0.005 A 
ATOM     13  C   LIG    1       -1.089   3.500   1.205  0.00  0.00    +0.000 A 
ATOM     14  C   LIG    1       -1.284   4.164   0.000  0.00  0.00    +0.000 A 
ATOM     15  C   LIG    1       -1.089   3.500  -1.205  0.00  0.00    +0.000 A 
ATOM     16  C   LIG    1       -0.712   2.160  -1.203  0.00  0.00    +0.005 A 
ENDBRANCH   3  11
BRANCH   3  17
ATOM     17  C   LIG    1        1.509  -0.046   0.000  0.00  0.00    +0.027 C 
ATOM     18  C   LIG    1        2.246  -1.407   0.000  0.00  0.00    +0.006 C 
ENDBRANCH   3  17
TORSDOF 2
