REMARK  Name = DB00816
REMARK                            x       y       z     vdW  Elec       q    Type
REMARK                         _______ _______ _______ _____ _____    ______ ____
ROOT
ATOM      1  C   LIG    1       -0.563   1.477  -0.016  0.00  0.00    -0.011 A 
ATOM      2  C   LIG    1       -0.622   2.344   1.084  0.00  0.00    +0.051 A 
ATOM      3  C   LIG    1       -1.149   3.628   0.943  0.00  0.00    +0.121 A 
ATOM      4  C   LIG    1       -1.614   4.059  -0.299  0.00  0.00    +0.090 A 
ATOM      5  C   LIG    1       -1.551   3.206  -1.401  0.00  0.00    +0.121 A 
ATOM      6  C   LIG    1       -1.028   1.920  -1.260  0.00  0.00    +0.051 A 
ENDROOT
BRANCH   5   7
ATOM      7  O   LIG    1       -2.002   3.633  -2.622  0.00  0.00    -0.507 OA
ATOM      8  H   LIG    1       -1.900   2.972  -3.310  0.00  0.00    +0.292 HD
ENDBRANCH   5   7
BRANCH   3   9
ATOM      9  O   LIG    1       -1.208   4.467   2.024  0.00  0.00    -0.507 OA
ATOM     10  H   LIG    1       -0.863   4.069   2.826  0.00  0.00    +0.292 HD
ENDBRANCH   3   9
BRANCH   1  11
ATOM     11  C   LIG    1        0.021   0.068   0.122  0.00  0.00    +0.158 C 
BRANCH  11  12
ATOM     12  O   LIG    1       -0.410  -0.587   1.301  0.00  0.00    -0.386 OA
ATOM     13  H   LIG    1       -1.361  -0.712   1.249  0.00  0.00    +0.210 HD
ENDBRANCH  11  12
BRANCH  11  14
ATOM     14  C   LIG    1        1.566   0.049   0.108  0.00  0.00    +0.117 C 
BRANCH  14  15
ATOM     15  N   LIG    1        2.084   0.513  -1.177  0.00  0.00    -0.311 NA
ATOM     16  H   LIG    1        1.638   0.017  -1.936  0.00  0.00    +0.122 HD
BRANCH  15  17
ATOM     17  C   LIG    1        3.537   0.422  -1.305  0.00  0.00    +0.048 C 
ATOM     18  C   LIG    1        3.890   0.693  -2.777  0.00  0.00    +0.023 C 
ATOM     19  C   LIG    1        4.260   1.408  -0.364  0.00  0.00    +0.023 C 
ENDBRANCH  15  17
ENDBRANCH  14  15
ENDBRANCH  11  14
ENDBRANCH   1  11
TORSDOF 7
