REMARK  Name = DB00141
REMARK                            x       y       z     vdW  Elec       q    Type
REMARK                         _______ _______ _______ _____ _____    ______ ____
ROOT
ATOM      1  C   LIG    1        0.066   0.169   0.049  0.00  0.00    +0.173 C 
ENDROOT
BRANCH   1   2
ATOM      2  O   LIG    1       -0.408   1.510   0.080  0.00  0.00    -0.387 OA
ATOM      3  H   LIG    1       -0.415   1.855  -0.816  0.00  0.00    +0.210 HD
ENDBRANCH   1   2
BRANCH   1   4
ATOM      4  CA  LIG    1       -0.446  -0.649   1.281  0.00  0.00    +0.167 C 
BRANCH   4   5
ATOM      5  N   LIG    1       -0.188  -0.011   2.581  0.00  0.00    -0.304 N 
ATOM      6  H   LIG    1       -0.485   0.952   2.650  0.00  0.00    +0.149 HD
ATOM      7  C   LIG    1        0.459  -0.566   3.621  0.00  0.00    +0.211 C 
ATOM      8  C   LIG    1        0.647   0.312   4.854  0.00  0.00    +0.109 C 
ATOM      9  O   LIG    1        0.897  -1.716   3.617  0.00  0.00    -0.276 OA
ENDBRANCH   4   5
BRANCH   4  10
ATOM     10  C   LIG    1       -1.945  -0.899   1.285  0.00  0.00    +0.248 C 
ATOM     11  O   LIG    1       -2.659  -0.789   0.288  0.00  0.00    -0.299 OA
ENDBRANCH   4  10
ENDBRANCH   1   4
BRANCH   1  12
ATOM     12  C   LIG    1        1.619   0.144  -0.123  0.00  0.00    +0.176 C 
BRANCH  12  13
ATOM     13  O   LIG    1        2.257   0.791   0.967  0.00  0.00    -0.387 OA
ATOM     14  H   LIG    1        1.937   0.398   1.783  0.00  0.00    +0.210 HD
ENDBRANCH  12  13
BRANCH  12  15
ATOM     15  C   LIG    1        2.142   0.749  -1.460  0.00  0.00    +0.171 C 
BRANCH  15  16
ATOM     16  O   LIG    1        1.521   0.096  -2.557  0.00  0.00    -0.387 OA
ATOM     17  H   LIG    1        0.570   0.202  -2.480  0.00  0.00    +0.210 HD
ENDBRANCH  15  16
BRANCH  15  18
ATOM     18  C   LIG    1        3.677   0.636  -1.637  0.00  0.00    +0.189 C 
BRANCH  18  19
ATOM     19  O   LIG    1        4.129   1.393  -2.744  0.00  0.00    -0.392 OA
ATOM     20  H   LIG    1        5.081   1.295  -2.813  0.00  0.00    +0.210 HD
ENDBRANCH  18  19
ENDBRANCH  15  18
ENDBRANCH  12  15
ENDBRANCH   1  12
TORSDOF 10
