REMARK  Name = DB00194
REMARK                            x       y       z     vdW  Elec       q    Type
REMARK                         _______ _______ _______ _____ _____    ______ ____
ROOT
ATOM      1  O4*   A A  1        2.070   0.953   0.659  0.00  0.00    -0.346 OA
ATOM      2  C4*   A A  1        3.422   1.167   0.291  0.00  0.00    +0.177 C 
ATOM      3  C3*   A A  1        3.443   0.911  -1.227  0.00  0.00    +0.178 C 
ATOM      4  C2*   A A  1        2.141   0.163  -1.566  0.00  0.00    +0.195 C 
ATOM      5  C1*   A A  1        1.511  -0.005  -0.176  0.00  0.00    +0.253 C 
ENDROOT
BRANCH   5   6
ATOM      6  N9    A A  1       -0.003  -0.038  -0.071  0.00  0.00    -0.286 N 
ATOM      7  C8    A A  1       -0.803  -1.117   0.055  0.00  0.00    +0.203 A 
ATOM      8  N7    A A  1       -2.078  -0.825   0.116  0.00  0.00    -0.231 NA
ATOM      9  C5    A A  1       -2.117   0.514   0.029  0.00  0.00    +0.147 A 
ATOM     10  C6    A A  1       -3.200   1.425   0.035  0.00  0.00    +0.147 A 
ATOM     11  N1    A A  1       -2.926   2.754  -0.071  0.00  0.00    -0.219 NA
ATOM     12  C2    A A  1       -1.641   3.123  -0.175  0.00  0.00    +0.225 A 
ATOM     13  N3    A A  1       -0.537   2.360  -0.192  0.00  0.00    -0.216 NA
ATOM     14  C4    A A  1       -0.842   1.043  -0.087  0.00  0.00    +0.167 A 
BRANCH  10  15
ATOM     15  N6    A A  1       -4.530   1.024   0.142  0.00  0.00    -0.341 N 
ATOM     16  H61   A A  1       -5.258   1.722   0.137  0.00  0.00    +0.144 HD
ATOM     17  H62   A A  1       -4.745   0.040   0.214  0.00  0.00    +0.144 HD
ENDBRANCH  10  15
ENDBRANCH   5   6
BRANCH   4  18
ATOM     18  O2*   A A  1        1.305   0.890  -2.451  0.00  0.00    -0.385 OA
ATOM     19  H2*   A A  1        0.549   0.345  -2.679  0.00  0.00    +0.210 HD
ENDBRANCH   4  18
BRANCH   3  20
ATOM     20  O3*   A A  1        4.592   0.187  -1.630  0.00  0.00    -0.386 OA
ATOM     21  H3*   A A  1        4.595  -0.660  -1.180  0.00  0.00    +0.210 HD
ENDBRANCH   3  20
BRANCH   2  22
ATOM     22  C5*   A A  1        3.870   2.567   0.760  0.00  0.00    +0.190 C 
BRANCH  22  23
ATOM     23  O5*   A A  1        3.090   3.603   0.194  0.00  0.00    -0.392 OA
ATOM     24  H5*   A A  1        3.390   4.443   0.546  0.00  0.00    +0.210 HD
ENDBRANCH  22  23
ENDBRANCH   2  22
TORSDOF 6
