REMARK  Name = DB00420
REMARK                            x       y       z     vdW  Elec       q    Type
REMARK                         _______ _______ _______ _____ _____    ______ ____
ROOT
ATOM      1  S   LIG    1        6.019  -2.566  -4.319  0.00  0.00    -0.086 S 
ATOM      2  C   LIG    1        4.917  -3.340  -3.191  0.00  0.00    +0.034 A 
ATOM      3  C   LIG    1        4.855  -4.735  -3.193  0.00  0.00    +0.017 A 
ATOM      4  C   LIG    1        4.021  -5.407  -2.307  0.00  0.00    +0.001 A 
ATOM      5  C   LIG    1        3.246  -4.682  -1.410  0.00  0.00    +0.002 A 
ATOM      6  C   LIG    1        3.322  -3.291  -1.391  0.00  0.00    +0.024 A 
ATOM      7  C   LIG    1        4.191  -2.580  -2.246  0.00  0.00    +0.048 A 
ATOM      8  N   LIG    1        4.214  -1.166  -2.295  0.00  0.00    -0.298 N 
ATOM      9  C   LIG    1        4.405  -0.471  -3.511  0.00  0.00    +0.048 A 
ATOM     10  C   LIG    1        3.731   0.731  -3.807  0.00  0.00    +0.024 A 
ATOM     11  C   LIG    1        3.858   1.361  -5.043  0.00  0.00    +0.002 A 
ATOM     12  C   LIG    1        4.646   0.792  -6.035  0.00  0.00    +0.001 A 
ATOM     13  C   LIG    1        5.292  -0.414  -5.791  0.00  0.00    +0.017 A 
ATOM     14  C   LIG    1        5.148  -1.060  -4.560  0.00  0.00    +0.034 A 
ENDROOT
BRANCH   8  15
ATOM     15  C   LIG    1        3.687  -0.430  -1.125  0.00  0.00    +0.112 C 
BRANCH  15  16
ATOM     16  C   LIG    1        2.141  -0.323  -1.052  0.00  0.00    +0.035 C 
BRANCH  16  17
ATOM     17  C   LIG    1        1.597  -0.151   0.383  0.00  0.00    +0.085 C 
BRANCH  17  18
ATOM     18  N   LIG    1        0.163  -0.439   0.490  0.00  0.00    -0.308 NA
ATOM     19  C   LIG    1       -0.239  -0.431   1.893  0.00  0.00    +0.104 C 
ATOM     20  C   LIG    1       -0.653   0.522  -0.250  0.00  0.00    +0.104 C 
ENDBRANCH  17  18
ENDBRANCH  16  17
ENDBRANCH  15  16
ENDBRANCH   8  15
TORSDOF 4
