REMARK  Name = DB00393
REMARK                            x       y       z     vdW  Elec       q    Type
REMARK                         _______ _______ _______ _____ _____    ______ ____
ROOT
ATOM      1  C   LIG    1       -2.309  -0.990  -0.076  0.00  0.00    +0.065 C 
ATOM      2  C   LIG    1       -2.869   0.253  -0.018  0.00  0.00    +0.016 C 
ATOM      3  C   LIG    1       -4.342   0.621   0.159  0.00  0.00    +0.061 C 
ATOM      4  N   LIG    1       -2.065   1.369  -0.013  0.00  0.00    -0.321 N 
ATOM      5  H   LIG    1       -2.525   2.268  -0.048  0.00  0.00    +0.152 HD
ATOM      6  C   LIG    1       -0.690   1.365  -0.051  0.00  0.00    +0.016 C 
ATOM      7  C   LIG    1       -0.119   2.776   0.094  0.00  0.00    +0.061 C 
ATOM      8  C   LIG    1       -0.012   0.182  -0.113  0.00  0.00    +0.065 C 
ATOM      9  C   LIG    1       -0.767  -1.180  -0.242  0.00  0.00    +0.096 C 
ENDROOT
BRANCH   9  10
ATOM     10  C   LIG    1       -0.392  -1.959  -1.521  0.00  0.00    -0.033 A 
ATOM     11  C   LIG    1       -0.637  -1.400  -2.779  0.00  0.00    +0.005 A 
ATOM     12  C   LIG    1       -0.299  -2.096  -3.937  0.00  0.00    +0.003 A 
ATOM     13  C   LIG    1        0.286  -3.357  -3.848  0.00  0.00    +0.032 A 
ATOM     14  C   LIG    1        0.544  -3.943  -2.600  0.00  0.00    +0.122 A 
ATOM     15  C   LIG    1        0.199  -3.228  -1.444  0.00  0.00    +0.037 A 
BRANCH  14  16
ATOM     16  N   LIG    1        1.167  -5.285  -2.501  0.00  0.00    +0.006 N 
ATOM     17  O   LIG    1        1.446  -5.880  -3.538  0.00  0.00    -0.130 OA
BRANCH  16  18
ATOM     18  O   LIG    1        1.383  -5.753  -1.386  0.00  0.00    -0.396 OA
ATOM     19  H   LIG    1        1.776  -6.599  -1.302  0.00  0.00    +0.329 HD
ENDBRANCH  16  18
ENDBRANCH  14  16
ENDBRANCH   9  10
BRANCH   1  20
ATOM     20  C   LIG    1       -3.142  -2.228  -0.100  0.00  0.00    +0.338 C 
ATOM     21  O   LIG    1       -4.346  -2.244  -0.365  0.00  0.00    -0.245 OA
BRANCH  20  22
ATOM     22  O   LIG    1       -2.434  -3.357   0.178  0.00  0.00    -0.459 OA
BRANCH  22  23
ATOM     23  C   LIG    1       -3.006  -4.664   0.125  0.00  0.00    +0.171 C 
ATOM     24  C   LIG    1       -3.167  -5.141  -1.333  0.00  0.00    +0.052 C 
ATOM     25  C   LIG    1       -2.085  -5.598   0.924  0.00  0.00    +0.052 C 
ENDBRANCH  22  23
ENDBRANCH  20  22
ENDBRANCH   1  20
BRANCH   8  26
ATOM     26  C   LIG    1        1.479   0.131  -0.166  0.00  0.00    +0.338 C 
ATOM     27  O   LIG    1        2.196   1.103  -0.419  0.00  0.00    -0.245 OA
BRANCH  26  28
ATOM     28  O   LIG    1        1.983  -1.108   0.067  0.00  0.00    -0.459 OA
BRANCH  28  29
ATOM     29  C   LIG    1        3.380  -1.372   0.021  0.00  0.00    +0.260 C 
BRANCH  29  30
ATOM     30  C   LIG    1        3.565  -2.889   0.152  0.00  0.00    +0.200 C 
BRANCH  30  31
ATOM     31  O   LIG    1        4.951  -3.192   0.125  0.00  0.00    -0.380 OA
ATOM     32  C   LIG    1        5.223  -4.582   0.228  0.00  0.00    +0.194 C 
ENDBRANCH  30  31
ENDBRANCH  29  30
ENDBRANCH  28  29
ENDBRANCH  26  28
ENDBRANCH   8  26
TORSDOF 11
