REMARK  Name = DB00236
REMARK                            x       y       z     vdW  Elec       q    Type
REMARK                         _______ _______ _______ _____ _____    ______ ____
ROOT
ATOM      1  C   LIG    1        0.104   0.021   0.008  0.00  0.00    +0.216 C 
ATOM      2  N   LIG    1       -0.431  -1.229  -0.046  0.00  0.00    -0.298 N 
ATOM      3  C   LIG    1        0.370  -2.466  -0.127  0.00  0.00    +0.126 C 
ATOM      4  C   LIG    1        0.026  -3.185  -1.455  0.00  0.00    +0.126 C 
ATOM      5  N   LIG    1       -1.434  -3.396  -1.506  0.00  0.00    -0.298 N 
ATOM      6  C   LIG    1       -1.968  -4.646  -1.561  0.00  0.00    +0.216 C 
ATOM      7  O   LIG    1       -1.265  -5.659  -1.599  0.00  0.00    -0.276 OA
ATOM      8  C   LIG    1       -2.234  -2.159  -1.425  0.00  0.00    +0.126 C 
ATOM      9  C   LIG    1       -1.891  -1.440  -0.097  0.00  0.00    +0.126 C 
ATOM     10  O   LIG    1       -0.600   1.034   0.046  0.00  0.00    -0.276 OA
ENDROOT
BRANCH   1  11
ATOM     11  C   LIG    1        1.640   0.180   0.023  0.00  0.00    +0.107 C 
BRANCH  11  13
ATOM     12 BR   LIG    1        4.124   1.667   0.074  0.00  0.00    -0.091 Br
ATOM     13  C   LIG    1        2.134   1.638   0.076  0.00  0.00    +0.089 C 
ENDBRANCH  11  13
ENDBRANCH   1  11
BRANCH   6  14
ATOM     14  C   LIG    1       -3.505  -4.805  -1.576  0.00  0.00    +0.107 C 
BRANCH  14  15
ATOM     15  C   LIG    1       -3.999  -6.264  -1.629  0.00  0.00    +0.089 C 
ATOM     16 BR   LIG    1       -5.989  -6.293  -1.627  0.00  0.00    -0.091 Br
ENDBRANCH  14  15
ENDBRANCH   6  14
TORSDOF 4
