REMARK  Name = DB00940
REMARK                            x       y       z     vdW  Elec       q    Type
REMARK                         _______ _______ _______ _____ _____    ______ ____
ROOT
ATOM      1  C   LIG    1        4.152  -3.075   2.069  0.00  0.00    +0.164 C 
ATOM      2  C   LIG    1        3.063  -3.449   3.079  0.00  0.00    +0.013 A 
ATOM      3  C   LIG    1        2.293  -2.495   3.755  0.00  0.00    +0.008 A 
ATOM      4  C   LIG    1        1.329  -2.882   4.688  0.00  0.00    +0.001 A 
ATOM      5  C   LIG    1        1.133  -4.234   4.970  0.00  0.00    +0.004 A 
ATOM      6  C   LIG    1        1.898  -5.201   4.320  0.00  0.00    +0.046 A 
ATOM      7  C   LIG    1        2.846  -4.807   3.376  0.00  0.00    +0.133 A 
ATOM      8  O   LIG    1        3.607  -5.796   2.788  0.00  0.00    -0.455 OA
ATOM      9  C   LIG    1        4.887  -5.481   2.380  0.00  0.00    +0.133 A 
ATOM     10  C   LIG    1        5.839  -6.499   2.399  0.00  0.00    +0.046 A 
ATOM     11  C   LIG    1        7.152  -6.219   2.023  0.00  0.00    +0.004 A 
ATOM     12  C   LIG    1        7.509  -4.925   1.643  0.00  0.00    +0.001 A 
ATOM     13  C   LIG    1        6.554  -3.907   1.644  0.00  0.00    +0.008 A 
ATOM     14  C   LIG    1        5.229  -4.166   2.013  0.00  0.00    +0.013 A 
ENDROOT
BRANCH   1  15
ATOM     15  C   LIG    1        3.488  -2.891   0.686  0.00  0.00    +0.319 C 
ATOM     16  O   LIG    1        3.537  -3.749  -0.201  0.00  0.00    -0.250 OA
BRANCH  15  17
ATOM     17  O   LIG    1        2.858  -1.699   0.584  0.00  0.00    -0.466 OA
BRANCH  17  18
ATOM     18  C   LIG    1        2.154  -1.346  -0.600  0.00  0.00    +0.214 C 
BRANCH  18  19
ATOM     19  C   LIG    1        1.411  -0.002  -0.401  0.00  0.00    -0.034 C 
BRANCH  19  20
ATOM     20  N   LIG    1       -0.050  -0.127   0.147  0.00  0.00    +0.380 N 
ATOM     21  C   LIG    1       -0.040  -0.852   1.519  0.00  0.00    -0.092 C 
BRANCH  20  22
ATOM     22  C   LIG    1       -0.913  -0.941  -0.875  0.00  0.00    -0.079 C 
ATOM     23  C   LIG    1       -2.422  -1.000  -0.550  0.00  0.00    -0.016 C 
ENDBRANCH  20  22
BRANCH  20  24
ATOM     24  C   LIG    1       -0.668   1.303   0.307  0.00  0.00    -0.079 C 
ATOM     25  C   LIG    1        0.148   2.278   1.185  0.00  0.00    -0.016 C 
ENDBRANCH  20  24
ENDBRANCH  19  20
ENDBRANCH  18  19
ENDBRANCH  17  18
ENDBRANCH  15  17
ENDBRANCH   1  15
TORSDOF 7
