REMARK  Name = DB00915
REMARK                            x       y       z     vdW  Elec       q    Type
REMARK                         _______ _______ _______ _____ _____    ______ ____
ROOT
ATOM      1  C   LIG    1        1.429  -0.002   0.003  0.00  0.00    +0.017 C 
ATOM      2  C   LIG    1        1.978   0.727   1.262  0.00  0.00    +0.025 C 
ATOM      3  C   LIG    1        3.530   0.743   1.288  0.00  0.00    -0.009 C 
ATOM      4  C   LIG    1        4.029   1.451  -0.000  0.00  0.00    +0.007 C 
ATOM      5  C   LIG    1        3.527   0.743  -1.287  0.00  0.00    -0.009 C 
ATOM      6  C   LIG    1        4.029  -0.726  -1.257  0.00  0.00    +0.007 C 
ATOM      7  C   LIG    1        3.530  -1.488   0.001  0.00  0.00    -0.009 C 
ATOM      8  C   LIG    1        4.031  -0.726   1.257  0.00  0.00    +0.007 C 
ATOM      9  C   LIG    1        1.975   0.726  -1.258  0.00  0.00    +0.025 C 
ATOM     10  C   LIG    1        1.977  -1.456   0.002  0.00  0.00    +0.025 C 
ENDROOT
BRANCH   1  11
ATOM     11  N   LIG    1       -0.023  -0.003   0.006  0.00  0.00    -0.325 NA
ATOM     12  H   LIG    1       -0.361  -0.454  -0.832  0.00  0.00    +0.119 HD
ATOM     13  H   LIG    1       -0.361   0.948  -0.023  0.00  0.00    +0.119 HD
ENDBRANCH   1  11
TORSDOF 1
