REMARK  Name = DB00580
REMARK                            x       y       z     vdW  Elec       q    Type
REMARK                         _______ _______ _______ _____ _____    ______ ____
ROOT
ATOM      1  C   LIG    1        4.358  -0.035  -0.144  0.00  0.00    +0.105 A 
ATOM      2  C   LIG    1        3.644   0.801  -1.005  0.00  0.00    +0.029 A 
ATOM      3  C   LIG    1        2.253   0.817  -0.957  0.00  0.00    +0.010 A 
ATOM      4  C   LIG    1        1.572   0.001  -0.049  0.00  0.00    -0.012 A 
ATOM      5  C   LIG    1        2.291  -0.837   0.808  0.00  0.00    +0.010 A 
ATOM      6  C   LIG    1        3.682  -0.855   0.761  0.00  0.00    +0.029 A 
ENDROOT
BRANCH   4   7
ATOM      7  C   LIG    1        0.082   0.025   0.004  0.00  0.00    +0.052 A 
ATOM      8  C   LIG    1       -0.773  -1.067   0.021  0.00  0.00    +0.142 A 
ATOM      9  C   LIG    1       -0.584  -2.566   0.001  0.00  0.00    +0.090 C 
ATOM     10  O   LIG    1       -2.054  -0.632   0.046  0.00  0.00    -0.359 OA
ATOM     11  N   LIG    1       -2.051   0.759   0.042  0.00  0.00    -0.077 NA
ATOM     12  C   LIG    1       -0.788   1.133   0.034  0.00  0.00    +0.121 A 
BRANCH  12  13
ATOM     13  C   LIG    1       -0.444   2.589   0.070  0.00  0.00    +0.004 A 
ATOM     14  C   LIG    1        0.607   3.042   0.876  0.00  0.00    +0.010 A 
ATOM     15  C   LIG    1        0.930   4.396   0.913  0.00  0.00    +0.001 A 
ATOM     16  C   LIG    1        0.201   5.300   0.146  0.00  0.00    +0.000 A 
ATOM     17  C   LIG    1       -0.851   4.863  -0.656  0.00  0.00    +0.001 A 
ATOM     18  C   LIG    1       -1.174   3.509  -0.693  0.00  0.00    +0.010 A 
ENDBRANCH  12  13
ENDBRANCH   4   7
BRANCH   1  19
ATOM     19  S   LIG    1        6.147  -0.067  -0.193  0.00  0.00    +0.056 S 
ATOM     20  O   LIG    1        6.564  -1.443   0.096  0.00  0.00    -0.153 OA
ATOM     21  O   LIG    1        6.576   0.610  -1.422  0.00  0.00    -0.153 OA
BRANCH  19  22
ATOM     22  N   LIG    1        6.638   0.930   1.163  0.00  0.00    -0.204 NA
ATOM     23  H   LIG    1        6.393   0.549   2.081  0.00  0.00    +0.144 HD
ATOM     24  H   LIG    1        6.412   1.923   1.063  0.00  0.00    +0.144 HD
ENDBRANCH  19  22
ENDBRANCH   1  19
TORSDOF 4
