REMARK  Name = DB00870
REMARK                            x       y       z     vdW  Elec       q    Type
REMARK                         _______ _______ _______ _____ _____    ______ ____
ROOT
ATOM      1  C   LIG    1        4.264   0.120  -0.156  0.00  0.00    +0.023 A 
ATOM      2  C   LIG    1        3.481  -0.559  -1.098  0.00  0.00    +0.012 A 
ATOM      3  C   LIG    1        2.092  -0.554  -0.994  0.00  0.00    +0.005 A 
ATOM      4  C   LIG    1        1.465   0.120   0.058  0.00  0.00    -0.034 A 
ATOM      5  C   LIG    1        2.247   0.768   1.020  0.00  0.00    +0.005 A 
ATOM      6  C   LIG    1        3.636   0.761   0.918  0.00  0.00    +0.012 A 
ENDROOT
BRANCH   1   7
ATOM      7  C   LIG    1        5.763   0.084  -0.215  0.00  0.00    +0.200 C 
ATOM      8  O   LIG    1        6.418  -0.012   0.825  0.00  0.00    -0.286 OA
BRANCH   7  13
ATOM      9  S   LIG    1        5.732   0.919  -2.921  0.00  0.00    -0.093 S 
ATOM     10  C   LIG    1        7.223   0.839  -3.799  0.00  0.00    +0.046 A 
ATOM     11  C   LIG    1        8.258   0.356  -3.016  0.00  0.00    +0.008 A 
ATOM     12  C   LIG    1        7.850   0.049  -1.714  0.00  0.00    +0.019 A 
ATOM     13  C   LIG    1        6.491   0.273  -1.481  0.00  0.00    +0.059 A 
ENDBRANCH   7  13
ENDBRANCH   1   7
BRANCH   4  14
ATOM     14  C   LIG    1       -0.065   0.094   0.166  0.00  0.00    +0.124 C 
ATOM     15  C   LIG    1       -0.683   1.482   0.449  0.00  0.00    +0.024 C 
BRANCH  14  16
ATOM     16  C   LIG    1       -0.506  -0.955   1.205  0.00  0.00    +0.312 C 
ATOM     17  O   LIG    1       -0.496  -0.754   2.419  0.00  0.00    -0.250 OA
BRANCH  16  18
ATOM     18  O   LIG    1       -0.873  -2.132   0.619  0.00  0.00    -0.480 OA
ATOM     19  H   LIG    1       -1.135  -2.792   1.264  0.00  0.00    +0.295 HD
ENDBRANCH  16  18
ENDBRANCH  14  16
ENDBRANCH   4  14
TORSDOF 5
