REMARK  Name = DB00613
REMARK                            x       y       z     vdW  Elec       q    Type
REMARK                         _______ _______ _______ _____ _____    ______ ____
ROOT
ATOM      1  C   LIG    1        2.629  -0.442  -3.632  0.00  0.00    +0.032 A 
ATOM      2  C   LIG    1        2.575  -1.816  -3.873  0.00  0.00    +0.027 A 
ATOM      3  C   LIG    1        2.169  -2.692  -2.867  0.00  0.00    +0.047 A 
ATOM      4  C   LIG    1        1.798  -2.203  -1.614  0.00  0.00    +0.121 A 
ATOM      5  C   LIG    1        1.819  -0.820  -1.368  0.00  0.00    +0.010 A 
ATOM      6  C   LIG    1        2.241   0.049  -2.380  0.00  0.00    +0.031 A 
ENDROOT
BRANCH   1   7
ATOM      7  N   LIG    1        3.020   0.411  -4.676  0.00  0.00    -0.314 N 
ATOM      8  H   LIG    1        2.804   0.066  -5.600  0.00  0.00    +0.152 HD
BRANCH   7  18
ATOM      9 CL   LIG    1        3.971   5.304  -9.373  0.00  0.00    -0.083 Cl
ATOM     10  C   LIG    1        3.904   4.232  -8.022  0.00  0.00    +0.043 A 
ATOM     11  C   LIG    1        3.146   3.068  -8.100  0.00  0.00    +0.021 A 
ATOM     12  C   LIG    1        3.078   2.191  -7.022  0.00  0.00    +0.013 A 
ATOM     13  C   LIG    1        3.784   2.466  -5.815  0.00  0.00    +0.022 A 
ATOM     14  C   LIG    1        4.561   3.667  -5.745  0.00  0.00    +0.074 A 
ATOM     15  N   LIG    1        5.268   4.008  -4.634  0.00  0.00    -0.255 NA
ATOM     16  C   LIG    1        5.232   3.175  -3.570  0.00  0.00    +0.113 A 
ATOM     17  C   LIG    1        4.506   1.990  -3.546  0.00  0.00    +0.043 A 
ATOM     18  C   LIG    1        3.753   1.613  -4.665  0.00  0.00    +0.042 A 
ATOM     19  C   LIG    1        4.608   4.538  -6.861  0.00  0.00    +0.048 A 
ENDBRANCH   7  18
ENDBRANCH   1   7
BRANCH   4  20
ATOM     20  O   LIG    1        1.417  -3.094  -0.643  0.00  0.00    -0.506 OA
ATOM     21  H   LIG    1        1.425  -4.004  -0.946  0.00  0.00    +0.292 HD
ENDBRANCH   4  20
BRANCH   5  22
ATOM     22  C   LIG    1        1.422  -0.240  -0.010  0.00  0.00    +0.123 C 
BRANCH  22  23
ATOM     23  N   LIG    1       -0.002  -0.422   0.311  0.00  0.00    -0.299 NA
BRANCH  23  24
ATOM     24  C   LIG    1       -0.236  -0.131   1.734  0.00  0.00    +0.081 C 
ATOM     25  C   LIG    1       -1.184  -1.165   2.364  0.00  0.00    +0.020 C 
ENDBRANCH  23  24
BRANCH  23  26
ATOM     26  C   LIG    1       -0.830   0.408  -0.583  0.00  0.00    +0.081 C 
ATOM     27  C   LIG    1       -2.345   0.192  -0.434  0.00  0.00    +0.020 C 
ENDBRANCH  23  26
ENDBRANCH  22  23
ENDBRANCH   5  22
TORSDOF 7
