REMARK  Name = DB00205
REMARK                            x       y       z     vdW  Elec       q    Type
REMARK                         _______ _______ _______ _____ _____    ______ ____
ROOT
ATOM      1  C   LIG    1       -0.726  -1.242   0.010  0.00  0.00    +0.043 A 
ATOM      2  C   LIG    1       -2.131  -1.140   0.011  0.00  0.00    +0.129 A 
ATOM      3  N   LIG    1       -2.777   0.054   0.004  0.00  0.00    -0.199 NA
ATOM      4  C   LIG    1       -2.004   1.166  -0.006  0.00  0.00    +0.214 A 
ATOM      5  N   LIG    1       -0.650   1.185  -0.008  0.00  0.00    -0.219 NA
ATOM      6  C   LIG    1       -0.021  -0.021   0.003  0.00  0.00    +0.056 A 
ENDROOT
BRANCH   1  11
ATOM      7 CL   LIG    1        2.076  -6.545   0.017  0.00  0.00    -0.084 Cl
ATOM      8  C   LIG    1        1.270  -5.019   0.015  0.00  0.00    +0.041 A 
ATOM      9  C   LIG    1        0.922  -4.423  -1.196  0.00  0.00    +0.020 A 
ATOM     10  C   LIG    1        0.271  -3.192  -1.196  0.00  0.00    +0.010 A 
ATOM     11  C   LIG    1       -0.030  -2.555   0.011  0.00  0.00    -0.013 A 
ATOM     12  C   LIG    1        0.321  -3.162   1.220  0.00  0.00    +0.010 A 
ATOM     13  C   LIG    1        0.971  -4.393   1.223  0.00  0.00    +0.020 A 
ENDBRANCH   1  11
BRANCH   2  14
ATOM     14  N   LIG    1       -2.947  -2.273   0.019  0.00  0.00    -0.343 N 
ATOM     15  H   LIG    1       -3.950  -2.158   0.023  0.00  0.00    +0.144 HD
ATOM     16  H   LIG    1       -2.523  -3.189   0.028  0.00  0.00    +0.144 HD
ENDBRANCH   2  14
BRANCH   4  17
ATOM     17  N   LIG    1       -2.657   2.394  -0.014  0.00  0.00    -0.327 N 
ATOM     18  H   LIG    1       -2.112   3.243  -0.016  0.00  0.00    +0.145 HD
ATOM     19  H   LIG    1       -3.666   2.416  -0.020  0.00  0.00    +0.145 HD
ENDBRANCH   4  17
BRANCH   6  20
ATOM     20  C   LIG    1        1.504   0.056  -0.009  0.00  0.00    +0.053 C 
ATOM     21  C   LIG    1        2.082   0.113  -1.431  0.00  0.00    +0.010 C 
ENDBRANCH   6  20
TORSDOF 4
