REMARK  Name = DB00477
REMARK                            x       y       z     vdW  Elec       q    Type
REMARK                         _______ _______ _______ _____ _____    ______ ____
ROOT
ATOM      1 CL   LIG    1        3.078   2.867  -5.316  0.00  0.00    -0.083 Cl
ATOM      2  C   LIG    1        3.888   1.371  -5.023  0.00  0.00    +0.043 A 
ATOM      3  C   LIG    1        4.677   0.802  -6.015  0.00  0.00    +0.021 A 
ATOM      4  C   LIG    1        5.314  -0.410  -5.775  0.00  0.00    +0.018 A 
ATOM      5  C   LIG    1        5.162  -1.062  -4.549  0.00  0.00    +0.034 A 
ATOM      6  C   LIG    1        4.418  -0.474  -3.500  0.00  0.00    +0.049 A 
ATOM      7  N   LIG    1        4.220  -1.175  -2.287  0.00  0.00    -0.298 N 
ATOM      8  C   LIG    1        4.188  -2.589  -2.246  0.00  0.00    +0.048 A 
ATOM      9  C   LIG    1        3.311  -3.299  -1.400  0.00  0.00    +0.024 A 
ATOM     10  C   LIG    1        3.227  -4.690  -1.427  0.00  0.00    +0.002 A 
ATOM     11  C   LIG    1        4.000  -5.414  -2.325  0.00  0.00    +0.001 A 
ATOM     12  C   LIG    1        4.843  -4.743  -3.203  0.00  0.00    +0.017 A 
ATOM     13  C   LIG    1        4.913  -3.347  -3.193  0.00  0.00    +0.034 A 
ATOM     14  S   LIG    1        6.024  -2.574  -4.313  0.00  0.00    -0.086 S 
ATOM     15  C   LIG    1        3.753   0.733  -3.790  0.00  0.00    +0.044 A 
ENDROOT
BRANCH   7  16
ATOM     16  C   LIG    1        3.694  -0.443  -1.115  0.00  0.00    +0.112 C 
BRANCH  16  17
ATOM     17  C   LIG    1        2.148  -0.326  -1.045  0.00  0.00    +0.035 C 
BRANCH  17  18
ATOM     18  C   LIG    1        1.601  -0.159   0.389  0.00  0.00    +0.085 C 
BRANCH  18  19
ATOM     19  N   LIG    1        0.165  -0.439   0.491  0.00  0.00    -0.308 NA
ATOM     20  C   LIG    1       -0.241  -0.433   1.893  0.00  0.00    +0.104 C 
ATOM     21  C   LIG    1       -0.643   0.531  -0.248  0.00  0.00    +0.104 C 
ENDBRANCH  18  19
ENDBRANCH  17  18
ENDBRANCH  16  17
ENDBRANCH   7  16
TORSDOF 4
