REMARK  Name = DB00867
REMARK                            x       y       z     vdW  Elec       q    Type
REMARK                         _______ _______ _______ _____ _____    ______ ____
ROOT
ATOM      1  C   LIG    1       -0.164   0.029   0.583  0.00  0.00    +0.084 C 
ATOM      2  C   LIG    1       -0.362  -0.795   1.870  0.00  0.00    +0.027 C 
ENDROOT
BRANCH   1   3
ATOM      3  N   LIG    1        1.274   0.280   0.469  0.00  0.00    -0.310 NA
ATOM      4  H   LIG    1        1.668   0.467   1.380  0.00  0.00    +0.122 HD
BRANCH   3   5
ATOM      5  C   LIG    1        1.630   1.342  -0.465  0.00  0.00    +0.086 C 
BRANCH   5   6
ATOM      6  C   LIG    1        3.162   1.465  -0.583  0.00  0.00    +0.050 C 
BRANCH   6   7
ATOM      7  C   LIG    1        3.814   0.297  -1.315  0.00  0.00    -0.046 A 
ATOM      8  C   LIG    1        3.997   0.355  -2.700  0.00  0.00    +0.007 A 
ATOM      9  C   LIG    1        4.579  -0.718  -3.370  0.00  0.00    +0.045 A 
ATOM     10  C   LIG    1        4.973  -1.849  -2.655  0.00  0.00    +0.117 A 
ATOM     11  C   LIG    1        4.796  -1.911  -1.274  0.00  0.00    +0.045 A 
ATOM     12  C   LIG    1        4.218  -0.836  -0.603  0.00  0.00    +0.007 A 
BRANCH  10  13
ATOM     13  O   LIG    1        5.530  -2.910  -3.317  0.00  0.00    -0.507 OA
ATOM     14  H   LIG    1        5.763  -3.633  -2.730  0.00  0.00    +0.292 HD
ENDBRANCH  10  13
ENDBRANCH   6   7
ENDBRANCH   5   6
ENDBRANCH   3   5
ENDBRANCH   1   3
BRANCH   1  15
ATOM     15  C   LIG    1       -0.805  -0.662  -0.668  0.00  0.00    +0.161 C 
BRANCH  15  16
ATOM     16  C   LIG    1        0.048  -1.759  -1.326  0.00  0.00    -0.017 A 
ATOM     17  C   LIG    1        0.103  -3.028  -0.740  0.00  0.00    +0.010 A 
ATOM     18  C   LIG    1        0.882  -4.033  -1.307  0.00  0.00    +0.046 A 
ATOM     19  C   LIG    1        1.604  -3.774  -2.470  0.00  0.00    +0.117 A 
ATOM     20  C   LIG    1        1.544  -2.521  -3.074  0.00  0.00    +0.046 A 
ATOM     21  C   LIG    1        0.770  -1.515  -2.503  0.00  0.00    +0.010 A 
BRANCH  19  22
ATOM     22  O   LIG    1        2.380  -4.758  -3.023  0.00  0.00    -0.507 OA
ATOM     23  H   LIG    1        2.846  -4.465  -3.809  0.00  0.00    +0.292 HD
ENDBRANCH  19  22
ENDBRANCH  15  16
BRANCH  15  24
ATOM     24  O   LIG    1       -1.252   0.333  -1.575  0.00  0.00    -0.386 OA
ATOM     25  H   LIG    1       -1.806  -0.086  -2.237  0.00  0.00    +0.210 HD
ENDBRANCH  15  24
ENDBRANCH   1  15
TORSDOF 9
