REMARK  Name = DB00920
REMARK                            x       y       z     vdW  Elec       q    Type
REMARK                         _______ _______ _______ _____ _____    ______ ____
ROOT
ATOM      1  S   LIG    1       -5.664  -0.783  -4.843  0.00  0.00    -0.093 S 
ATOM      2  C   LIG    1       -3.952  -0.940  -5.044  0.00  0.00    +0.046 A 
ATOM      3  C   LIG    1       -3.255  -0.295  -4.032  0.00  0.00    +0.017 A 
ATOM      4  C   LIG    1       -4.084   0.310  -3.066  0.00  0.00    +0.000 A 
ATOM      5  C   LIG    1       -3.569   1.066  -1.921  0.00  0.00    -0.010 C 
ATOM      6  C   LIG    1       -4.100   2.447  -1.793  0.00  0.00    -0.014 A 
ATOM      7  C   LIG    1       -3.230   3.538  -1.926  0.00  0.00    +0.009 A 
ATOM      8  C   LIG    1       -3.710   4.845  -1.871  0.00  0.00    +0.001 A 
ATOM      9  C   LIG    1       -5.071   5.075  -1.692  0.00  0.00    +0.000 A 
ATOM     10  C   LIG    1       -5.947   3.999  -1.566  0.00  0.00    +0.004 A 
ATOM     11  C   LIG    1       -5.482   2.680  -1.617  0.00  0.00    -0.032 A 
ATOM     12  C   LIG    1       -6.457   1.513  -1.444  0.00  0.00    +0.116 C 
ATOM     13  C   LIG    1       -6.634   0.655  -2.706  0.00  0.00    +0.175 C 
ATOM     14  O   LIG    1       -7.763   0.387  -3.121  0.00  0.00    -0.291 OA
ATOM     15  C   LIG    1       -2.667   0.564  -1.030  0.00  0.00    -0.059 C 
ATOM     16  C   LIG    1       -2.073  -0.847  -1.061  0.00  0.00    +0.047 C 
ATOM     17  C   LIG    1       -0.533  -0.756  -1.144  0.00  0.00    +0.088 C 
ATOM     18  N   LIG    1        0.046   0.037  -0.054  0.00  0.00    -0.305 NA
ATOM     19  C   LIG    1        1.495   0.135  -0.191  0.00  0.00    +0.104 C 
ATOM     20  C   LIG    1       -0.560   1.367   0.078  0.00  0.00    +0.088 C 
ATOM     21  C   LIG    1       -2.101   1.313   0.180  0.00  0.00    +0.047 C 
ATOM     22  C   LIG    1       -5.438   0.156  -3.395  0.00  0.00    +0.063 A 
ENDROOT
TORSDOF 0
