REMARK  Name = DB00122
REMARK                            x       y       z     vdW  Elec       q    Type
REMARK                         _______ _______ _______ _____ _____    ______ ____
ROOT
ATOM      1  C   LIG    1        1.523  -0.048   0.000  0.00  0.00    -0.048 C 
ENDROOT
BRANCH   1   2
ATOM      2  N   LIG    1       -0.035  -0.026   0.000  0.00  0.00    +0.376 N 
ATOM      3  C   LIG    1       -0.613  -0.710   1.263  0.00  0.00    -0.093 C 
ATOM      4  C   LIG    1       -0.613  -0.710  -1.263  0.00  0.00    -0.093 C 
ATOM      5  C   LIG    1       -0.493   1.454   0.000  0.00  0.00    -0.093 C 
ENDBRANCH   1   2
BRANCH   1   6
ATOM      6  C   LIG    1        2.129  -1.469   0.000  0.00  0.00    +0.138 C 
BRANCH   6   7
ATOM      7  O   LIG    1        3.535  -1.358   0.000  0.00  0.00    -0.397 OA
ATOM      8  H   LIG    1        3.914  -2.240   0.000  0.00  0.00    +0.209 HD
ENDBRANCH   6   7
ENDBRANCH   1   6
TORSDOF 3
