REMARK  Name = DB00801
REMARK                            x       y       z     vdW  Elec       q    Type
REMARK                         _______ _______ _______ _____ _____    ______ ____
ROOT
ATOM      1 CL   LIG    1       -2.936   5.305  -0.756  0.00  0.00    -0.084 Cl
ATOM      2  C   LIG    1       -2.103   3.813  -0.516  0.00  0.00    +0.042 A 
ATOM      3  C   LIG    1       -0.805   3.658  -0.976  0.00  0.00    +0.022 A 
ATOM      4  C   LIG    1       -0.147   2.449  -0.784  0.00  0.00    +0.025 A 
ATOM      5  C   LIG    1       -0.757   1.343  -0.161  0.00  0.00    +0.046 A 
ATOM      6  C   LIG    1       -2.069   1.539   0.376  0.00  0.00    +0.023 A 
ATOM      7  C   LIG    1       -2.817   0.504   1.156  0.00  0.00    +0.075 C 
ATOM      8  N   LIG    1       -2.825  -0.745   0.865  0.00  0.00    -0.273 NA
ATOM      9  C   LIG    1       -2.055  -1.207  -0.277  0.00  0.00    +0.238 C 
ATOM     10  C   LIG    1       -0.535  -1.141  -0.014  0.00  0.00    +0.241 C 
ATOM     11  O   LIG    1        0.106  -2.186   0.122  0.00  0.00    -0.273 OA
ATOM     12  N   LIG    1       -0.022   0.130   0.064  0.00  0.00    -0.261 N 
ATOM     13  C   LIG    1       -2.722   2.766   0.153  0.00  0.00    +0.032 A 
ENDROOT
BRANCH   7  14
ATOM     14  C   LIG    1       -3.584   0.958   2.341  0.00  0.00    +0.001 A 
ATOM     15  C   LIG    1       -4.856   0.427   2.609  0.00  0.00    +0.010 A 
ATOM     16  C   LIG    1       -5.572   0.849   3.725  0.00  0.00    +0.001 A 
ATOM     17  C   LIG    1       -5.021   1.798   4.582  0.00  0.00    +0.000 A 
ATOM     18  C   LIG    1       -3.759   2.329   4.333  0.00  0.00    +0.001 A 
ATOM     19  C   LIG    1       -3.041   1.910   3.216  0.00  0.00    +0.010 A 
ENDBRANCH   7  14
BRANCH  12  20
ATOM     20  C   LIG    1        1.452   0.203   0.245  0.00  0.00    +0.226 C 
BRANCH  20  21
ATOM     21  C   LIG    1        2.329  -0.130  -0.990  0.00  0.00    +0.406 C 
ATOM     22  F   LIG    1        2.392  -1.439  -1.232  0.00  0.00    -0.169 F 
ATOM     23  F   LIG    1        1.893   0.452  -2.107  0.00  0.00    -0.169 F 
ATOM     24  F   LIG    1        3.577   0.287  -0.785  0.00  0.00    -0.169 F 
ENDBRANCH  20  21
ENDBRANCH  12  20
TORSDOF 3
