REMARK  Name = DB00609
REMARK                            x       y       z     vdW  Elec       q    Type
REMARK                         _______ _______ _______ _____ _____    ______ ____
ROOT
ATOM      1  C   LIG    1        3.625  -0.103  -1.262  0.00  0.00    +0.006 A 
ATOM      2  C   LIG    1        4.240  -0.028   0.002  0.00  0.00    +0.030 A 
ATOM      3  C   LIG    1        3.450   0.073   1.148  0.00  0.00    +0.111 A 
ATOM      4  N   LIG    1        2.096   0.103   1.109  0.00  0.00    -0.260 NA
ATOM      5  C   LIG    1        1.496   0.033  -0.107  0.00  0.00    +0.042 A 
ATOM      6  C   LIG    1        2.217  -0.068  -1.301  0.00  0.00    +0.033 A 
ENDROOT
BRANCH   1   8
ATOM      7  S   LIG    1        4.055   0.569  -3.930  0.00  0.00    -0.035 S 
ATOM      8  C   LIG    1        4.442  -0.199  -2.503  0.00  0.00    +0.077 C 
BRANCH   8   9
ATOM      9  N   LIG    1        5.554  -0.964  -2.384  0.00  0.00    -0.352 N 
ATOM     10  H   LIG    1        6.168  -1.081  -3.178  0.00  0.00    +0.143 HD
ATOM     11  H   LIG    1        5.763  -1.414  -1.505  0.00  0.00    +0.143 HD
ENDBRANCH   8   9
ENDBRANCH   1   8
BRANCH   5  12
ATOM     12  C   LIG    1       -0.026   0.077  -0.106  0.00  0.00    +0.052 C 
ATOM     13  C   LIG    1       -0.588   1.463   0.245  0.00  0.00    +0.010 C 
ENDBRANCH   5  12
TORSDOF 3
