REMARK  Name = DB00863
REMARK                            x       y       z     vdW  Elec       q    Type
REMARK                         _______ _______ _______ _____ _____    ______ ____
ROOT
ATOM      1  C   LIG    1        2.051  -1.468   0.157  0.00  0.00    +0.233 C 
ENDROOT
BRANCH   1   2
ATOM      2  N   LIG    1        1.253  -2.228   1.111  0.00  0.00    -0.236 N 
ATOM      3  H   LIG    1        1.119  -1.729   1.978  0.00  0.00    +0.291 HD
BRANCH   2   5
ATOM      4  C   LIG    1        1.498  -4.422   0.157  0.00  0.00    +0.265 C 
ATOM      5  C   LIG    1        1.068  -3.595   1.144  0.00  0.00    +0.278 C 
BRANCH   5   6
ATOM      6  N   LIG    1        0.404  -3.984   2.290  0.00  0.00    -0.240 N 
ATOM      7  H   LIG    1        0.104  -4.949   2.298  0.00  0.00    +0.291 HD
ATOM      8  C   LIG    1        0.711  -3.539   3.642  0.00  0.00    +0.273 C 
ENDBRANCH   5   6
BRANCH   4   9
ATOM      9  N   LIG    1        1.309  -5.888   0.171  0.00  0.00    +0.006 N 
ATOM     10  O   LIG    1        1.808  -6.484  -0.777  0.00  0.00    -0.130 OA
BRANCH   9  11
ATOM     11  O   LIG    1        0.685  -6.417   1.086  0.00  0.00    -0.396 OA
ATOM     12  H   LIG    1        0.333  -5.892   1.777  0.00  0.00    +0.329 HD
ENDBRANCH   9  11
ENDBRANCH   4   9
ENDBRANCH   2   5
ENDBRANCH   1   2
BRANCH   1  13
ATOM     13  C   LIG    1        1.774   0.040   0.212  0.00  0.00    +0.113 C 
BRANCH  13  14
ATOM     14  S   LIG    1        0.112   0.535  -0.331  0.00  0.00    -0.149 S 
BRANCH  14  15
ATOM     15  C   LIG    1        0.252   2.343  -0.229  0.00  0.00    +0.143 C 
BRANCH  15  16
ATOM     16  C   LIG    1        0.332   2.853   1.192  0.00  0.00    +0.115 A 
ATOM     17  C   LIG    1        1.308   3.511   1.924  0.00  0.00    +0.046 A 
ATOM     18  C   LIG    1        0.780   3.726   3.197  0.00  0.00    +0.046 A 
ATOM     19  C   LIG    1       -0.497   3.186   3.199  0.00  0.00    +0.119 A 
ATOM     20  O   LIG    1       -0.763   2.660   1.974  0.00  0.00    -0.462 OA
BRANCH  19  21
ATOM     21  C   LIG    1       -1.605   3.106   4.229  0.00  0.00    +0.158 C 
BRANCH  21  22
ATOM     22  N   LIG    1       -2.683   4.060   3.951  0.00  0.00    -0.301 NA
ATOM     23  C   LIG    1       -2.289   5.429   4.280  0.00  0.00    +0.105 C 
ATOM     24  C   LIG    1       -3.881   3.707   4.706  0.00  0.00    +0.105 C 
ENDBRANCH  21  22
ENDBRANCH  19  21
ENDBRANCH  15  16
ENDBRANCH  14  15
ENDBRANCH  13  14
ENDBRANCH   1  13
TORSDOF 11
