REMARK  Name = DB00674
REMARK                            x       y       z     vdW  Elec       q    Type
REMARK                         _______ _______ _______ _____ _____    ______ ____
ROOT
ATOM      1  C   LIG    1       -0.920   4.494  -0.914  0.00  0.00    +0.081 C 
ATOM      2  C   LIG    1       -2.149   5.077  -1.647  0.00  0.00    +0.141 C 
ATOM      3  C   LIG    1       -3.090   3.964  -2.063  0.00  0.00    +0.001 C 
ATOM      4  C   LIG    1       -3.263   2.846  -1.340  0.00  0.00    -0.013 C 
ATOM      5  C   LIG    1       -2.570   2.571  -0.003  0.00  0.00    +0.056 C 
ATOM      6  C   LIG    1       -3.506   2.981   1.163  0.00  0.00    +0.035 C 
ATOM      7  C   LIG    1       -4.892   2.303   1.222  0.00  0.00    +0.086 C 
ATOM      8  N   LIG    1       -4.913   0.859   1.464  0.00  0.00    -0.301 NA
ATOM      9  C   LIG    1       -6.172   0.391   2.033  0.00  0.00    +0.105 C 
ATOM     10  C   LIG    1       -4.362  -0.025   0.433  0.00  0.00    +0.119 C 
ATOM     11  C   LIG    1       -2.851  -0.051   0.241  0.00  0.00    -0.026 A 
ATOM     12  C   LIG    1       -2.147  -1.264   0.202  0.00  0.00    +0.009 A 
ATOM     13  C   LIG    1       -0.759  -1.295   0.040  0.00  0.00    +0.050 A 
ATOM     14  C   LIG    1       -0.033  -0.099  -0.080  0.00  0.00    +0.162 A 
ATOM     15  C   LIG    1       -0.746   1.097  -0.042  0.00  0.00    +0.167 A 
ATOM     16  O   LIG    1       -0.171   2.336  -0.144  0.00  0.00    -0.484 OA
ATOM     17  C   LIG    1       -2.125   1.137   0.088  0.00  0.00    +0.016 A 
ATOM     18  C   LIG    1       -1.194   3.312   0.060  0.00  0.00    +0.191 C 
ENDROOT
BRANCH   2  19
ATOM     19  O   LIG    1       -1.756   5.835  -2.772  0.00  0.00    -0.388 OA
ATOM     20  H   LIG    1       -2.519   6.321  -3.094  0.00  0.00    +0.210 HD
ENDBRANCH   2  19
BRANCH  14  21
ATOM     21  O   LIG    1        1.337  -0.004  -0.232  0.00  0.00    -0.491 OA
ATOM     22  C   LIG    1        2.104  -1.202  -0.278  0.00  0.00    +0.277 C 
ENDBRANCH  14  21
TORSDOF 2
