REMARK  Name = DB00412
REMARK                            x       y       z     vdW  Elec       q    Type
REMARK                         _______ _______ _______ _____ _____    ______ ____
ROOT
ATOM      1  C   LIG    1       -1.735   3.867   0.051  0.00  0.00    -0.046 A 
ATOM      2  C   LIG    1       -0.352   3.847  -0.135  0.00  0.00    +0.007 A 
ATOM      3  C   LIG    1        0.335   2.636  -0.133  0.00  0.00    +0.046 A 
ATOM      4  C   LIG    1       -0.359   1.430   0.053  0.00  0.00    +0.121 A 
ATOM      5  C   LIG    1       -1.742   1.461   0.233  0.00  0.00    +0.046 A 
ATOM      6  C   LIG    1       -2.430   2.671   0.234  0.00  0.00    +0.007 A 
ENDROOT
BRANCH   1   7
ATOM      7  C   LIG    1       -2.490   5.191   0.055  0.00  0.00    +0.059 C 
BRANCH   7  15
ATOM      8  S   LIG    1       -1.352   6.113   2.451  0.00  0.00    -0.054 S 
ATOM      9  C   LIG    1       -1.888   7.819   2.669  0.00  0.00    +0.279 C 
ATOM     10  N   LIG    1       -3.067   7.989   2.062  0.00  0.00    -0.246 N 
ATOM     11  H   LIG    1       -3.515   8.893   2.096  0.00  0.00    +0.158 HD
ATOM     12  C   LIG    1       -3.668   6.985   1.412  0.00  0.00    +0.234 C 
ATOM     13  O   LIG    1       -4.755   7.064   0.843  0.00  0.00    -0.274 OA
ATOM     14  O   LIG    1       -1.250   8.668   3.287  0.00  0.00    -0.263 OA
ATOM     15  C   LIG    1       -2.821   5.713   1.476  0.00  0.00    +0.146 C 
ENDBRANCH   7  15
ENDBRANCH   1   7
BRANCH   4  16
ATOM     16  O   LIG    1        0.237   0.183   0.072  0.00  0.00    -0.490 OA
BRANCH  16  17
ATOM     17  C   LIG    1        1.652   0.082  -0.064  0.00  0.00    +0.248 C 
BRANCH  17  18
ATOM     18  C   LIG    1        2.038  -1.404   0.029  0.00  0.00    +0.147 C 
BRANCH  18  19
ATOM     19  N   LIG    1        3.488  -1.627  -0.049  0.00  0.00    -0.315 N 
ATOM     20  C   LIG    1        4.251  -1.446   1.187  0.00  0.00    +0.131 C 
BRANCH  19  21
ATOM     21  C   LIG    1        4.158  -1.616  -1.305  0.00  0.00    +0.121 A 
ATOM     22  C   LIG    1        5.564  -1.588  -1.391  0.00  0.00    +0.043 A 
ATOM     23  C   LIG    1        6.180  -1.581  -2.644  0.00  0.00    +0.005 A 
ATOM     24  C   LIG    1        5.397  -1.603  -3.796  0.00  0.00    +0.020 A 
ATOM     25  C   LIG    1        4.012  -1.632  -3.653  0.00  0.00    +0.113 A 
ATOM     26  N   LIG    1        3.401  -1.638  -2.442  0.00  0.00    -0.240 NA
ENDBRANCH  19  21
ENDBRANCH  18  19
ENDBRANCH  17  18
ENDBRANCH  16  17
ENDBRANCH   4  16
TORSDOF 7
