REMARK  Name = DB00358
REMARK                            x       y       z     vdW  Elec       q    Type
REMARK                         _______ _______ _______ _____ _____    ______ ____
ROOT
ATOM      1  C   LIG    1        3.774   1.108   0.447  0.00  0.00    +0.145 A 
ATOM      2  C   LIG    1        2.387   1.196   0.531  0.00  0.00    +0.039 A 
ATOM      3  C   LIG    1        1.593   0.166   0.018  0.00  0.00    -0.007 A 
ATOM      4  C   LIG    1        2.238  -0.975  -0.568  0.00  0.00    +0.007 A 
ATOM      5  C   LIG    1        1.535  -2.095  -1.094  0.00  0.00    +0.010 A 
ATOM      6  C   LIG    1        2.217  -3.167  -1.655  0.00  0.00    +0.001 A 
ATOM      7  C   LIG    1        3.603  -3.172  -1.713  0.00  0.00    +0.014 A 
ATOM      8  C   LIG    1        4.353  -2.106  -1.209  0.00  0.00    +0.081 A 
ATOM      9  C   LIG    1        3.672  -0.987  -0.621  0.00  0.00    +0.084 A 
ATOM     10  N   LIG    1        4.404   0.050  -0.119  0.00  0.00    -0.242 NA
ENDROOT
BRANCH   1  12
ATOM     11  F   LIG    1        4.005   3.215   1.528  0.00  0.00    -0.164 F 
ATOM     12  C   LIG    1        4.690   2.205   0.988  0.00  0.00    +0.434 C 
ATOM     13  F   LIG    1        5.492   1.702   1.928  0.00  0.00    -0.164 F 
ATOM     14  F   LIG    1        5.442   2.695   0.002  0.00  0.00    -0.164 F 
ENDBRANCH   1  12
BRANCH   8  15
ATOM     15  C   LIG    1        5.887  -2.136  -1.283  0.00  0.00    +0.419 C 
ATOM     16  F   LIG    1        6.329  -1.097  -1.994  0.00  0.00    -0.166 F 
ATOM     17  F   LIG    1        6.406  -2.069  -0.056  0.00  0.00    -0.166 F 
ATOM     18  F   LIG    1        6.348  -3.248  -1.859  0.00  0.00    -0.166 F 
ENDBRANCH   8  15
BRANCH   3  19
ATOM     19  C   LIG    1        0.058   0.249   0.100  0.00  0.00    +0.162 C 
BRANCH  19  20
ATOM     20  C   LIG    1       -0.513  -0.549   1.305  0.00  0.00    +0.087 C 
ATOM     21  C   LIG    1       -0.159   0.048   2.700  0.00  0.00    +0.021 C 
ATOM     22  C   LIG    1       -0.787  -0.717   3.875  0.00  0.00    +0.003 C 
ATOM     23  C   LIG    1       -2.278  -0.963   3.627  0.00  0.00    +0.015 C 
ATOM     24  C   LIG    1       -2.511  -1.666   2.280  0.00  0.00    +0.081 C 
ATOM     25  N   LIG    1       -1.927  -0.927   1.162  0.00  0.00    -0.311 NA
ATOM     26  H   LIG    1       -2.057  -1.454   0.310  0.00  0.00    +0.122 HD
ENDBRANCH  19  20
BRANCH  19  27
ATOM     27  O   LIG    1       -0.436   1.579   0.116  0.00  0.00    -0.386 OA
ATOM     28  H   LIG    1       -0.242   1.986  -0.731  0.00  0.00    +0.210 HD
ENDBRANCH  19  27
ENDBRANCH   3  19
TORSDOF 5
