REMARK  Name = DB00504
REMARK                            x       y       z     vdW  Elec       q    Type
REMARK                         _______ _______ _______ _____ _____    ______ ____
ROOT
ATOM      1  C   LIG    1       -2.588   0.744   1.210  0.00  0.00    +0.002 C 
ATOM      2  C   LIG    1       -4.146   0.628   1.116  0.00  0.00    +0.012 C 
ATOM      3  C   LIG    1       -4.858   1.994   1.047  0.00  0.00    +0.001 C 
ATOM      4  C   LIG    1       -4.363   2.814  -0.158  0.00  0.00    +0.000 C 
ATOM      5  C   LIG    1       -2.831   2.945  -0.144  0.00  0.00    +0.006 C 
ATOM      6  C   LIG    1       -1.965  -0.667   1.037  0.00  0.00    +0.027 C 
ATOM      7  C   LIG    1       -0.430  -0.649   0.899  0.00  0.00    +0.086 C 
ATOM      8  N   LIG    1        0.026   0.311  -0.121  0.00  0.00    -0.295 NA
ATOM      9  C   LIG    1       -0.569   1.663  -0.030  0.00  0.00    +0.065 C 
ATOM     10  C   LIG    1       -0.111   2.516   1.183  0.00  0.00    +0.054 C 
ATOM     11  C   LIG    1       -0.863   2.208   2.483  0.00  0.00    -0.042 A 
ATOM     12  C   LIG    1       -0.380   2.748   3.681  0.00  0.00    +0.007 A 
ATOM     13  C   LIG    1       -1.033   2.535   4.890  0.00  0.00    +0.045 A 
ATOM     14  C   LIG    1       -2.188   1.766   4.918  0.00  0.00    +0.117 A 
ATOM     15  C   LIG    1       -2.680   1.216   3.737  0.00  0.00    +0.049 A 
ATOM     16  C   LIG    1       -2.046   1.422   2.500  0.00  0.00    -0.034 A 
ATOM     17  C   LIG    1       -2.119   1.565  -0.033  0.00  0.00    +0.017 C 
ENDROOT
BRANCH  14  18
ATOM     18  O   LIG    1       -2.837   1.544   6.103  0.00  0.00    -0.507 OA
ATOM     19  H   LIG    1       -2.410   1.973   6.848  0.00  0.00    +0.292 HD
ENDBRANCH  14  18
BRANCH   8  20
ATOM     20  C   LIG    1        1.477   0.315  -0.327  0.00  0.00    +0.111 C 
BRANCH  20  21
ATOM     21  C   LIG    1        2.030  -0.942  -0.976  0.00  0.00    -0.019 C 
ATOM     22  C   LIG    1        2.704  -0.967  -2.137  0.00  0.00    +0.005 C 
ENDBRANCH  20  21
ENDBRANCH   8  20
TORSDOF 3
