REMARK  Name = DB00462
REMARK                            x       y       z     vdW  Elec       q    Type
REMARK                         _______ _______ _______ _____ _____    ______ ____
ROOT
ATOM      1  O   LIG    1        2.031  -0.925  -0.380  0.00  0.00    -0.461 OA
ENDROOT
BRANCH   1   5
ATOM      2  C   LIG    1        2.213  -4.120  -0.380  0.00  0.00    +0.133 C 
ATOM      3  C   LIG    1        3.569  -3.824  -1.075  0.00  0.00    -0.030 C 
ATOM      4  C   LIG    1        3.563  -2.348  -1.570  0.00  0.00    +0.032 C 
ATOM      5  C   LIG    1        3.414  -1.278  -0.434  0.00  0.00    +0.174 C 
ATOM      6  C   LIG    1        3.905  -1.764   0.980  0.00  0.00    +0.032 C 
ATOM      7  C   LIG    1        3.877  -3.307   1.184  0.00  0.00    -0.030 C 
ATOM      8  N   LIG    1        4.661  -3.987   0.023  0.00  0.00    +0.384 N 
ATOM      9  C   LIG    1        6.041  -3.340  -0.314  0.00  0.00    -0.091 C 
ATOM     10  C   LIG    1        5.042  -5.472   0.311  0.00  0.00    -0.091 C 
ATOM     11  O   LIG    1        2.182  -5.109   0.617  0.00  0.00    -0.372 OA
ATOM     12  C   LIG    1        2.410  -3.794   1.057  0.00  0.00    +0.133 C 
ENDBRANCH   1   5
BRANCH   1  13
ATOM     13  C   LIG    1        1.605   0.252   0.138  0.00  0.00    +0.317 C 
ATOM     14  O   LIG    1        2.330   1.160   0.549  0.00  0.00    -0.250 OA
BRANCH  13  15
ATOM     15  C   LIG    1        0.064   0.342   0.167  0.00  0.00    +0.153 C 
BRANCH  15  16
ATOM     16  C   LIG    1       -0.444  -0.635   1.233  0.00  0.00    -0.032 A 
ATOM     17  C   LIG    1       -0.949  -1.877   0.833  0.00  0.00    +0.004 A 
ATOM     18  C   LIG    1       -1.397  -2.791   1.784  0.00  0.00    +0.000 A 
ATOM     19  C   LIG    1       -1.341  -2.462   3.136  0.00  0.00    +0.000 A 
ATOM     20  C   LIG    1       -0.839  -1.230   3.547  0.00  0.00    +0.000 A 
ATOM     21  C   LIG    1       -0.389  -0.317   2.597  0.00  0.00    +0.004 A 
ENDBRANCH  15  16
BRANCH  15  22
ATOM     22  C   LIG    1       -0.492   1.780   0.349  0.00  0.00    +0.175 C 
BRANCH  22  23
ATOM     23  O   LIG    1       -0.182   2.600  -0.760  0.00  0.00    -0.394 OA
ATOM     24  H   LIG    1        0.759   2.793  -0.743  0.00  0.00    +0.209 HD
ENDBRANCH  22  23
ENDBRANCH  15  22
ENDBRANCH  13  15
ENDBRANCH   1  13
TORSDOF 6
