REMARK  Name = DB00171
REMARK                            x       y       z     vdW  Elec       q    Type
REMARK                         _______ _______ _______ _____ _____    ______ ____
ROOT
ATOM      1  C   LIG    1        0.127   1.339   0.175  0.00  0.00    +0.178 C 
ATOM      2  O   LIG    1       -0.622   2.398   0.763  0.00  0.00    -0.346 OA
ATOM      3  C   LIG    1       -0.025   3.642   0.541  0.00  0.00    +0.253 C 
ATOM      4  C   LIG    1        0.747   3.478  -0.770  0.00  0.00    +0.195 C 
ATOM      5  C   LIG    1        1.244   2.042  -0.603  0.00  0.00    +0.178 C 
ENDROOT
BRANCH   3   6
ATOM      6  N   LIG    1        0.770   4.055   1.773  0.00  0.00    -0.286 N 
ATOM      7  C   LIG    1        0.242   4.187   3.028  0.00  0.00    +0.167 A 
ATOM      8  N   LIG    1       -1.053   4.091   3.418  0.00  0.00    -0.216 NA
ATOM      9  C   LIG    1       -1.181   4.273   4.742  0.00  0.00    +0.225 A 
ATOM     10  N   LIG    1       -0.237   4.525   5.660  0.00  0.00    -0.219 NA
ATOM     11  C   LIG    1        1.054   4.610   5.236  0.00  0.00    +0.147 A 
ATOM     12  C   LIG    1        1.320   4.440   3.858  0.00  0.00    +0.147 A 
ATOM     13  N   LIG    1        2.466   4.466   3.165  0.00  0.00    -0.231 NA
ATOM     14  C   LIG    1        2.106   4.196   1.936  0.00  0.00    +0.203 A 
BRANCH  11  15
ATOM     15  N   LIG    1        2.051   4.860   6.177  0.00  0.00    -0.341 N 
ATOM     16  H   LIG    1        1.800   4.920   7.153  0.00  0.00    +0.144 HD
ATOM     17  H   LIG    1        3.015   4.778   5.887  0.00  0.00    +0.144 HD
ENDBRANCH  11  15
ENDBRANCH   3   6
BRANCH   4  18
ATOM     18  O   LIG    1       -0.131   3.689  -1.868  0.00  0.00    -0.385 OA
ATOM     19  H   LIG    1        0.384   3.608  -2.675  0.00  0.00    +0.210 HD
ENDBRANCH   4  18
BRANCH   5  20
ATOM     20  O   LIG    1        1.579   1.394  -1.818  0.00  0.00    -0.386 OA
ATOM     21  H   LIG    1        2.107   0.619  -1.605  0.00  0.00    +0.210 HD
ENDBRANCH   5  20
BRANCH   1  22
ATOM     22  C   LIG    1        0.596   0.384   1.287  0.00  0.00    +0.206 C 
BRANCH  22  23
ATOM     23  O   LIG    1        1.373   1.089   2.243  0.00  0.00    -0.284 OA
BRANCH  23  24
ATOM     24  P   LIG    1        2.440   0.181   3.251  0.00  0.00    +0.483 P 
ATOM     25  O   LIG    1        1.929  -1.241   3.363  0.00  0.00    -0.227 OA
BRANCH  24  26
ATOM     26  O   LIG    1        2.760   1.033   4.460  0.00  0.00    -0.302 OA
ATOM     27  H   LIG    1        1.994   1.051   5.055  0.00  0.00    +0.222 HD
ENDBRANCH  24  26
BRANCH  24  28
ATOM     28  O   LIG    1        3.822   0.182   2.233  0.00  0.00    -0.186 OA
BRANCH  28  29
ATOM     29  P   LIG    1        4.493  -0.428   0.776  0.00  0.00    +0.492 P 
ATOM     30  O   LIG    1        5.964  -0.695   1.012  0.00  0.00    -0.226 OA
BRANCH  29  31
ATOM     31  O   LIG    1        3.550  -1.473   0.220  0.00  0.00    -0.302 OA
ATOM     32  H   LIG    1        3.912  -1.830  -0.605  0.00  0.00    +0.222 HD
ENDBRANCH  29  31
BRANCH  29  33
ATOM     33  O   LIG    1        4.347   0.984  -0.184  0.00  0.00    -0.186 OA
BRANCH  33  34
ATOM     34  P   LIG    1        5.170   2.519  -0.376  0.00  0.00    +0.481 P 
ATOM     35  O   LIG    1        4.218   3.405  -1.202  0.00  0.00    -0.227 OA
BRANCH  34  36
ATOM     36  O   LIG    1        5.402   3.064   1.044  0.00  0.00    -0.302 OA
ATOM     37  H   LIG    1        5.858   3.919   0.992  0.00  0.00    +0.222 HD
ENDBRANCH  34  36
BRANCH  34  38
ATOM     38  O   LIG    1        6.481   2.207  -1.121  0.00  0.00    -0.302 OA
ATOM     39  H   LIG    1        6.980   3.028  -1.255  0.00  0.00    +0.222 HD
ENDBRANCH  34  38
ENDBRANCH  33  34
ENDBRANCH  29  33
ENDBRANCH  28  29
ENDBRANCH  24  28
ENDBRANCH  23  24
ENDBRANCH  22  23
ENDBRANCH   1  22
TORSDOF 15
