REMARK  Name = DB00359
REMARK                            x       y       z     vdW  Elec       q    Type
REMARK                         _______ _______ _______ _____ _____    ______ ____
ROOT
ATOM      1  S   LIG    1       -0.069   0.000   0.000  0.00  0.00    +0.075 S 
ATOM      2  O   LIG    1       -0.523  -0.570   1.274  0.00  0.00    -0.150 OA
ATOM      3  O   LIG    1       -0.523  -0.570  -1.274  0.00  0.00    -0.150 OA
ENDROOT
BRANCH   1   4
ATOM      4  C   LIG    1       -0.447   1.749   0.000  0.00  0.00    +0.109 A 
ATOM      5  C   LIG    1       -0.586   2.429  -1.212  0.00  0.00    +0.030 A 
ATOM      6  C   LIG    1       -0.874   3.791  -1.211  0.00  0.00    +0.024 A 
ATOM      7  C   LIG    1       -1.018   4.468   0.000  0.00  0.00    +0.025 A 
ATOM      8  C   LIG    1       -0.874   3.791   1.211  0.00  0.00    +0.024 A 
ATOM      9  C   LIG    1       -0.586   2.429   1.212  0.00  0.00    +0.030 A 
BRANCH   7  10
ATOM     10  N   LIG    1       -1.308   5.832   0.000  0.00  0.00    -0.358 N 
ATOM     11  H   LIG    1       -1.418   6.317   0.879  0.00  0.00    +0.142 HD
ATOM     12  H   LIG    1       -1.418   6.317  -0.879  0.00  0.00    +0.142 HD
ENDBRANCH   7  10
ENDBRANCH   1   4
BRANCH   1  13
ATOM     13  N   LIG    1        1.703  -0.087   0.000  0.00  0.00    -0.184 N 
ATOM     14  H   LIG    1        2.227   0.775   0.000  0.00  0.00    +0.177 HD
BRANCH  13  15
ATOM     15  C   LIG    1        2.417  -1.292   0.000  0.00  0.00    +0.235 A 
ATOM     16  N   LIG    1        1.736  -2.472   0.000  0.00  0.00    -0.222 NA
ATOM     17  C   LIG    1        2.480  -3.608   0.000  0.00  0.00    +0.116 A 
ATOM     18  C   LIG    1        3.876  -3.588   0.000  0.00  0.00    +0.039 A 
ATOM     19  C   LIG    1        4.485  -2.332   0.000  0.00  0.00    +0.116 A 
ATOM     20  N   LIG    1        3.771  -1.175   0.000  0.00  0.00    -0.222 NA
ENDBRANCH  13  15
ENDBRANCH   1  13
TORSDOF 4
