REMARK  Name = DB00180
REMARK                            x       y       z     vdW  Elec       q    Type
REMARK                         _______ _______ _______ _____ _____    ______ ____
ROOT
ATOM      1  C   LIG    1       -3.433  -2.941   3.766  0.00  0.00    +0.016 C 
ATOM      2  C   LIG    1       -2.785  -4.320   4.075  0.00  0.00    +0.020 C 
ATOM      3  C   LIG    1       -4.783  -3.195   3.030  0.00  0.00    -0.023 C 
ATOM      4  C   LIG    1       -4.621  -3.796   1.625  0.00  0.00    +0.193 C 
ATOM      5  F   LIG    1       -5.814  -3.966   1.048  0.00  0.00    -0.241 F 
ATOM      6  C   LIG    1       -3.784  -2.829   0.773  0.00  0.00    +0.045 C 
ATOM      7  C   LIG    1       -2.397  -2.543   1.393  0.00  0.00    +0.002 C 
ATOM      8  C   LIG    1       -1.611  -1.515   0.530  0.00  0.00    +0.004 C 
ATOM      9  C   LIG    1       -0.205  -1.183   1.084  0.00  0.00    +0.012 C 
ATOM     10  C   LIG    1        0.723  -2.445   1.147  0.00  0.00    +0.015 C 
ATOM     11  C   LIG    1        0.276  -0.170  -0.022  0.00  0.00    +0.164 C 
ATOM     12  O   LIG    1       -0.374   1.094   0.053  0.00  0.00    -0.332 OA
ATOM     13  C   LIG    1       -0.794   1.521  -1.206  0.00  0.00    +0.166 C 
ATOM     14  C   LIG    1       -2.176   2.142  -1.066  0.00  0.00    +0.074 C 
ATOM     15  C   LIG    1        0.236   2.472  -1.813  0.00  0.00    +0.074 C 
ATOM     16  O   LIG    1       -0.890   0.385  -1.996  0.00  0.00    -0.343 OA
ATOM     17  C   LIG    1       -0.307  -0.733  -1.350  0.00  0.00    +0.162 C 
ATOM     18  C   LIG    1       -0.425  -0.562   2.496  0.00  0.00    +0.042 C 
ATOM     19  C   LIG    1       -1.207  -1.486   3.473  0.00  0.00    +0.120 C 
ATOM     20  C   LIG    1       -1.390  -1.766  -0.967  0.00  0.00    +0.039 C 
ATOM     21  C   LIG    1       -5.990  -2.894   3.575  0.00  0.00    +0.053 C 
ATOM     22  C   LIG    1       -6.200  -2.297   4.894  0.00  0.00    +0.179 C 
ATOM     23  O   LIG    1       -7.314  -2.057   5.355  0.00  0.00    -0.288 OA
ATOM     24  C   LIG    1       -4.961  -2.009   5.607  0.00  0.00    +0.047 C 
ATOM     25  C   LIG    1       -2.565  -1.986   2.851  0.00  0.00    +0.035 C 
ATOM     26  C   LIG    1       -3.735  -2.285   5.123  0.00  0.00    -0.012 C 
ENDROOT
BRANCH  11  27
ATOM     27  C   LIG    1        1.818   0.052  -0.034  0.00  0.00    +0.193 C 
ATOM     28  O   LIG    1        2.555  -0.604  -0.775  0.00  0.00    -0.292 OA
BRANCH  27  29
ATOM     29  C   LIG    1        2.370   1.143   0.904  0.00  0.00    +0.233 C 
BRANCH  29  30
ATOM     30  O   LIG    1        3.778   1.242   0.787  0.00  0.00    -0.387 OA
ATOM     31  H   LIG    1        4.085   1.945   1.364  0.00  0.00    +0.210 HD
ENDBRANCH  29  30
ENDBRANCH  27  29
ENDBRANCH  11  27
BRANCH  19  32
ATOM     32  O   LIG    1       -0.369  -2.514   3.959  0.00  0.00    -0.391 OA
ATOM     33  H   LIG    1       -0.851  -3.011   4.625  0.00  0.00    +0.210 HD
ENDBRANCH  19  32
TORSDOF 4
