REMARK  Name = DB00577
REMARK                            x       y       z     vdW  Elec       q    Type
REMARK                         _______ _______ _______ _____ _____    ______ ____
ROOT
ATOM      1  C   LIG    1        3.920  -2.634   0.090  0.00  0.00    +0.287 C 
ENDROOT
BRANCH   1   2
ATOM      2  N   LIG    1        5.357  -2.611   0.024  0.00  0.00    -0.292 N 
ATOM      3  C   LIG    1        6.261  -2.633   1.064  0.00  0.00    +0.203 A 
ATOM      4  N   LIG    1        7.522  -2.599   0.693  0.00  0.00    -0.229 NA
ATOM      5  C   LIG    1        7.479  -2.548  -0.628  0.00  0.00    +0.172 A 
ATOM      6  C   LIG    1        8.605  -2.491  -1.568  0.00  0.00    +0.302 A 
ATOM      7  N   LIG    1        8.202  -2.420  -2.926  0.00  0.00    -0.176 NA
ATOM      8  C   LIG    1        6.972  -2.421  -3.328  0.00  0.00    +0.195 A 
ATOM      9  N   LIG    1        5.862  -2.497  -2.428  0.00  0.00    -0.312 N 
ATOM     10  H   LIG    1        4.939  -2.449  -2.835  0.00  0.00    +0.170 HD
ATOM     11  O   LIG    1        9.773  -2.506  -1.183  0.00  0.00    -0.263 OA
ATOM     12  C   LIG    1        6.165  -2.554  -1.084  0.00  0.00    +0.148 A 
BRANCH   8  13
ATOM     13  N   LIG    1        6.716  -2.348  -4.715  0.00  0.00    -0.329 N 
ATOM     14  H   LIG    1        5.881  -2.785  -5.077  0.00  0.00    +0.145 HD
ATOM     15  H   LIG    1        7.496  -2.437  -5.351  0.00  0.00    +0.145 HD
ENDBRANCH   8  13
ENDBRANCH   1   2
BRANCH   1  16
ATOM     16  O   LIG    1        3.418  -1.342  -0.034  0.00  0.00    -0.356 OA
BRANCH  16  17
ATOM     17  C   LIG    1        2.002  -1.266   0.055  0.00  0.00    +0.203 C 
BRANCH  17  18
ATOM     18  C   LIG    1        1.574   0.193  -0.138  0.00  0.00    +0.260 C 
BRANCH  18  19
ATOM     19  O   LIG    1        0.156   0.252  -0.038  0.00  0.00    -0.461 OA
BRANCH  19  20
ATOM     20  C   LIG    1       -0.505   1.429  -0.193  0.00  0.00    +0.324 C 
ATOM     21  O   LIG    1        0.033   2.514  -0.425  0.00  0.00    -0.249 OA
BRANCH  20  22
ATOM     22  C   LIG    1       -2.014   1.302  -0.025  0.00  0.00    +0.163 C 
BRANCH  22  23
ATOM     23  C   LIG    1       -2.480   1.246   1.463  0.00  0.00    +0.010 C 
ATOM     24  C   LIG    1       -1.971   0.025   2.259  0.00  0.00    +0.009 C 
ATOM     25  C   LIG    1       -2.171   2.544   2.234  0.00  0.00    +0.009 C 
ENDBRANCH  22  23
BRANCH  22  26
ATOM     26  N   LIG    1       -2.528   0.180  -0.834  0.00  0.00    -0.318 NA
ATOM     27  H   LIG    1       -2.406   0.371  -1.818  0.00  0.00    +0.119 HD
ATOM     28  H   LIG    1       -3.523   0.076  -0.698  0.00  0.00    +0.119 HD
ENDBRANCH  22  26
ENDBRANCH  20  22
ENDBRANCH  19  20
ENDBRANCH  18  19
ENDBRANCH  17  18
ENDBRANCH  16  17
ENDBRANCH   1  16
TORSDOF 10
