REMARK  Name = DB00857
REMARK                            x       y       z     vdW  Elec       q    Type
REMARK                         _______ _______ _______ _____ _____    ______ ____
ROOT
ATOM      1  C   LIG    1       -0.036   1.458  -0.161  0.00  0.00    +0.120 C 
ENDROOT
BRANCH   1   5
ATOM      2  C   LIG    1       -1.793  -0.192  -3.865  0.00  0.00    +0.001 A 
ATOM      3  C   LIG    1       -1.258   0.350  -2.700  0.00  0.00    +0.009 A 
ATOM      4  C   LIG    1       -0.010   1.037  -2.718  0.00  0.00    -0.013 A 
ATOM      5  C   LIG    1        0.606   1.590  -1.547  0.00  0.00    -0.026 A 
ATOM      6  C   LIG    1        1.801   2.302  -1.665  0.00  0.00    +0.005 A 
ATOM      7  C   LIG    1        2.441   2.434  -2.890  0.00  0.00    +0.001 A 
ATOM      8  C   LIG    1        1.894   1.870  -4.036  0.00  0.00    +0.008 A 
ATOM      9  C   LIG    1        0.664   1.172  -3.975  0.00  0.00    -0.018 A 
ATOM     10  C   LIG    1        0.091   0.606  -5.141  0.00  0.00    +0.008 A 
ATOM     11  C   LIG    1       -1.123  -0.069  -5.075  0.00  0.00    +0.001 A 
ENDBRANCH   1   5
BRANCH   1  12
ATOM     12  N   LIG    1       -0.218   0.075   0.312  0.00  0.00    -0.298 NA
ATOM     13  C   LIG    1       -0.996   0.098   1.549  0.00  0.00    +0.105 C 
BRANCH  12  14
ATOM     14  C   LIG    1        1.043  -0.644   0.533  0.00  0.00    +0.112 C 
BRANCH  14  15
ATOM     15  C   LIG    1        1.694  -1.174  -0.731  0.00  0.00    -0.003 C 
ATOM     16  C   LIG    1        2.950  -0.892  -1.116  0.00  0.00    +0.057 C 
BRANCH  16  17
ATOM     17  C   LIG    1        3.512  -1.337  -2.347  0.00  0.00    -0.074 C 
ATOM     18  C   LIG    1        3.934  -1.623  -3.456  0.00  0.00    -0.092 C 
BRANCH  18  19
ATOM     19  C   LIG    1        4.418  -1.930  -4.821  0.00  0.00    +0.024 C 
ATOM     20  C   LIG    1        3.240  -1.837  -5.820  0.00  0.00    +0.024 C 
ATOM     21  C   LIG    1        5.510  -0.912  -5.223  0.00  0.00    +0.024 C 
ATOM     22  C   LIG    1        5.010  -3.359  -4.854  0.00  0.00    +0.024 C 
ENDBRANCH  18  19
ENDBRANCH  16  17
ENDBRANCH  14  15
ENDBRANCH  12  14
ENDBRANCH   1  12
TORSDOF 6
