REMARK  Name = DB00606
REMARK                            x       y       z     vdW  Elec       q    Type
REMARK                         _______ _______ _______ _____ _____    ______ ____
ROOT
ATOM      1  C   LIG    1       -4.990  -1.196  -0.373  0.00  0.00    +0.163 C 
ATOM      2  N   LIG    1       -4.147  -0.010  -0.568  0.00  0.00    -0.326 N 
ATOM      3  H   LIG    1       -4.619   0.864  -0.387  0.00  0.00    +0.148 HD
ATOM      4  C   LIG    1       -2.743  -0.062  -0.433  0.00  0.00    +0.056 A 
ATOM      5  C   LIG    1       -2.062   1.154  -0.340  0.00  0.00    +0.047 A 
ATOM      6  C   LIG    1       -0.688   1.195  -0.102  0.00  0.00    +0.069 A 
ATOM      7 CL   LIG    1        0.076   2.745  -0.021  0.00  0.00    -0.081 Cl
ATOM      8  C   LIG    1        0.026  -0.002   0.071  0.00  0.00    +0.125 A 
ATOM      9  C   LIG    1       -0.655  -1.221   0.001  0.00  0.00    +0.060 A 
ATOM     10  C   LIG    1       -2.028  -1.260  -0.248  0.00  0.00    +0.128 A 
ATOM     11  S   LIG    1       -2.827  -2.850  -0.330  0.00  0.00    +0.062 S 
ATOM     12  O   LIG    1       -2.993  -3.205  -1.744  0.00  0.00    -0.153 OA
ATOM     13  O   LIG    1       -2.176  -3.796   0.583  0.00  0.00    -0.153 OA
ATOM     14  N   LIG    1       -4.362  -2.335   0.319  0.00  0.00    -0.170 NA
ATOM     15  H   LIG    1       -4.704  -2.665   1.225  0.00  0.00    +0.150 HD
ENDROOT
BRANCH   1  16
ATOM     16  C   LIG    1       -6.280  -0.797   0.399  0.00  0.00    +0.033 C 
ATOM     17  C   LIG    1       -7.140   0.298  -0.309  0.00  0.00    +0.015 C 
ATOM     18  C   LIG    1       -8.539  -0.357  -0.415  0.00  0.00    +0.012 C 
ATOM     19  C   LIG    1       -8.186  -1.810  -0.691  0.00  0.00    +0.015 C 
ATOM     20  C   LIG    1       -9.096  -0.524   0.995  0.00  0.00    -0.027 C 
ATOM     21  C   LIG    1       -8.366  -1.492   1.586  0.00  0.00    -0.027 C 
ATOM     22  C   LIG    1       -7.329  -1.944   0.560  0.00  0.00    +0.018 C 
ENDBRANCH   1  16
BRANCH   8  23
ATOM     23  S   LIG    1        1.797  -0.012   0.386  0.00  0.00    +0.057 S 
ATOM     24  O   LIG    1        2.244  -1.410   0.406  0.00  0.00    -0.153 OA
ATOM     25  O   LIG    1        2.034   0.864   1.538  0.00  0.00    -0.153 OA
BRANCH  23  26
ATOM     26  N   LIG    1        2.515   0.743  -1.025  0.00  0.00    -0.203 NA
ATOM     27  H   LIG    1        2.285   1.734  -1.139  0.00  0.00    +0.144 HD
ATOM     28  H   LIG    1        2.421   0.204  -1.890  0.00  0.00    +0.144 HD
ENDBRANCH  23  26
ENDBRANCH   8  23
TORSDOF 3
