REMARK  Name = DB00780
REMARK                            x       y       z     vdW  Elec       q    Type
REMARK                         _______ _______ _______ _____ _____    ______ ____
ROOT
ATOM      1  C   LIG    1        1.946  -1.422  -0.135  0.00  0.00    +0.051 C 
ENDROOT
BRANCH   1   2
ATOM      2  C   LIG    1        3.465  -1.415  -0.051  0.00  0.00    -0.046 A 
ATOM      3  C   LIG    1        4.093  -1.443   1.197  0.00  0.00    +0.003 A 
ATOM      4  C   LIG    1        5.483  -1.433   1.277  0.00  0.00    +0.000 A 
ATOM      5  C   LIG    1        6.241  -1.396   0.108  0.00  0.00    +0.000 A 
ATOM      6  C   LIG    1        5.621  -1.368  -1.140  0.00  0.00    +0.000 A 
ATOM      7  C   LIG    1        4.231  -1.376  -1.220  0.00  0.00    +0.003 A 
ENDBRANCH   1   2
BRANCH   1   8
ATOM      8  C   LIG    1        1.341  -0.017   0.022  0.00  0.00    +0.103 C 
BRANCH   8   9
ATOM      9  N   LIG    1       -0.110  -0.075  -0.051  0.00  0.00    -0.259 NA
ATOM     10  H   LIG    1       -0.486  -0.482  -0.896  0.00  0.00    +0.140 HD
BRANCH   9  11
ATOM     11  N   LIG    1       -0.700   1.220   0.126  0.00  0.00    -0.270 NA
ATOM     12  H   LIG    1       -0.152   1.886  -0.401  0.00  0.00    +0.137 HD
ATOM     13  H   LIG    1       -0.679   1.437   1.113  0.00  0.00    +0.137 HD
ENDBRANCH   9  11
ENDBRANCH   8   9
ENDBRANCH   1   8
TORSDOF 4
