REMARK  Name = DB00625
REMARK                            x       y       z     vdW  Elec       q    Type
REMARK                         _______ _______ _______ _____ _____    ______ ____
ROOT
ATOM      1 CL   LIG    1        0.078  -4.480   2.914  0.00  0.00    -0.084 Cl
ATOM      2  C   LIG    1       -0.527  -2.905   2.550  0.00  0.00    +0.042 A 
ATOM      3  C   LIG    1       -1.552  -2.357   3.319  0.00  0.00    +0.022 A 
ATOM      4  C   LIG    1       -2.041  -1.087   3.021  0.00  0.00    +0.025 A 
ATOM      5  C   LIG    1       -1.499  -0.367   1.954  0.00  0.00    +0.045 A 
ATOM      6  C   LIG    1       -0.467  -0.897   1.166  0.00  0.00    +0.040 A 
ATOM      7  C   LIG    1        0.040  -0.048  -0.031  0.00  0.00    +0.296 C 
ATOM      8  O   LIG    1       -0.358   1.349   0.025  0.00  0.00    -0.417 OA
ATOM      9  C   LIG    1       -1.455   1.780   0.735  0.00  0.00    +0.407 C 
ATOM     10  O   LIG    1       -1.872   2.918   0.535  0.00  0.00    -0.226 OA
ATOM     11  N   LIG    1       -1.982   0.901   1.668  0.00  0.00    -0.251 N 
ATOM     12  H   LIG    1       -2.766   1.258   2.195  0.00  0.00    +0.158 HD
ATOM     13  C   LIG    1        0.005  -2.182   1.483  0.00  0.00    +0.030 A 
ENDROOT
BRANCH   7  14
ATOM     14  C   LIG    1       -0.473  -0.638  -1.384  0.00  0.00    +0.446 C 
ATOM     15  F   LIG    1       -1.807  -0.662  -1.422  0.00  0.00    -0.165 F 
ATOM     16  F   LIG    1       -0.072   0.076  -2.441  0.00  0.00    -0.165 F 
ATOM     17  F   LIG    1       -0.063  -1.893  -1.588  0.00  0.00    -0.165 F 
ENDBRANCH   7  14
BRANCH   7  18
ATOM     18  C   LIG    1        1.524   0.000  -0.027  0.00  0.00    -0.041 C 
ATOM     19  C   LIG    1        2.745   0.023  -0.010  0.00  0.00    -0.094 C 
BRANCH  19  20
ATOM     20  C   LIG    1        4.216   0.033   0.026  0.00  0.00    +0.064 C 
ATOM     21  C   LIG    1        4.904  -0.305   1.332  0.00  0.00    +0.017 C 
ATOM     22  C   LIG    1        4.937  -1.289   0.190  0.00  0.00    +0.017 C 
ENDBRANCH  19  20
ENDBRANCH   7  18
TORSDOF 3
