REMARK  Name = DB00355
REMARK                            x       y       z     vdW  Elec       q    Type
REMARK                         _______ _______ _______ _____ _____    ______ ____
ROOT
ATOM      1  C   LIG    1       -0.300   1.042   0.360  0.00  0.00    +0.190 C 
ATOM      2  N   LIG    1        0.078  -0.187   0.263  0.00  0.00    -0.077 NA
ENDROOT
BRANCH   1   3
ATOM      3  C   LIG    1       -1.720   1.394   0.118  0.00  0.00    +0.107 A 
ATOM      4  N   LIG    1       -2.156   2.644   0.228  0.00  0.00    -0.225 NA
ATOM      5  C   LIG    1       -3.438   2.741  -0.009  0.00  0.00    +0.140 A 
ATOM      6  S   LIG    1       -4.242   1.262  -0.408  0.00  0.00    -0.062 S 
ATOM      7  C   LIG    1       -2.709   0.461  -0.229  0.00  0.00    +0.078 A 
BRANCH   5   8
ATOM      8  N   LIG    1       -4.212   3.983   0.047  0.00  0.00    -0.397 NA
ATOM      9  H   LIG    1       -4.915   3.952   0.771  0.00  0.00    +0.122 HD
ATOM     10  H   LIG    1       -4.689   4.165  -0.824  0.00  0.00    +0.122 HD
ATOM     11  H   LIG    1       -3.622   4.781   0.237  0.00  0.00    +0.122 HD
ENDBRANCH   5   8
ENDBRANCH   1   3
BRANCH   1  14
ATOM     12  N   LIG    1        1.526   2.376  -0.300  0.00  0.00    -0.297 N 
ATOM     13  H   LIG    1        1.406   1.889  -1.176  0.00  0.00    +0.150 HD
ATOM     14  C   LIG    1        0.663   2.103   0.697  0.00  0.00    +0.268 C 
ATOM     15  O   LIG    1        0.651   2.672   1.789  0.00  0.00    -0.268 OA
BRANCH  12  16
ATOM     16  C   LIG    1        2.655   3.306  -0.249  0.00  0.00    +0.183 C 
ATOM     17  C   LIG    1        3.854   2.767  -1.084  0.00  0.00    +0.259 C 
ATOM     18  O   LIG    1        4.037   2.151  -2.133  0.00  0.00    -0.272 OA
ATOM     19  N   LIG    1        4.741   3.167  -0.029  0.00  0.00    -0.146 N 
ATOM     20  C   LIG    1        3.629   3.203   0.966  0.00  0.00    +0.129 C 
ATOM     21  C   LIG    1        3.565   4.374   1.958  0.00  0.00    +0.032 C 
BRANCH  19  22
ATOM     22  S   LIG    1        6.454   2.875   0.249  0.00  0.00    +0.169 S 
ATOM     23  O   LIG    1        6.487   1.481   0.706  0.00  0.00    -0.126 OA
ATOM     24  O   LIG    1        6.809   3.860   1.277  0.00  0.00    -0.126 OA
BRANCH  22  25
ATOM     25  O   LIG    1        7.065   3.105  -1.065  0.00  0.00    -0.238 OA
ATOM     26  H   LIG    1        7.001   4.047  -1.291  0.00  0.00    +0.246 HD
ENDBRANCH  22  25
ENDBRANCH  19  22
ENDBRANCH  12  16
ENDBRANCH   1  14
BRANCH   2  27
ATOM     27  O   LIG    1        1.457  -0.425   0.549  0.00  0.00    -0.376 OA
BRANCH  27  28
ATOM     28  C   LIG    1        1.858  -1.789   0.318  0.00  0.00    +0.228 C 
ATOM     29  C   LIG    1        3.338  -1.808   0.759  0.00  0.00    +0.070 C 
ATOM     30  C   LIG    1        1.780  -2.105  -1.199  0.00  0.00    +0.070 C 
BRANCH  28  31
ATOM     31  C   LIG    1        1.059  -2.803   1.185  0.00  0.00    +0.351 C 
ATOM     32  O   LIG    1        0.801  -3.949   0.821  0.00  0.00    -0.246 OA
BRANCH  31  33
ATOM     33  O   LIG    1        0.693  -2.284   2.395  0.00  0.00    -0.478 OA
ATOM     34  H   LIG    1        0.206  -2.914   2.931  0.00  0.00    +0.295 HD
ENDBRANCH  31  33
ENDBRANCH  28  31
ENDBRANCH  27  28
ENDBRANCH   2  27
TORSDOF 10
