REMARK  Name = DB00864
REMARK                            x       y       z     vdW  Elec       q    Type
REMARK                         _______ _______ _______ _____ _____    ______ ____
ROOT
ATOM      1  C   LIG    1        1.323  -0.670  -0.169  0.00  0.00    +0.207 C 
ATOM      2  O   LIG    1        1.853  -1.687   0.694  0.00  0.00    -0.455 OA
ATOM      3  C   LIG    1        1.759  -1.629   2.052  0.00  0.00    +0.328 C 
ATOM      4  O   LIG    1        1.057  -0.841   2.690  0.00  0.00    -0.249 OA
ATOM      5  C   LIG    1        2.682  -2.666   2.735  0.00  0.00    +0.185 C 
ATOM      6  C   LIG    1        2.297  -2.968   4.213  0.00  0.00    +0.034 C 
ATOM      7  C   LIG    1        2.726  -1.904   5.236  0.00  0.00    +0.004 C 
ATOM      8  C   LIG    1        4.189  -1.513   5.027  0.00  0.00    +0.019 C 
ATOM      9  C   LIG    1        4.479  -1.058   3.584  0.00  0.00    +0.109 C 
ATOM     10  N   LIG    1        4.083  -2.157   2.662  0.00  0.00    -0.282 N 
ATOM     11  C   LIG    1        4.939  -2.745   1.770  0.00  0.00    +0.288 C 
ATOM     12  O   LIG    1        4.817  -3.902   1.365  0.00  0.00    -0.267 OA
ATOM     13  C   LIG    1        6.058  -1.800   1.117  0.00  0.00    +0.276 C 
ATOM     14  O   LIG    1        5.961  -0.575   1.243  0.00  0.00    -0.281 OA
ATOM     15  C   LIG    1        7.243  -2.422   0.227  0.00  0.00    +0.240 C 
ATOM     16  O   LIG    1        8.160  -1.351   0.205  0.00  0.00    -0.334 OA
ATOM     17  C   LIG    1        9.346  -1.434  -0.595  0.00  0.00    +0.179 C 
ATOM     18  C   LIG    1        9.032  -1.828  -2.057  0.00  0.00    +0.150 C 
ATOM     19  C   LIG    1        8.124  -3.063  -2.077  0.00  0.00    +0.043 C 
ATOM     20  C   LIG    1       10.024  -0.036  -0.460  0.00  0.00    +0.149 C 
ATOM     21  C   LIG    1        9.121   1.128  -0.969  0.00  0.00    +0.038 C 
ATOM     22  C   LIG    1        9.409   2.524  -0.359  0.00  0.00    -0.008 C 
ATOM     23  C   LIG    1       10.785   3.078  -0.781  0.00  0.00    +0.008 C 
ATOM     24  C   LIG    1        8.290   3.553  -0.684  0.00  0.00    +0.033 C 
ATOM     25  C   LIG    1        6.884   3.227  -0.168  0.00  0.00    -0.076 C 
ATOM     26  C   LIG    1        6.802   2.941   1.327  0.00  0.00    +0.039 C 
ATOM     27  C   LIG    1        5.813   3.261  -0.995  0.00  0.00    -0.017 C 
ATOM     28  C   LIG    1        4.346   3.012  -0.644  0.00  0.00    +0.082 C 
ATOM     29  C   LIG    1        3.819   1.840  -1.494  0.00  0.00    +0.143 C 
ATOM     30  O   LIG    1        3.183   2.025  -2.533  0.00  0.00    -0.297 OA
ATOM     31  C   LIG    1        4.122   0.434  -0.957  0.00  0.00    +0.106 C 
ATOM     32  C   LIG    1        3.456  -0.782  -1.651  0.00  0.00    +0.128 C 
ATOM     33  C   LIG    1        6.851  -2.801  -1.242  0.00  0.00    +0.056 C 
ATOM     34  C   LIG    1        5.849  -3.962  -1.435  0.00  0.00    +0.013 C 
ATOM     35  C   LIG    1        1.896  -0.838  -1.612  0.00  0.00    +0.060 C 
ATOM     36  C   LIG    1        1.357  -2.108  -2.317  0.00  0.00    +0.014 C 
ENDROOT
BRANCH   1  37
ATOM     37  C   LIG    1       -0.206  -0.521  -0.108  0.00  0.00    -0.036 C 
ATOM     38  C   LIG    1       -1.023  -1.795   0.096  0.00  0.00    +0.042 C 
ATOM     39  C   LIG    1       -0.757   0.705  -0.236  0.00  0.00    -0.021 C 
BRANCH  39  40
ATOM     40  C   LIG    1       -2.233   1.078  -0.180  0.00  0.00    +0.014 C 
ATOM     41  C   LIG    1       -2.439   2.103   0.959  0.00  0.00    +0.041 C 
ATOM     42  C   LIG    1       -3.927   2.523   1.061  0.00  0.00    +0.147 C 
ATOM     43  C   LIG    1       -4.425   3.118  -0.283  0.00  0.00    +0.143 C 
ATOM     44  C   LIG    1       -4.103   2.208  -1.493  0.00  0.00    +0.034 C 
ATOM     45  C   LIG    1       -2.631   1.748  -1.514  0.00  0.00    +0.010 C 
BRANCH  42  46
ATOM     46  O   LIG    1       -4.134   3.484   2.097  0.00  0.00    -0.377 OA
ATOM     47  C   LIG    1       -4.049   2.991   3.428  0.00  0.00    +0.194 C 
ENDBRANCH  42  46
BRANCH  43  48
ATOM     48  O   LIG    1       -5.815   3.382  -0.245  0.00  0.00    -0.389 OA
ATOM     49  H   LIG    1       -6.278   2.554  -0.094  0.00  0.00    +0.210 HD
ENDBRANCH  43  48
ENDBRANCH  39  40
ENDBRANCH   1  37
BRANCH  15  50
ATOM     50  O   LIG    1        7.773  -3.522   0.865  0.00  0.00    -0.358 OA
ATOM     51  H   LIG    1        8.042  -3.249   1.745  0.00  0.00    +0.213 HD
ENDBRANCH  15  50
BRANCH  18  52
ATOM     52  O   LIG    1       10.249  -2.061  -2.765  0.00  0.00    -0.377 OA
ATOM     53  C   LIG    1       10.153  -2.015  -4.183  0.00  0.00    +0.194 C 
ENDBRANCH  18  52
BRANCH  20  54
ATOM     54  O   LIG    1       11.271   0.037  -1.153  0.00  0.00    -0.377 OA
ATOM     55  C   LIG    1       12.339  -0.709  -0.584  0.00  0.00    +0.194 C 
ENDBRANCH  20  54
BRANCH  32  56
ATOM     56  O   LIG    1        3.947  -0.878  -2.978  0.00  0.00    -0.391 OA
ATOM     57  H   LIG    1        3.555  -1.651  -3.391  0.00  0.00    +0.210 HD
ENDBRANCH  32  56
BRANCH  28  58
ATOM     58  C   LIG    1        3.487   4.297  -0.751  0.00  0.00    +0.041 C 
BRANCH  58  59
ATOM     59  C   LIG    1        2.069   4.151  -0.220  0.00  0.00    -0.033 C 
ATOM     60  C   LIG    1        0.956   4.274  -0.961  0.00  0.00    +0.004 C 
ENDBRANCH  58  59
ENDBRANCH  28  58
TORSDOF 10
