REMARK  Name = DB00137
REMARK                            x       y       z     vdW  Elec       q    Type
REMARK                         _______ _______ _______ _____ _____    ______ ____
ROOT
ATOM      1  C   LIG    1        1.671   0.303   0.058  0.00  0.00    +0.000 C 
ATOM      2  C   LIG    1        2.136  -0.954   0.172  0.00  0.00    +0.000 C 
ENDROOT
BRANCH   1   5
ATOM      3  C   LIG    1       -0.315   1.832  -0.179  0.00  0.00    -0.050 C 
ATOM      4  C   LIG    1        0.510   3.098  -0.412  0.00  0.00    +0.044 C 
ATOM      5  C   LIG    1        0.249   0.614   0.006  0.00  0.00    +0.003 C 
BRANCH   3   7
ATOM      6  C   LIG    1       -2.511   3.025  -0.291  0.00  0.00    +0.001 C 
ATOM      7  C   LIG    1       -1.777   1.901  -0.164  0.00  0.00    +0.003 C 
BRANCH   6  10
ATOM      8  C   LIG    1       -4.796   4.078  -0.387  0.00  0.00    -0.050 C 
ATOM      9  C   LIG    1       -4.291   5.498  -0.649  0.00  0.00    +0.044 C 
ATOM     10  C   LIG    1       -3.966   3.016  -0.249  0.00  0.00    +0.003 C 
BRANCH   8  12
ATOM     11  C   LIG    1       -7.205   4.754  -0.367  0.00  0.00    +0.004 C 
ATOM     12  C   LIG    1       -6.232   3.822  -0.285  0.00  0.00    +0.003 C 
BRANCH  11  13
ATOM     13  C   LIG    1       -8.635   4.465  -0.243  0.00  0.00    -0.043 C 
ATOM     14  C   LIG    1       -9.392   5.184   0.912  0.00  0.00    -0.008 C 
ATOM     15  C   LIG    1       -9.535   6.677   0.526  0.00  0.00    +0.016 C 
ATOM     16  C   LIG    1       -8.612   4.990   2.239  0.00  0.00    +0.016 C 
ATOM     17  C   LIG    1      -10.810   4.576   1.129  0.00  0.00    +0.042 C 
ATOM     18  C   LIG    1      -11.547   4.269  -0.177  0.00  0.00    +0.119 C 
ATOM     19  C   LIG    1      -10.748   3.253  -1.003  0.00  0.00    +0.062 C 
ATOM     20  C   LIG    1       -9.268   3.625  -1.120  0.00  0.00    -0.067 C 
ATOM     21  C   LIG    1       -8.573   2.916  -2.283  0.00  0.00    +0.039 C 
BRANCH  18  22
ATOM     22  O   LIG    1      -12.858   3.806   0.076  0.00  0.00    -0.391 OA
ATOM     23  H   LIG    1      -13.188   3.373  -0.715  0.00  0.00    +0.210 HD
ENDBRANCH  18  22
ENDBRANCH  11  13
ENDBRANCH   8  12
ENDBRANCH   6  10
ENDBRANCH   3   7
ENDBRANCH   1   5
BRANCH   2  24
ATOM     24  C   LIG    1        3.557  -1.265   0.245  0.00  0.00    +0.003 C 
ATOM     25  C   LIG    1        4.123  -2.495   0.287  0.00  0.00    -0.050 C 
ATOM     26  C   LIG    1        3.304  -3.785   0.225  0.00  0.00    +0.044 C 
BRANCH  25  27
ATOM     27  C   LIG    1        5.582  -2.559   0.384  0.00  0.00    +0.003 C 
ATOM     28  C   LIG    1        6.313  -3.690   0.444  0.00  0.00    +0.001 C 
BRANCH  28  29
ATOM     29  C   LIG    1        7.765  -3.685   0.551  0.00  0.00    +0.003 C 
ATOM     30  C   LIG    1        8.579  -4.769   0.532  0.00  0.00    -0.051 C 
ATOM     31  C   LIG    1        8.065  -6.189   0.328  0.00  0.00    +0.044 C 
BRANCH  30  32
ATOM     32  C   LIG    1       10.022  -4.600   0.654  0.00  0.00    -0.000 C 
ATOM     33  C   LIG    1       10.744  -3.608   0.096  0.00  0.00    -0.018 C 
BRANCH  33  34
ATOM     34  C   LIG    1       12.259  -3.454   0.234  0.00  0.00    +0.043 C 
ATOM     35  C   LIG    1       12.641  -2.153   1.036  0.00  0.00    -0.022 C 
ATOM     36  C   LIG    1       12.235  -2.338   2.520  0.00  0.00    +0.012 C 
ATOM     37  C   LIG    1       11.991  -0.875   0.435  0.00  0.00    +0.012 C 
ATOM     38  C   LIG    1       14.191  -2.038   1.000  0.00  0.00    +0.042 C 
ATOM     39  C   LIG    1       14.740  -1.796  -0.424  0.00  0.00    +0.138 C 
ATOM     40  C   LIG    1       14.091  -2.782  -1.389  0.00  0.00    +0.003 C 
ATOM     41  C   LIG    1       12.992  -3.528  -1.126  0.00  0.00    -0.067 C 
ATOM     42  C   LIG    1       12.469  -4.516  -2.161  0.00  0.00    +0.039 C 
BRANCH  39  43
ATOM     43  O   LIG    1       16.145  -1.938  -0.453  0.00  0.00    -0.388 OA
ATOM     44  H   LIG    1       16.533  -1.253   0.096  0.00  0.00    +0.210 HD
ENDBRANCH  39  43
ENDBRANCH  33  34
ENDBRANCH  30  32
ENDBRANCH  28  29
ENDBRANCH  25  27
ENDBRANCH   2  24
TORSDOF 12
