REMARK  Name = DB00655
REMARK                            x       y       z     vdW  Elec       q    Type
REMARK                         _______ _______ _______ _____ _____    ______ ____
ROOT
ATOM      1  O   LIG    1       10.899   0.245   1.093  0.00  0.00    -0.297 OA
ATOM      2  C   LIG    1        9.972  -0.563   1.080  0.00  0.00    +0.139 C 
ATOM      3  C   LIG    1       10.106  -2.085   0.890  0.00  0.00    +0.075 C 
ATOM      4  C   LIG    1        8.673  -2.610   0.706  0.00  0.00    +0.012 C 
ATOM      5  C   LIG    1        7.860  -1.367   0.364  0.00  0.00    +0.006 C 
ATOM      6  C   LIG    1        6.314  -1.398   0.473  0.00  0.00    +0.001 C 
ATOM      7  C   LIG    1        5.658  -2.504  -0.370  0.00  0.00    +0.009 C 
ATOM      8  C   LIG    1        4.165  -2.604  -0.028  0.00  0.00    +0.036 C 
ATOM      9  C   LIG    1        3.463  -1.242  -0.045  0.00  0.00    -0.040 A 
ATOM     10  C   LIG    1        2.065  -1.203  -0.103  0.00  0.00    +0.049 A 
ATOM     11  C   LIG    1        1.369   0.001  -0.051  0.00  0.00    +0.117 A 
ATOM     12  C   LIG    1        2.071   1.194   0.066  0.00  0.00    +0.046 A 
ATOM     13  C   LIG    1        3.461   1.176   0.113  0.00  0.00    +0.008 A 
ATOM     14  C   LIG    1        4.188  -0.024   0.047  0.00  0.00    -0.041 A 
ATOM     15  C   LIG    1        5.733  -0.024   0.013  0.00  0.00    +0.023 C 
ATOM     16  C   LIG    1        6.436   1.202   0.681  0.00  0.00    +0.009 C 
ATOM     17  C   LIG    1        7.985   1.108   0.634  0.00  0.00    +0.015 C 
ATOM     18  C   LIG    1        8.472  -0.239   1.221  0.00  0.00    +0.029 C 
ATOM     19  C   LIG    1        8.168  -0.336   2.751  0.00  0.00    +0.019 C 
ENDROOT
BRANCH  11  20
ATOM     20  O   LIG    1        0.001   0.009  -0.105  0.00  0.00    -0.507 OA
ATOM     21  H   LIG    1       -0.369   0.893  -0.060  0.00  0.00    +0.292 HD
ENDBRANCH  11  20
TORSDOF 1
