REMARK  Name = DB00745
REMARK                            x       y       z     vdW  Elec       q    Type
REMARK                         _______ _______ _______ _____ _____    ______ ____
ROOT
ATOM      1  C   LIG    1        1.779  -0.087  -0.181  0.00  0.00    +0.139 C 
ENDROOT
BRANCH   1   2
ATOM      2  C   LIG    1        2.242  -1.548  -0.126  0.00  0.00    -0.028 A 
ATOM      3  C   LIG    1        2.071  -2.412  -1.215  0.00  0.00    +0.005 A 
ATOM      4  C   LIG    1        2.488  -3.738  -1.130  0.00  0.00    +0.000 A 
ATOM      5  C   LIG    1        3.075  -4.204   0.044  0.00  0.00    +0.000 A 
ATOM      6  C   LIG    1        3.248  -3.356   1.134  0.00  0.00    +0.000 A 
ATOM      7  C   LIG    1        2.830  -2.031   1.049  0.00  0.00    +0.005 A 
ENDBRANCH   1   2
BRANCH   1   8
ATOM      8  C   LIG    1        2.297   0.718  -1.381  0.00  0.00    -0.028 A 
ATOM      9  C   LIG    1        1.731   0.580  -2.655  0.00  0.00    +0.005 A 
ATOM     10  C   LIG    1        2.212   1.332  -3.723  0.00  0.00    +0.000 A 
ATOM     11  C   LIG    1        3.259   2.227  -3.521  0.00  0.00    +0.000 A 
ATOM     12  C   LIG    1        3.828   2.378  -2.259  0.00  0.00    +0.000 A 
ATOM     13  C   LIG    1        3.345   1.627  -1.190  0.00  0.00    +0.005 A 
ENDBRANCH   1   8
BRANCH   1  14
ATOM     14  S   LIG    1       -0.077   0.031  -0.052  0.00  0.00    +0.043 S 
ATOM     15  O   LIG    1       -0.427   1.520  -0.024  0.00  0.00    -0.256 OA
BRANCH  14  16
ATOM     16  C   LIG    1       -0.297  -0.609   1.681  0.00  0.00    +0.200 C 
BRANCH  16  17
ATOM     17  C   LIG    1       -1.729  -0.617   2.223  0.00  0.00    +0.223 C 
ATOM     18  N   LIG    1       -1.894  -1.081   3.463  0.00  0.00    -0.329 N 
ATOM     19  H   LIG    1       -2.816  -1.111   3.873  0.00  0.00    +0.145 HD
ATOM     20  H   LIG    1       -1.102  -1.405   3.999  0.00  0.00    +0.145 HD
ATOM     21  O   LIG    1       -2.676  -0.219   1.549  0.00  0.00    -0.275 OA
ENDBRANCH  16  17
ENDBRANCH  14  16
ENDBRANCH   1  14
TORSDOF 5
