REMARK  Name = DB00067
REMARK                            x       y       z     vdW  Elec       q    Type
REMARK                         _______ _______ _______ _____ _____    ______ ____
ROOT
ATOM      1  C   LIG    1        0.658   7.274  -1.054  0.00  0.00    +0.163 C 
ATOM      2  N   LIG    1        1.134   7.552  -2.415  0.00  0.00    -0.302 N 
ATOM      3  H   LIG    1        1.536   8.471  -2.533  0.00  0.00    +0.150 HD
ATOM      4  C   LIG    1        1.091   6.752  -3.497  0.00  0.00    +0.234 C 
ATOM      5  C   LIG    1        0.490   5.335  -3.370  0.00  0.00    +0.163 C 
ATOM      6  N   LIG    1        1.045   4.399  -4.347  0.00  0.00    -0.302 N 
ATOM      7  H   LIG    1        0.437   4.157  -5.116  0.00  0.00    +0.150 HD
ATOM      8  C   LIG    1        2.272   3.848  -4.287  0.00  0.00    +0.231 C 
ATOM      9  C   LIG    1        2.679   2.810  -5.365  0.00  0.00    +0.148 C 
ATOM     10  C   LIG    1        2.773   1.378  -4.783  0.00  0.00    +0.109 C 
ATOM     11  S   LIG    1        1.223   0.546  -4.299  0.00  0.00    -0.091 S 
ATOM     12  S   LIG    1        0.741   1.302  -2.465  0.00  0.00    -0.091 S 
ATOM     13  C   LIG    1        1.837   0.387  -1.342  0.00  0.00    +0.112 C 
ATOM     14  C   LIG    1        1.430   0.301   0.148  0.00  0.00    +0.170 C 
ATOM     15  N   LIG    1        1.819   1.562   0.792  0.00  0.00    -0.302 N 
ATOM     16  H   LIG    1        1.983   2.342   0.173  0.00  0.00    +0.150 HD
ATOM     17  C   LIG    1        1.965   1.731   2.118  0.00  0.00    +0.234 C 
ATOM     18  C   LIG    1        2.354   3.130   2.653  0.00  0.00    +0.168 C 
ATOM     19  N   LIG    1        2.655   4.162   1.643  0.00  0.00    -0.302 N 
ATOM     20  H   LIG    1        2.113   5.009   1.746  0.00  0.00    +0.150 HD
ATOM     21  C   LIG    1        3.666   4.179   0.754  0.00  0.00    +0.234 C 
ATOM     22  C   LIG    1        3.931   5.537   0.067  0.00  0.00    +0.159 C 
ATOM     23  N   LIG    1        2.749   6.023  -0.651  0.00  0.00    -0.302 N 
ATOM     24  H   LIG    1        2.695   5.770  -1.627  0.00  0.00    +0.150 HD
ATOM     25  O   LIG    1        4.378   3.207   0.504  0.00  0.00    -0.274 OA
ATOM     26  O   LIG    1        1.785   0.826   2.933  0.00  0.00    -0.274 OA
ATOM     27  O   LIG    1        3.077   4.098  -3.389  0.00  0.00    -0.274 OA
ATOM     28  O   LIG    1        1.509   7.129  -4.591  0.00  0.00    -0.274 OA
ATOM     29  C   LIG    1        1.789   6.802  -0.116  0.00  0.00    +0.234 C 
ATOM     30  O   LIG    1        1.772   7.138   1.069  0.00  0.00    -0.274 OA
ENDROOT
BRANCH  14  31
ATOM     31  C   LIG    1       -0.074  -0.047   0.350  0.00  0.00    +0.237 C 
ATOM     32  N   LIG    1       -0.501  -1.286  -0.011  0.00  0.00    -0.288 N 
ATOM     33  C   LIG    1       -1.932  -1.661  -0.070  0.00  0.00    +0.162 C 
ATOM     34  C   LIG    1       -1.918  -3.123  -0.555  0.00  0.00    +0.033 C 
ATOM     35  C   LIG    1       -0.549  -3.642  -0.154  0.00  0.00    +0.021 C 
ATOM     36  C   LIG    1        0.342  -2.428  -0.368  0.00  0.00    +0.109 C 
ATOM     37  O   LIG    1       -0.837   0.813   0.796  0.00  0.00    -0.274 OA
BRANCH  33  38
ATOM     38  C   LIG    1       -2.756  -0.740  -0.990  0.00  0.00    +0.234 C 
ATOM     39  N   LIG    1       -3.713  -0.022  -0.376  0.00  0.00    -0.302 N 
ATOM     40  H   LIG    1       -3.853  -0.171   0.613  0.00  0.00    +0.150 HD
ATOM     41  O   LIG    1       -2.470  -0.663  -2.185  0.00  0.00    -0.274 OA
BRANCH  39  42
ATOM     42  C   LIG    1       -4.501   1.075  -0.947  0.00  0.00    +0.159 C 
BRANCH  42  43
ATOM     43  C   LIG    1       -3.614   2.320  -1.137  0.00  0.00    +0.234 C 
ATOM     44  N   LIG    1       -3.595   3.183  -0.107  0.00  0.00    -0.305 N 
ATOM     45  H   LIG    1       -4.148   2.981   0.713  0.00  0.00    +0.149 HD
ATOM     46  O   LIG    1       -2.966   2.463  -2.174  0.00  0.00    -0.274 OA
BRANCH  44  47
ATOM     47  C   LIG    1       -2.777   4.393  -0.057  0.00  0.00    +0.199 C 
BRANCH  47  48
ATOM     48  C   LIG    1       -1.434   4.050   0.600  0.00  0.00    +0.228 C 
ATOM     49  N   LIG    1       -0.385   3.866  -0.203  0.00  0.00    -0.328 N 
ATOM     50  H   LIG    1       -0.493   3.916  -1.205  0.00  0.00    +0.145 HD
ATOM     51  H   LIG    1        0.516   3.640   0.191  0.00  0.00    +0.145 HD
ATOM     52  O   LIG    1       -1.337   3.969   1.823  0.00  0.00    -0.274 OA
ENDBRANCH  47  48
ENDBRANCH  44  47
ENDBRANCH  42  43
BRANCH  42  53
ATOM     53  C   LIG    1       -5.281   0.710  -2.239  0.00  0.00    +0.035 C 
BRANCH  53  54
ATOM     54  C   LIG    1       -6.149  -0.565  -2.152  0.00  0.00    +0.043 C 
BRANCH  54  55
ATOM     55  C   LIG    1       -7.217  -0.541  -1.040  0.00  0.00    +0.243 C 
BRANCH  55  56
ATOM     56  N   LIG    1       -8.056  -1.726  -1.148  0.00  0.00    -0.114 NA
ATOM     57  C   LIG    1       -8.107  -2.587  -0.210  0.00  0.00    +0.376 C 
BRANCH  57  58
ATOM     58  N   LIG    1       -7.634  -2.439   1.117  0.00  0.00    -0.289 N 
ATOM     59  H   LIG    1       -7.285  -3.264   1.582  0.00  0.00    +0.255 HD
ATOM     60  H   LIG    1       -7.053  -1.638   1.317  0.00  0.00    +0.255 HD
ENDBRANCH  57  58
BRANCH  57  61
ATOM     61  N   LIG    1       -8.692  -3.856  -0.403  0.00  0.00    -0.289 N 
ATOM     62  H   LIG    1       -9.164  -4.276   0.384  0.00  0.00    +0.255 HD
ATOM     63  H   LIG    1       -9.217  -3.998  -1.254  0.00  0.00    +0.255 HD
ENDBRANCH  57  61
ENDBRANCH  55  56
ENDBRANCH  54  55
ENDBRANCH  53  54
ENDBRANCH  42  53
ENDBRANCH  39  42
ENDBRANCH  33  38
ENDBRANCH  14  31
BRANCH   9  64
ATOM     64  N   LIG    1        1.798   2.883  -6.549  0.00  0.00    -0.319 NA
ATOM     65  H   LIG    1        0.960   2.339  -6.400  0.00  0.00    +0.119 HD
ATOM     66  H   LIG    1        2.251   2.486  -7.359  0.00  0.00    +0.119 HD
ENDBRANCH   9  64
BRANCH   1  67
ATOM     67  C   LIG    1       -0.098   8.514  -0.520  0.00  0.00    +0.067 C 
BRANCH  67  73
ATOM     68  C   LIG    1       -1.423   9.668  -2.362  0.00  0.00    +0.004 A 
ATOM     69  C   LIG    1       -2.598   9.840  -3.082  0.00  0.00    +0.000 A 
ATOM     70  C   LIG    1       -3.743   9.134  -2.734  0.00  0.00    +0.000 A 
ATOM     71  C   LIG    1       -3.724   8.249  -1.663  0.00  0.00    +0.000 A 
ATOM     72  C   LIG    1       -2.562   8.070  -0.925  0.00  0.00    +0.004 A 
ATOM     73  C   LIG    1       -1.400   8.801  -1.248  0.00  0.00    -0.045 A 
ENDBRANCH  67  73
ENDBRANCH   1  67
BRANCH  22  74
ATOM     74  C   LIG    1        5.138   5.549  -0.910  0.00  0.00    +0.041 C 
BRANCH  74  75
ATOM     75  C   LIG    1        6.539   5.268  -0.311  0.00  0.00    +0.098 C 
BRANCH  75  76
ATOM     76  C   LIG    1        6.906   6.164   0.876  0.00  0.00    +0.211 C 
ATOM     77  N   LIG    1        7.521   5.581   1.908  0.00  0.00    -0.329 N 
ATOM     78  H   LIG    1        7.721   4.592   1.893  0.00  0.00    +0.145 HD
ATOM     79  H   LIG    1        7.793   6.130   2.711  0.00  0.00    +0.145 HD
ATOM     80  O   LIG    1        6.661   7.368   0.854  0.00  0.00    -0.276 OA
ENDBRANCH  75  76
ENDBRANCH  74  75
ENDBRANCH  22  74
BRANCH  18  81
ATOM     81  C   LIG    1        3.510   3.023   3.688  0.00  0.00    +0.127 C 
BRANCH  81  82
ATOM     82  C   LIG    1        3.875   4.349   4.367  0.00  0.00    +0.213 C 
ATOM     83  N   LIG    1        5.170   4.576   4.598  0.00  0.00    -0.329 N 
ATOM     84  H   LIG    1        5.866   3.896   4.327  0.00  0.00    +0.145 HD
ATOM     85  H   LIG    1        5.462   5.433   5.046  0.00  0.00    +0.145 HD
ATOM     86  O   LIG    1        3.003   5.154   4.690  0.00  0.00    -0.276 OA
ENDBRANCH  81  82
ENDBRANCH  18  81
BRANCH   5  87
ATOM     87  C   LIG    1       -1.051   5.327  -3.493  0.00  0.00    +0.067 C 
BRANCH  87  88
ATOM     88  C   LIG    1       -1.630   5.597  -4.872  0.00  0.00    -0.045 A 
ATOM     89  C   LIG    1       -1.979   4.521  -5.716  0.00  0.00    +0.007 A 
ATOM     90  C   LIG    1       -2.531   4.767  -6.987  0.00  0.00    +0.045 A 
ATOM     91  C   LIG    1       -2.740   6.092  -7.420  0.00  0.00    +0.117 A 
ATOM     92  C   LIG    1       -2.394   7.169  -6.581  0.00  0.00    +0.045 A 
ATOM     93  C   LIG    1       -1.841   6.921  -5.310  0.00  0.00    +0.007 A 
BRANCH  91  94
ATOM     94  O   LIG    1       -3.279   6.332  -8.650  0.00  0.00    -0.507 OA
ATOM     95  H   LIG    1       -3.481   5.529  -9.135  0.00  0.00    +0.292 HD
ENDBRANCH  91  94
ENDBRANCH  87  88
ENDBRANCH   5  87
TORSDOF 23
