REMARK  Name = DB00832
REMARK                            x       y       z     vdW  Elec       q    Type
REMARK                         _______ _______ _______ _____ _____    ______ ____
ROOT
ATOM      1  O   LIG    1       -0.375   2.290   0.018  0.00  0.00    -0.275 OA
ATOM      2  C   LIG    1       -0.734   1.111   0.005  0.00  0.00    +0.229 C 
ATOM      3  C   LIG    1       -2.181   0.639   0.119  0.00  0.00    +0.114 C 
ATOM      4  C   LIG    1       -2.085  -0.872   0.093  0.00  0.00    +0.113 C 
ATOM      5  C   LIG    1       -0.606  -1.174  -0.056  0.00  0.00    +0.223 C 
ATOM      6  O   LIG    1       -0.126  -2.307  -0.106  0.00  0.00    -0.275 OA
ATOM      7  N   LIG    1        0.047   0.011  -0.128  0.00  0.00    -0.245 N 
ATOM      8  C   LIG    1        1.506   0.097  -0.229  0.00  0.00    +0.141 C 
ENDROOT
BRANCH   3   9
ATOM      9  C   LIG    1       -2.892   1.267   1.326  0.00  0.00    -0.035 A 
ATOM     10  C   LIG    1       -2.605   0.845   2.631  0.00  0.00    +0.004 A 
ATOM     11  C   LIG    1       -3.244   1.440   3.716  0.00  0.00    +0.000 A 
ATOM     12  C   LIG    1       -4.165   2.461   3.499  0.00  0.00    +0.000 A 
ATOM     13  C   LIG    1       -4.451   2.896   2.207  0.00  0.00    +0.000 A 
ATOM     14  C   LIG    1       -3.812   2.301   1.122  0.00  0.00    +0.004 A 
ENDBRANCH   3   9
TORSDOF 1
