REMARK  Name = DB00129
REMARK                            x       y       z     vdW  Elec       q    Type
REMARK                         _______ _______ _______ _____ _____    ______ ____
ROOT
ATOM      1  CA  LIG    1        2.034  -1.485   0.058  0.00  0.00    +0.161 C 
ENDROOT
BRANCH   1   2
ATOM      2  N   LIG    1        1.638  -2.261   1.248  0.00  0.00    -0.318 NA
ATOM      3  H1  LIG    1        1.787  -1.737   2.098  0.00  0.00    +0.119 HD
ATOM      4  H2  LIG    1        2.163  -3.121   1.322  0.00  0.00    +0.119 HD
ENDBRANCH   1   2
BRANCH   1   5
ATOM      5  C   LIG    1        3.575  -1.503  -0.049  0.00  0.00    +0.322 C 
ATOM      6  O   LIG    1        4.331  -1.644   0.913  0.00  0.00    -0.249 OA
BRANCH   5   7
ATOM      7  OXT LIG    1        3.976  -1.317  -1.341  0.00  0.00    -0.480 OA
ATOM      8  HXT LIG    1        4.932  -1.317  -1.429  0.00  0.00    +0.295 HD
ENDBRANCH   5   7
ENDBRANCH   1   5
BRANCH   1   9
ATOM      9  C   LIG    1        1.485  -0.038   0.064  0.00  0.00    +0.031 C 
BRANCH   9  10
ATOM     10  C   LIG    1       -0.054   0.038   0.012  0.00  0.00    +0.017 C 
BRANCH  10  11
ATOM     11  C   LIG    1       -0.569   1.486  -0.023  0.00  0.00    +0.078 C 
BRANCH  11  12
ATOM     12  N   LIG    1       -2.018   1.505  -0.084  0.00  0.00    -0.330 NA
ATOM     13  H   LIG    1       -2.347   2.460  -0.082  0.00  0.00    +0.118 HD
ATOM     14  H   LIG    1       -2.398   1.070   0.745  0.00  0.00    +0.118 HD
ENDBRANCH  11  12
ENDBRANCH  10  11
ENDBRANCH   9  10
ENDBRANCH   1   9
TORSDOF 7
