REMARK  Name = DB00451
REMARK                            x       y       z     vdW  Elec       q    Type
REMARK                         _______ _______ _______ _____ _____    ______ ____
ROOT
ATOM      1  I   LIG    1        4.674   0.892   2.678  0.00  0.00    -0.040 I 
ATOM      2  C   LIG    1        3.604   0.316   0.972  0.00  0.00    +0.057 A 
ATOM      3  C   LIG    1        4.269  -0.017  -0.214  0.00  0.00    +0.155 A 
ATOM      4  C   LIG    1        3.527  -0.406  -1.337  0.00  0.00    +0.057 A 
ATOM      5  C   LIG    1        2.134  -0.441  -1.275  0.00  0.00    +0.021 A 
ATOM      6  C   LIG    1        1.468  -0.093  -0.097  0.00  0.00    -0.043 A 
ATOM      7  I   LIG    1        4.474  -0.935  -3.129  0.00  0.00    -0.040 I 
ATOM      8  C   LIG    1        2.211   0.277   1.028  0.00  0.00    +0.021 A 
ENDROOT
BRANCH   6   9
ATOM      9  C   LIG    1       -0.058  -0.113  -0.036  0.00  0.00    +0.065 C 
BRANCH   9  10
ATOM     10  CA  LIG    1       -0.697   1.295   0.121  0.00  0.00    +0.165 C 
BRANCH  10  11
ATOM     11  N   LIG    1       -2.164   1.257   0.014  0.00  0.00    -0.318 NA
ATOM     12  H1  LIG    1       -2.567   2.148   0.266  0.00  0.00    +0.119 HD
ATOM     13  H2  LIG    1       -2.557   0.572   0.642  0.00  0.00    +0.119 HD
ENDBRANCH  10  11
BRANCH  10  14
ATOM     14  C   LIG    1       -0.203   2.349  -0.893  0.00  0.00    +0.322 C 
ATOM     15  OXT LIG    1        0.197   3.455  -0.537  0.00  0.00    -0.249 OA
BRANCH  14  16
ATOM     16  O   LIG    1       -0.272   1.909  -2.186  0.00  0.00    -0.480 OA
ATOM     17  H   LIG    1        0.032   2.570  -2.812  0.00  0.00    +0.295 HD
ENDBRANCH  14  16
ENDBRANCH  10  14
ENDBRANCH   9  10
ENDBRANCH   6   9
BRANCH   3  18
ATOM     18  O   LIG    1        5.643   0.029  -0.270  0.00  0.00    -0.454 OA
BRANCH  18  19
ATOM     19  C   LIG    1        6.281   1.144  -0.775  0.00  0.00    +0.131 A 
ATOM     20  C   LIG    1        5.691   2.416  -0.839  0.00  0.00    +0.064 A 
ATOM     21  C   LIG    1        6.394   3.501  -1.361  0.00  0.00    +0.059 A 
ATOM     22  C   LIG    1        7.704   3.328  -1.822  0.00  0.00    +0.143 A 
ATOM     23  C   LIG    1        8.303   2.065  -1.752  0.00  0.00    +0.059 A 
ATOM     24  I   LIG    1       10.263   1.748  -2.425  0.00  0.00    -0.040 I 
ATOM     25  I   LIG    1        5.446   5.369  -1.434  0.00  0.00    -0.040 I 
ATOM     26  C   LIG    1        7.592   0.986  -1.227  0.00  0.00    +0.064 A 
BRANCH  22  27
ATOM     27  O   LIG    1        8.399   4.391  -2.341  0.00  0.00    -0.505 OA
ATOM     28  H   LIG    1        9.196   4.123  -2.804  0.00  0.00    +0.292 HD
ENDBRANCH  22  27
ENDBRANCH  18  19
ENDBRANCH   3  18
TORSDOF 8
