REMARK  Name = DB00508
REMARK                            x       y       z     vdW  Elec       q    Type
REMARK                         _______ _______ _______ _____ _____    ______ ____
ROOT
ATOM      1  S   LIG    1       -4.878   2.467  -0.001  0.00  0.00    -0.086 S 
ATOM      2  C   LIG    1       -4.090   1.677   1.353  0.00  0.00    +0.034 A 
ATOM      3  C   LIG    1       -4.886   1.310   2.442  0.00  0.00    +0.017 A 
ATOM      4  C   LIG    1       -4.321   0.711   3.561  0.00  0.00    +0.001 A 
ATOM      5  C   LIG    1       -2.951   0.484   3.598  0.00  0.00    +0.002 A 
ATOM      6  C   LIG    1       -2.152   0.868   2.523  0.00  0.00    +0.024 A 
ATOM      7  C   LIG    1       -2.686   1.510   1.387  0.00  0.00    +0.048 A 
ATOM      8  N   LIG    1       -1.900   1.822   0.252  0.00  0.00    -0.298 N 
ATOM      9  C   LIG    1       -2.429   1.752  -1.059  0.00  0.00    +0.048 A 
ATOM     10  C   LIG    1       -1.657   1.327  -2.158  0.00  0.00    +0.037 A 
ATOM     11  C   LIG    1       -2.192   1.172  -3.441  0.00  0.00    +0.057 A 
ATOM     12  C   LIG    1       -3.549   1.428  -3.640  0.00  0.00    +0.013 A 
ATOM     13  C   LIG    1       -4.348   1.811  -2.570  0.00  0.00    +0.017 A 
ATOM     14  C   LIG    1       -3.809   1.940  -1.289  0.00  0.00    +0.034 A 
ENDROOT
BRANCH  11  15
ATOM     15  C   LIG    1       -1.286   0.747  -4.596  0.00  0.00    +0.417 C 
ATOM     16  F   LIG    1       -0.177   1.488  -4.608  0.00  0.00    -0.166 F 
ATOM     17  F   LIG    1       -0.943  -0.531  -4.437  0.00  0.00    -0.166 F 
ATOM     18  F   LIG    1       -1.881   0.879  -5.783  0.00  0.00    -0.166 F 
ENDBRANCH  11  15
BRANCH   8  19
ATOM     19  C   LIG    1       -0.428   1.890   0.397  0.00  0.00    +0.112 C 
BRANCH  19  20
ATOM     20  C   LIG    1        0.337   0.536   0.314  0.00  0.00    +0.035 C 
BRANCH  20  21
ATOM     21  C   LIG    1        1.843   0.679   0.003  0.00  0.00    +0.085 C 
BRANCH  21  22
ATOM     22  N   LIG    1        2.104   1.125  -1.369  0.00  0.00    -0.308 NA
ATOM     23  C   LIG    1        1.944   0.023  -2.318  0.00  0.00    +0.104 C 
ATOM     24  C   LIG    1        3.466   1.641  -1.481  0.00  0.00    +0.104 C 
ENDBRANCH  21  22
ENDBRANCH  20  21
ENDBRANCH  19  20
ENDBRANCH   8  19
TORSDOF 5
