REMARK  Name = DB00744
REMARK                            x       y       z     vdW  Elec       q    Type
REMARK                         _______ _______ _______ _____ _____    ______ ____
ROOT
ATOM      1  C   LIG    1        1.444   0.174  -0.193  0.00  0.00    +0.140 C 
ATOM      2  C   LIG    1        1.885   0.917  -1.473  0.00  0.00    +0.036 C 
ENDROOT
BRANCH   1  11
ATOM      3  S   LIG    1        1.773  -0.009   2.631  0.00  0.00    -0.091 S 
ATOM      4  C   LIG    1        2.500   1.324   3.512  0.00  0.00    +0.020 A 
ATOM      5  C   LIG    1        2.752   1.398   4.890  0.00  0.00    +0.015 A 
ATOM      6  C   LIG    1        3.339   2.558   5.390  0.00  0.00    +0.001 A 
ATOM      7  C   LIG    1        3.666   3.616   4.548  0.00  0.00    +0.001 A 
ATOM      8  C   LIG    1        3.418   3.548   3.178  0.00  0.00    +0.009 A 
ATOM      9  C   LIG    1        2.828   2.393   2.635  0.00  0.00    -0.010 A 
ATOM     10  C   LIG    1        2.486   2.092   1.289  0.00  0.00    +0.021 A 
ATOM     11  C   LIG    1        1.912   0.843   1.097  0.00  0.00    +0.013 A 
ENDBRANCH   1  11
BRANCH   1  12
ATOM     12  N   LIG    1       -0.008  -0.091  -0.166  0.00  0.00    -0.160 N 
ATOM     13  C   LIG    1       -0.604  -1.236   0.272  0.00  0.00    +0.323 C 
ATOM     14  N   LIG    1       -1.944  -1.273   0.287  0.00  0.00    -0.312 N 
ATOM     15  H   LIG    1       -2.425  -2.100   0.607  0.00  0.00    +0.147 HD
ATOM     16  H   LIG    1       -2.476  -0.473  -0.025  0.00  0.00    +0.147 HD
ATOM     17  O   LIG    1        0.043  -2.212   0.649  0.00  0.00    -0.251 OA
BRANCH  12  18
ATOM     18  O   LIG    1       -0.826   1.039  -0.379  0.00  0.00    -0.291 OA
ATOM     19  H   LIG    1       -0.479   1.678   0.248  0.00  0.00    +0.242 HD
ENDBRANCH  12  18
ENDBRANCH   1  12
TORSDOF 3
