REMARK  Name = DB00543
REMARK                            x       y       z     vdW  Elec       q    Type
REMARK                         _______ _______ _______ _____ _____    ______ ____
ROOT
ATOM      1 CL   LIG    1        0.717  -4.622  -1.314  0.00  0.00    -0.084 Cl
ATOM      2  C   LIG    1        1.694  -3.423  -0.549  0.00  0.00    +0.042 A 
ATOM      3  C   LIG    1        2.950  -3.759  -0.053  0.00  0.00    +0.023 A 
ATOM      4  C   LIG    1        3.738  -2.784   0.553  0.00  0.00    +0.048 A 
ATOM      5  C   LIG    1        3.275  -1.472   0.676  0.00  0.00    +0.144 A 
ATOM      6  C   LIG    1        1.995  -1.123   0.205  0.00  0.00    +0.109 A 
ATOM      7  C   LIG    1        1.493   0.272   0.333  0.00  0.00    +0.325 C 
ATOM      8  N   LIG    1        2.159   1.346   0.101  0.00  0.00    -0.038 NA
ATOM      9  C   LIG    1        3.544   1.384  -0.162  0.00  0.00    +0.218 A 
ATOM     10  C   LIG    1        4.054   2.450  -0.916  0.00  0.00    +0.059 A 
ATOM     11  C   LIG    1        5.418   2.602  -1.158  0.00  0.00    +0.004 A 
ATOM     12  C   LIG    1        6.321   1.696  -0.615  0.00  0.00    +0.004 A 
ATOM     13  C   LIG    1        5.855   0.652   0.178  0.00  0.00    +0.051 A 
ATOM     14  C   LIG    1        4.487   0.498   0.419  0.00  0.00    +0.179 A 
ATOM     15  O   LIG    1        4.089  -0.525   1.247  0.00  0.00    -0.451 OA
ATOM     16  C   LIG    1        1.225  -2.115  -0.427  0.00  0.00    +0.039 A 
ENDROOT
BRANCH   7  17
ATOM     17  N   LIG    1        0.144   0.400   0.709  0.00  0.00    -0.218 N 
ATOM     18  C   LIG    1       -0.685   1.571   0.362  0.00  0.00    +0.241 C 
ATOM     19  C   LIG    1       -2.111   1.162  -0.072  0.00  0.00    +0.124 C 
ATOM     20  N   LIG    1       -2.763   0.320   0.922  0.00  0.00    -0.309 NA
ATOM     21  H   LIG    1       -3.680   0.049   0.595  0.00  0.00    +0.122 HD
ATOM     22  C   LIG    1       -1.962  -0.868   1.191  0.00  0.00    +0.124 C 
ATOM     23  C   LIG    1       -0.539  -0.496   1.663  0.00  0.00    +0.241 C 
ENDBRANCH   7  17
TORSDOF 1
