REMARK  Name = DB00288
REMARK                            x       y       z     vdW  Elec       q    Type
REMARK                         _______ _______ _______ _____ _____    ______ ____
ROOT
ATOM      1  C   LIG    1       -1.539  -1.800  -0.782  0.00  0.00    +0.039 C 
ATOM      2  C   LIG    1       -0.435  -0.803  -1.199  0.00  0.00    +0.162 C 
ATOM      3  O   LIG    1       -0.993   0.301  -1.889  0.00  0.00    -0.342 OA
ATOM      4  C   LIG    1       -0.775   1.492  -1.204  0.00  0.00    +0.172 C 
ATOM      5  C   LIG    1       -1.987   2.417  -1.253  0.00  0.00    +0.065 C 
ATOM      6  C   LIG    1       -1.823   3.108  -2.603  0.00  0.00    +0.005 C 
ATOM      7  C   LIG    1       -0.323   3.303  -2.773  0.00  0.00    +0.005 C 
ATOM      8  C   LIG    1        0.367   2.329  -1.808  0.00  0.00    +0.065 C 
ATOM      9  O   LIG    1       -0.509   1.075   0.100  0.00  0.00    -0.331 OA
ATOM     10  C   LIG    1        0.139  -0.191   0.108  0.00  0.00    +0.165 C 
ATOM     11  C   LIG    1       -0.374  -1.136   1.256  0.00  0.00    +0.012 C 
ATOM     12  C   LIG    1        0.537  -2.405   1.395  0.00  0.00    +0.015 C 
ATOM     13  C   LIG    1       -0.605  -0.442   2.632  0.00  0.00    +0.044 C 
ATOM     14  C   LIG    1       -1.407  -1.311   3.646  0.00  0.00    +0.154 C 
ATOM     15  C   LIG    1       -2.764  -1.848   3.043  0.00  0.00    +0.153 C 
ATOM     16  F   LIG    1       -3.493  -0.732   2.890  0.00  0.00    -0.238 F 
ATOM     17  C   LIG    1       -2.592  -2.446   1.596  0.00  0.00    +0.034 C 
ATOM     18  C   LIG    1       -3.964  -2.799   0.973  0.00  0.00    +0.011 C 
ATOM     19  C   LIG    1       -4.799  -3.734   1.863  0.00  0.00    +0.032 C 
ATOM     20  C   LIG    1       -4.966  -3.097   3.243  0.00  0.00    -0.053 C 
ATOM     21  C   LIG    1       -6.186  -2.804   3.754  0.00  0.00    +0.051 C 
ATOM     22  C   LIG    1       -6.427  -2.167   5.049  0.00  0.00    +0.179 C 
ATOM     23  O   LIG    1       -7.552  -1.924   5.481  0.00  0.00    -0.288 OA
ATOM     24  C   LIG    1       -5.204  -1.845   5.778  0.00  0.00    +0.047 C 
ATOM     25  C   LIG    1       -3.964  -2.111   5.322  0.00  0.00    -0.009 C 
ATOM     26  C   LIG    1       -3.630  -2.790   3.982  0.00  0.00    +0.044 C 
ATOM     27  C   LIG    1       -2.964  -4.150   4.334  0.00  0.00    +0.023 C 
ATOM     28  C   LIG    1       -1.778  -1.472   0.697  0.00  0.00    +0.007 C 
ENDROOT
BRANCH  10  29
ATOM     29  C   LIG    1        1.684   0.018   0.110  0.00  0.00    +0.205 C 
ATOM     30  O   LIG    1        2.421  -0.599  -0.662  0.00  0.00    -0.291 OA
BRANCH  29  31
ATOM     31  C   LIG    1        2.250   1.034   1.113  0.00  0.00    +0.309 C 
BRANCH  31  32
ATOM     32  O   LIG    1        3.605   1.351   0.810  0.00  0.00    -0.457 OA
BRANCH  32  33
ATOM     33  C   LIG    1        4.277   2.258   1.547  0.00  0.00    +0.304 C 
ATOM     34  O   LIG    1        3.837   2.887   2.511  0.00  0.00    -0.251 OA
ATOM     35  C   LIG    1        5.707   2.452   1.060  0.00  0.00    +0.136 C 
ENDBRANCH  32  33
ENDBRANCH  31  32
ENDBRANCH  29  31
ENDBRANCH  10  29
BRANCH  14  36
ATOM     36  O   LIG    1       -0.578  -2.310   4.205  0.00  0.00    -0.389 OA
ATOM     37  H   LIG    1       -1.068  -2.761   4.897  0.00  0.00    +0.210 HD
ENDBRANCH  14  36
TORSDOF 5
