REMARK  Name = DB00456
REMARK                            x       y       z     vdW  Elec       q    Type
REMARK                         _______ _______ _______ _____ _____    ______ ____
ROOT
ATOM      1  CA  LIG    1        1.266  -0.207   0.339  0.00  0.00    +0.191 C 
ATOM      2  C   LIG    1        1.715  -1.561   0.951  0.00  0.00    +0.169 C 
ATOM      3  S   LIG    1        0.532  -2.906   1.278  0.00  0.00    -0.131 S 
ATOM      4  C   LIG    1        1.791  -4.231   1.263  0.00  0.00    +0.107 C 
ATOM      5  C   LIG    1        2.679  -4.219   0.006  0.00  0.00    +0.006 C 
ATOM      6  CA  LIG    1        2.922  -3.070  -0.696  0.00  0.00    +0.125 C 
ATOM      7  N   LIG    1        2.422  -1.848  -0.316  0.00  0.00    -0.249 N 
ATOM      8  C   LIG    1        1.972  -0.690  -0.962  0.00  0.00    +0.244 C 
ATOM      9  O   LIG    1        2.045  -0.280  -2.120  0.00  0.00    -0.273 OA
ENDROOT
BRANCH   1  12
ATOM     10  C   LIG    1       -0.776   1.159  -0.120  0.00  0.00    +0.219 C 
ATOM     11  O   LIG    1       -0.158   2.212  -0.288  0.00  0.00    -0.275 OA
ATOM     12  N   LIG    1       -0.178  -0.008   0.178  0.00  0.00    -0.301 N 
ATOM     13  H   LIG    1       -0.751  -0.836   0.256  0.00  0.00    +0.150 HD
BRANCH  10  14
ATOM     14  C   LIG    1       -2.304   1.129  -0.262  0.00  0.00    +0.138 C 
BRANCH  14  16
ATOM     15  S   LIG    1       -3.209   3.820   0.024  0.00  0.00    -0.101 S 
ATOM     16  C   LIG    1       -3.001   2.179   0.585  0.00  0.00    -0.001 A 
ATOM     17  C   LIG    1       -3.554   2.052   1.860  0.00  0.00    +0.011 A 
ATOM     18  C   LIG    1       -4.129   3.223   2.361  0.00  0.00    +0.008 A 
ATOM     19  C   LIG    1       -4.028   4.281   1.477  0.00  0.00    +0.045 A 
ENDBRANCH  14  16
ENDBRANCH  10  14
ENDBRANCH   1  12
BRANCH   6  20
ATOM     20  C   LIG    1        3.736  -3.087  -1.903  0.00  0.00    +0.351 C 
ATOM     21  O   LIG    1        3.504  -3.791  -2.884  0.00  0.00    -0.244 OA
BRANCH  20  22
ATOM     22  OXT LIG    1        4.798  -2.231  -1.826  0.00  0.00    -0.476 OA
ATOM     23  HXT LIG    1        5.331  -2.240  -2.624  0.00  0.00    +0.295 HD
ENDBRANCH  20  22
ENDBRANCH   6  20
BRANCH   5  24
ATOM     24  C   LIG    1        3.245  -5.599  -0.346  0.00  0.00    +0.266 C 
BRANCH  24  25
ATOM     25  O   LIG    1        4.003  -6.120   0.741  0.00  0.00    -0.460 OA
BRANCH  25  26
ATOM     26  C   LIG    1        4.167  -7.449   0.897  0.00  0.00    +0.304 C 
ATOM     27  O   LIG    1        3.714  -8.332   0.168  0.00  0.00    -0.251 OA
ATOM     28  C   LIG    1        5.011  -7.786   2.120  0.00  0.00    +0.136 C 
ENDBRANCH  25  26
ENDBRANCH  24  25
ENDBRANCH   5  24
TORSDOF 8
