REMARK  Name = DB00322
REMARK                            x       y       z     vdW  Elec       q    Type
REMARK                         _______ _______ _______ _____ _____    ______ ____
ROOT
ATOM      1  F   LIG    1       -1.371   5.490  -1.865  0.00  0.00    -0.198 F 
ATOM      2  C   LIG    1       -2.191   4.531  -1.384  0.00  0.00    +0.204 A 
ATOM      3  C   LIG    1       -3.573   4.864  -1.075  0.00  0.00    +0.289 A 
ATOM      4  N   LIG    1       -4.282   3.802  -0.588  0.00  0.00    -0.273 N 
ATOM      5  H   LIG    1       -5.246   4.000  -0.363  0.00  0.00    +0.174 HD
ATOM      6  C   LIG    1       -3.888   2.507  -0.361  0.00  0.00    +0.331 A 
ATOM      7  N   LIG    1       -2.563   2.264  -0.681  0.00  0.00    -0.271 N 
ATOM      8  O   LIG    1       -4.698   1.691   0.080  0.00  0.00    -0.246 OA
ATOM      9  O   LIG    1       -4.073   5.977  -1.230  0.00  0.00    -0.265 OA
ATOM     10  C   LIG    1       -1.765   3.270  -1.174  0.00  0.00    +0.137 A 
ENDROOT
BRANCH   7  11
ATOM     11  C1* LIG    1       -1.998   0.933  -0.499  0.00  0.00    +0.226 C 
ATOM     12  C2* LIG    1       -1.503   0.211  -1.745  0.00  0.00    +0.088 C 
ATOM     13  C3* LIG    1       -0.600  -0.831  -1.099  0.00  0.00    +0.150 C 
ATOM     14  C4* LIG    1        0.008  -0.094   0.109  0.00  0.00    +0.175 C 
ATOM     15  O4* LIG    1       -0.895   0.986   0.353  0.00  0.00    -0.348 OA
BRANCH  13  16
ATOM     16  O3* LIG    1       -1.315  -1.993  -0.718  0.00  0.00    -0.389 OA
ATOM     17  H3* LIG    1       -1.801  -2.318  -1.480  0.00  0.00    +0.210 HD
ENDBRANCH  13  16
BRANCH  14  18
ATOM     18  C5* LIG    1        1.405   0.500  -0.161  0.00  0.00    +0.190 C 
BRANCH  18  19
ATOM     19  O5* LIG    1        1.912   1.147   0.989  0.00  0.00    -0.392 OA
ATOM     20  H5* LIG    1        2.776   1.509   0.782  0.00  0.00    +0.210 HD
ENDBRANCH  18  19
ENDBRANCH  14  18
ENDBRANCH   7  11
TORSDOF 4
