REMARK  Name = DB00763
REMARK                            x       y       z     vdW  Elec       q    Type
REMARK                         _______ _______ _______ _____ _____    ______ ____
ROOT
ATOM      1  S   LIG    1       -0.298   2.808   0.000  0.00  0.00    -0.013 S 
ATOM      2  C   LIG    1       -0.747   1.205   0.000  0.00  0.00    +0.158 A 
ATOM      3  N   LIG    1       -2.010   0.705   0.000  0.00  0.00    -0.340 N 
ATOM      4  H   LIG    1       -2.820   1.309   0.000  0.00  0.00    +0.167 HD
ATOM      5  C   LIG    1       -2.035  -0.632   0.000  0.00  0.00    +0.102 A 
ATOM      6  C   LIG    1       -0.769  -1.034   0.000  0.00  0.00    +0.105 A 
ATOM      7  N   LIG    1        0.013   0.067   0.000  0.00  0.00    -0.330 N 
ATOM      8  C   LIG    1        1.470  -0.052   0.000  0.00  0.00    +0.151 C 
ENDROOT
TORSDOF 0
