REMARK  Name = DB00035
REMARK                            x       y       z     vdW  Elec       q    Type
REMARK                         _______ _______ _______ _____ _____    ______ ____
ROOT
ATOM      1  C   LIG    1        1.086   0.791  -3.562  0.00  0.00    +0.170 C 
ATOM      2  C   LIG    1        1.827   0.248  -4.794  0.00  0.00    +0.112 C 
ATOM      3  S   LIG    1        2.497   1.435  -5.989  0.00  0.00    -0.091 S 
ATOM      4  S   LIG    1        2.797   0.264  -7.634  0.00  0.00    -0.093 S 
ATOM      5  C   LIG    1        4.323  -0.662  -7.280  0.00  0.00    +0.090 C 
ATOM      6  C   LIG    1        4.294  -2.179  -7.579  0.00  0.00    +0.107 C 
ATOM      7  C   LIG    1        3.226  -2.983  -6.816  0.00  0.00    +0.214 C 
ATOM      8  O   LIG    1        2.830  -2.610  -5.713  0.00  0.00    -0.276 OA
ATOM      9  N   LIG    1        2.794  -4.113  -7.406  0.00  0.00    -0.304 N 
ATOM     10  H   LIG    1        3.168  -4.355  -8.312  0.00  0.00    +0.149 HD
ATOM     11  C   LIG    1        1.812  -5.066  -6.869  0.00  0.00    +0.163 C 
ATOM     12  C   LIG    1        0.393  -4.459  -6.801  0.00  0.00    +0.234 C 
ATOM     13  N   LIG    1       -0.318  -4.663  -5.677  0.00  0.00    -0.302 N 
ATOM     14  H   LIG    1        0.110  -5.167  -4.914  0.00  0.00    +0.150 HD
ATOM     15  C   LIG    1       -1.698  -4.224  -5.444  0.00  0.00    +0.163 C 
ATOM     16  C   LIG    1       -1.814  -2.687  -5.364  0.00  0.00    +0.234 C 
ATOM     17  O   LIG    1       -0.872  -2.028  -4.922  0.00  0.00    -0.274 OA
ATOM     18  N   LIG    1       -2.979  -2.170  -5.795  0.00  0.00    -0.302 N 
ATOM     19  H   LIG    1       -3.691  -2.811  -6.114  0.00  0.00    +0.150 HD
ATOM     20  C   LIG    1       -3.336  -0.749  -5.916  0.00  0.00    +0.159 C 
ATOM     21  C   LIG    1       -3.067   0.113  -4.667  0.00  0.00    +0.234 C 
ATOM     22  O   LIG    1       -3.151  -0.385  -3.543  0.00  0.00    -0.274 OA
ATOM     23  N   LIG    1       -2.755   1.400  -4.918  0.00  0.00    -0.302 N 
ATOM     24  H   LIG    1       -2.737   1.708  -5.880  0.00  0.00    +0.150 HD
ATOM     25  C   LIG    1       -2.360   2.424  -3.935  0.00  0.00    +0.168 C 
ATOM     26  C   LIG    1       -1.058   2.022  -3.211  0.00  0.00    +0.234 C 
ATOM     27  O   LIG    1       -0.991   2.079  -1.983  0.00  0.00    -0.274 OA
ATOM     28  O   LIG    1       -0.040  -3.855  -7.783  0.00  0.00    -0.274 OA
ATOM     29  N   LIG    1       -0.080   1.553  -4.007  0.00  0.00    -0.302 N 
ATOM     30  H   LIG    1       -0.219   1.575  -5.007  0.00  0.00    +0.150 HD
ENDROOT
BRANCH   1  33
ATOM     31  C   LIG    1        2.499  -0.680  -1.361  0.00  0.00    +0.162 C 
ATOM     32  N   LIG    1        2.663   0.766  -1.627  0.00  0.00    -0.288 N 
ATOM     33  C   LIG    1        2.031   1.514  -2.569  0.00  0.00    +0.237 C 
ATOM     34  O   LIG    1        2.219   2.725  -2.704  0.00  0.00    -0.274 OA
ATOM     35  C   LIG    1        3.701   1.348  -0.771  0.00  0.00    +0.109 C 
ATOM     36  C   LIG    1        4.101   0.247   0.205  0.00  0.00    +0.021 C 
ATOM     37  C   LIG    1        3.760  -1.028  -0.551  0.00  0.00    +0.033 C 
BRANCH  31  40
ATOM     38  N   LIG    1        0.281  -1.704  -1.300  0.00  0.00    -0.302 N 
ATOM     39  H   LIG    1        0.524  -1.959  -2.246  0.00  0.00    +0.150 HD
ATOM     40  C   LIG    1        1.199  -1.016  -0.597  0.00  0.00    +0.234 C 
ATOM     41  O   LIG    1        1.063  -0.644   0.568  0.00  0.00    -0.274 OA
BRANCH  38  42
ATOM     42  C   LIG    1       -1.071  -2.120  -0.911  0.00  0.00    +0.159 C 
BRANCH  42  45
ATOM     43  N   LIG    1       -1.996  -4.318  -0.411  0.00  0.00    -0.305 N 
ATOM     44  H   LIG    1       -2.638  -4.104  -1.159  0.00  0.00    +0.149 HD
ATOM     45  C   LIG    1       -1.057  -3.415  -0.083  0.00  0.00    +0.234 C 
ATOM     46  O   LIG    1       -0.230  -3.570   0.816  0.00  0.00    -0.274 OA
BRANCH  43  47
ATOM     47  C   LIG    1       -2.124  -5.641   0.198  0.00  0.00    +0.199 C 
BRANCH  47  51
ATOM     48  N   LIG    1       -0.757  -7.664   0.383  0.00  0.00    -0.328 N 
ATOM     49  H   LIG    1       -1.137  -7.756   1.313  0.00  0.00    +0.145 HD
ATOM     50  H   LIG    1       -0.103  -8.353   0.041  0.00  0.00    +0.145 HD
ATOM     51  C   LIG    1       -1.105  -6.634  -0.393  0.00  0.00    +0.228 C 
ATOM     52  O   LIG    1       -0.662  -6.511  -1.535  0.00  0.00    -0.274 OA
ENDBRANCH  47  51
ENDBRANCH  43  47
ENDBRANCH  42  45
BRANCH  42  53
ATOM     53  C   LIG    1       -1.871  -0.973  -0.242  0.00  0.00    +0.035 C 
BRANCH  53  54
ATOM     54  C   LIG    1       -3.376  -1.246  -0.078  0.00  0.00    +0.039 C 
BRANCH  54  55
ATOM     55  C   LIG    1       -4.136  -0.030   0.466  0.00  0.00    +0.196 C 
BRANCH  55  56
ATOM     56  N   LIG    1       -5.555  -0.309   0.591  0.00  0.00    -0.276 N 
ATOM     57  H   LIG    1       -5.882  -0.505   1.526  0.00  0.00    +0.258 HD
BRANCH  56  58
ATOM     58  C   LIG    1       -6.501  -0.347  -0.426  0.00  0.00    +0.376 C 
ATOM     59  N   LIG    1       -6.267  -0.123  -1.645  0.00  0.00    -0.130 NA
ATOM     60  H   LIG    1       -7.090  -0.193  -2.225  0.00  0.00    +0.306 HD
BRANCH  58  61
ATOM     61  N   LIG    1       -7.755  -0.665   0.065  0.00  0.00    -0.289 N 
ATOM     62  H   LIG    1       -7.740  -1.183   0.932  0.00  0.00    +0.255 HD
ATOM     63  H   LIG    1       -8.350  -1.141  -0.598  0.00  0.00    +0.255 HD
ENDBRANCH  58  61
ENDBRANCH  56  58
ENDBRANCH  55  56
ENDBRANCH  54  55
ENDBRANCH  53  54
ENDBRANCH  42  53
ENDBRANCH  38  42
ENDBRANCH  31  40
ENDBRANCH   1  33
BRANCH  11  64
ATOM     64  C   LIG    1        2.305  -5.715  -5.545  0.00  0.00    +0.067 C 
BRANCH  64  65
ATOM     65  C   LIG    1        3.678  -6.360  -5.625  0.00  0.00    -0.045 A 
ATOM     66  C   LIG    1        4.796  -5.736  -5.032  0.00  0.00    +0.007 A 
ATOM     67  C   LIG    1        6.069  -6.333  -5.115  0.00  0.00    +0.045 A 
ATOM     68  C   LIG    1        6.229  -7.558  -5.791  0.00  0.00    +0.117 A 
ATOM     69  C   LIG    1        5.115  -8.185  -6.383  0.00  0.00    +0.045 A 
ATOM     70  C   LIG    1        3.843  -7.588  -6.300  0.00  0.00    +0.007 A 
BRANCH  68  71
ATOM     71  O   LIG    1        7.461  -8.139  -5.874  0.00  0.00    -0.507 OA
ATOM     72  H   LIG    1        8.148  -7.631  -5.436  0.00  0.00    +0.292 HD
ENDBRANCH  68  71
ENDBRANCH  64  65
ENDBRANCH  11  64
BRANCH  20  73
ATOM     73  C   LIG    1       -4.810  -0.631  -6.367  0.00  0.00    +0.041 C 
BRANCH  73  74
ATOM     74  C   LIG    1       -5.832  -1.285  -5.410  0.00  0.00    +0.098 C 
BRANCH  74  75
ATOM     75  C   LIG    1       -7.292  -1.046  -5.803  0.00  0.00    +0.211 C 
ATOM     76  O   LIG    1       -7.592  -0.555  -6.890  0.00  0.00    -0.276 OA
ATOM     77  N   LIG    1       -8.214  -1.412  -4.910  0.00  0.00    -0.329 N 
ATOM     78  H   LIG    1       -7.939  -1.823  -4.030  0.00  0.00    +0.145 HD
ATOM     79  H   LIG    1       -9.195  -1.285  -5.114  0.00  0.00    +0.145 HD
ENDBRANCH  74  75
ENDBRANCH  73  74
ENDBRANCH  20  73
BRANCH  25  80
ATOM     80  C   LIG    1       -3.522   2.752  -2.957  0.00  0.00    +0.127 C 
BRANCH  80  81
ATOM     81  C   LIG    1       -4.797   3.226  -3.664  0.00  0.00    +0.213 C 
ATOM     82  N   LIG    1       -5.937   2.612  -3.341  0.00  0.00    -0.329 N 
ATOM     83  H   LIG    1       -5.938   1.862  -2.663  0.00  0.00    +0.145 HD
ATOM     84  H   LIG    1       -6.805   2.889  -3.776  0.00  0.00    +0.145 HD
ATOM     85  O   LIG    1       -4.753   4.139  -4.486  0.00  0.00    -0.276 OA
ENDBRANCH  80  81
ENDBRANCH  25  80
BRANCH  15  86
ATOM     86  C   LIG    1       -2.202  -4.920  -4.161  0.00  0.00    +0.067 C 
BRANCH  86  87
ATOM     87  C   LIG    1       -3.688  -4.794  -3.864  0.00  0.00    -0.045 A 
ATOM     88  C   LIG    1       -4.172  -3.767  -3.029  0.00  0.00    +0.004 A 
ATOM     89  C   LIG    1       -5.534  -3.633  -2.801  0.00  0.00    +0.000 A 
ATOM     90  C   LIG    1       -6.433  -4.484  -3.430  0.00  0.00    +0.000 A 
ATOM     91  C   LIG    1       -5.977  -5.468  -4.299  0.00  0.00    +0.000 A 
ATOM     92  C   LIG    1       -4.615  -5.623  -4.529  0.00  0.00    +0.004 A 
ENDBRANCH  86  87
ENDBRANCH  15  86
TORSDOF 22
