REMARK  Name = DB00563
REMARK                            x       y       z     vdW  Elec       q    Type
REMARK                         _______ _______ _______ _____ _____    ______ ____
ROOT
ATOM      1  C   UNK A  0       -2.534   0.455  -0.059  0.00  0.00    +0.030 A 
ATOM      2  C   UNK A  0       -1.809   0.983   1.023  0.00  0.00    +0.024 A 
ATOM      3  C   UNK A  0       -0.419   0.915   1.065  0.00  0.00    +0.015 A 
ATOM      4  C   UNK A  0        0.299   0.316   0.021  0.00  0.00    +0.037 A 
ATOM      5  C   UNK A  0       -0.415  -0.214  -1.060  0.00  0.00    +0.015 A 
ATOM      6  C   UNK A  0       -1.804  -0.144  -1.099  0.00  0.00    +0.024 A 
ENDROOT
BRANCH   4   7
ATOM      7  C   UNK A  0        1.811   0.222   0.045  0.00  0.00    +0.245 C 
ATOM      8  O   UNK A  0        2.409  -0.506  -0.750  0.00  0.00    -0.270 OA
ATOM      9  N   GLU A  1        2.444   0.986   0.957  0.00  0.00    -0.298 N 
ATOM     10  H   GLU A  1        1.889   1.555   1.578  0.00  0.00    +0.150 HD
BRANCH   9  11
ATOM     11  CA  GLU A  1        3.895   1.055   1.177  0.00  0.00    +0.182 C 
BRANCH  11  12
ATOM     12  C   GLU A  1        4.219   0.953   2.683  0.00  0.00    +0.325 C 
ATOM     13  O   GLU A  1        3.393   0.997   3.574  0.00  0.00    -0.249 OA
BRANCH  12  14
ATOM     14  OXT GLU A  1        5.564   0.788   2.851  0.00  0.00    -0.479 OA
ATOM     15  HXT GLU A  1        5.810   0.709   3.775  0.00  0.00    +0.295 HD
ENDBRANCH  12  14
ENDBRANCH  11  12
BRANCH  11  16
ATOM     16  CB  GLU A  1        4.472   2.357   0.549  0.00  0.00    +0.045 C 
BRANCH  16  17
ATOM     17  CG  GLU A  1        4.319   2.495  -0.983  0.00  0.00    +0.123 C 
BRANCH  17  18
ATOM     18  CD  GLU A  1        5.112   1.458  -1.785  0.00  0.00    +0.305 C 
ATOM     19  OE1 GLU A  1        6.062   0.815  -1.342  0.00  0.00    -0.251 OA
BRANCH  18  20
ATOM     20  OE2 GLU A  1        4.654   1.347  -3.064  0.00  0.00    -0.481 OA
ATOM     21  HE2 GLU A  1        5.148   0.703  -3.576  0.00  0.00    +0.295 HD
ENDBRANCH  18  20
ENDBRANCH  17  18
ENDBRANCH  16  17
ENDBRANCH  11  16
ENDBRANCH   9  11
ENDBRANCH   4   7
BRANCH   1  23
ATOM     22  C   UNK A  0       -4.683   1.214   0.983  0.00  0.00    +0.129 C 
ATOM     23  N   UNK A  0       -3.957   0.532  -0.092  0.00  0.00    -0.327 N 
BRANCH  23  24
ATOM     24  C   UNK A  0       -4.759  -0.035  -1.190  0.00  0.00    +0.161 C 
BRANCH  24  25
ATOM     25  C   UNK A  0       -5.008   1.046  -2.245  0.00  0.00    +0.077 A 
ATOM     26  N   UNK A  0       -4.024   1.486  -2.958  0.00  0.00    -0.242 NA
ATOM     27  C   UNK A  0       -4.255   2.476  -3.893  0.00  0.00    +0.146 A 
ATOM     28  C   UNK A  0       -5.637   3.045  -4.095  0.00  0.00    +0.185 A 
ATOM     29  N   UNK A  0       -5.842   3.976  -4.974  0.00  0.00    -0.191 NA
ATOM     30  C   UNK A  0       -4.782   4.467  -5.748  0.00  0.00    +0.224 A 
ATOM     31  N   UNK A  0       -3.492   3.959  -5.582  0.00  0.00    -0.311 N 
ATOM     32  H   UNK A  0       -2.741   4.326  -6.147  0.00  0.00    +0.170 HD
ATOM     33  N   UNK A  0       -4.887   5.367  -6.622  0.00  0.00    -0.266 NA
ATOM     34  H   UNK A  0       -5.834   5.707  -6.709  0.00  0.00    +0.190 HD
ATOM     35  N   UNK A  0       -6.683   2.540  -3.308  0.00  0.00    -0.232 NA
ATOM     36  C   UNK A  0       -3.238   2.965  -4.653  0.00  0.00    +0.126 A 
ATOM     37  C   UNK A  0       -6.413   1.617  -2.447  0.00  0.00    +0.138 A 
BRANCH  36  38
ATOM     38  N   UNK A  0       -1.919   2.592  -4.627  0.00  0.00    -0.343 N 
ATOM     39  H   UNK A  0       -1.236   3.021  -5.234  0.00  0.00    +0.144 HD
ATOM     40  H   UNK A  0       -1.600   1.875  -3.990  0.00  0.00    +0.144 HD
ENDBRANCH  36  38
ENDBRANCH  24  25
ENDBRANCH  23  24
ENDBRANCH   1  23
TORSDOF 12
