REMARK  Name = DB00133
REMARK                            x       y       z     vdW  Elec       q    Type
REMARK                         _______ _______ _______ _____ _____    ______ ____
ROOT
ATOM      1  CA  SER A  1       -0.006   0.060  -0.096  0.00  0.00    +0.061 C 
ENDROOT
BRANCH   1   2
ATOM      2  N   SER A  1       -0.324  -0.613  -1.401  0.00  0.00    +0.388 N 
ATOM      3  H1  SER A  1        0.144  -0.122  -2.149  0.00  0.00    -0.089 HD
ATOM      4  H2  SER A  1        0.002  -1.568  -1.362  0.00  0.00    -0.089 HD
ATOM      5  H3  SER A  1       -1.324  -0.600  -1.541  0.00  0.00    -0.089 HD
ENDBRANCH   1   2
BRANCH   1   6
ATOM      6  C   SER A  1       -0.632   1.512  -0.147  0.00  0.00    +0.292 C 
ATOM      7  O   SER A  1       -0.010   2.401   0.478  0.00  0.00    -0.253 OA
BRANCH   6   8
ATOM      8  OXT SER A  1       -1.743   1.615  -0.720  0.00  0.00    -0.482 OA
ATOM      9  HXT SER A  1       -2.114   0.875  -1.160  0.00  0.00    +0.295 HD
ENDBRANCH   6   8
ENDBRANCH   1   6
BRANCH   1  10
ATOM     10  CB  SER A  1        1.516  -0.001   0.211  0.00  0.00    +0.150 C 
BRANCH  10  11
ATOM     11  OG  SER A  1        1.813   0.335   1.553  0.00  0.00    -0.396 OA
ATOM     12  H   SER A  1        2.766   0.358   1.661  0.00  0.00    +0.209 HD
ENDBRANCH  10  11
ENDBRANCH   1  10
TORSDOF 5
