REMARK  Name = DB00698
REMARK                            x       y       z     vdW  Elec       q    Type
REMARK                         _______ _______ _______ _____ _____    ______ ____
ROOT
ATOM      1  N   LIG    1       -0.679   0.896  -0.197  0.00  0.00    -0.180 NA
ATOM      2  C   LIG    1        0.029  -0.126   0.088  0.00  0.00    +0.177 C 
ENDROOT
BRANCH   1  10
ATOM      3  C   LIG    1       -2.804   1.902  -0.372  0.00  0.00    +0.328 C 
ATOM      4  O   LIG    1       -2.442   3.010  -0.772  0.00  0.00    -0.250 OA
ATOM      5  N   LIG    1       -4.077   1.517  -0.140  0.00  0.00    -0.237 N 
ATOM      6  H   LIG    1       -4.862   2.135  -0.282  0.00  0.00    +0.159 HD
ATOM      7  C   LIG    1       -4.224   0.257   0.293  0.00  0.00    +0.240 C 
ATOM      8  O   LIG    1       -5.268  -0.329   0.574  0.00  0.00    -0.274 OA
ATOM      9  C   LIG    1       -2.833  -0.312   0.369  0.00  0.00    +0.232 C 
ATOM     10  N   LIG    1       -2.047   0.826  -0.071  0.00  0.00    -0.168 N 
ENDBRANCH   1  10
BRANCH   2  11
ATOM     11  C   LIG    1        1.477  -0.081  -0.034  0.00  0.00    +0.150 A 
ATOM     12  C   LIG    1        2.389   0.894  -0.426  0.00  0.00    +0.053 A 
ATOM     13  C   LIG    1        3.663   0.333  -0.334  0.00  0.00    +0.076 A 
ATOM     14  C   LIG    1        3.487  -0.969   0.113  0.00  0.00    +0.276 A 
ATOM     15  O   LIG    1        2.160  -1.212   0.292  0.00  0.00    -0.433 OA
BRANCH  14  16
ATOM     16  N   LIG    1        4.415  -2.015   0.392  0.00  0.00    +0.043 N 
ATOM     17  O   LIG    1        5.605  -1.771   0.223  0.00  0.00    -0.127 OA
BRANCH  16  18
ATOM     18  O   LIG    1        3.968  -3.090   0.782  0.00  0.00    -0.394 OA
ATOM     19  H   LIG    1        3.044  -3.202   0.888  0.00  0.00    +0.329 HD
ENDBRANCH  16  18
ENDBRANCH  14  16
ENDBRANCH   2  11
TORSDOF 4
