REMARK  Name = DB00822
REMARK                            x       y       z     vdW  Elec       q    Type
REMARK                         _______ _______ _______ _____ _____    ______ ____
ROOT
ATOM      1  S   LIG    1       -0.145   0.201   0.231  0.00  0.00    -0.027 S 
ENDROOT
BRANCH   1   2
ATOM      2  C   LIG    1       -0.291   1.964  -0.065  0.00  0.00    +0.120 C 
ATOM      3  S   LIG    1        1.065   2.906  -0.373  0.00  0.00    -0.027 S 
BRANCH   2   4
ATOM      4  N   LIG    1       -1.598   2.425   0.028  0.00  0.00    -0.319 N 
BRANCH   4   5
ATOM      5  C   LIG    1       -2.762   1.555   0.305  0.00  0.00    +0.103 C 
ATOM      6  C   LIG    1       -3.349   0.904  -0.960  0.00  0.00    +0.024 C 
ENDBRANCH   4   5
BRANCH   4   7
ATOM      7  C   LIG    1       -1.953   3.850  -0.155  0.00  0.00    +0.103 C 
ATOM      8  C   LIG    1       -1.922   4.656   1.154  0.00  0.00    +0.024 C 
ENDBRANCH   4   7
ENDBRANCH   2   4
ENDBRANCH   1   2
BRANCH   1   9
ATOM      9  S   LIG    1        1.794  -0.441  -0.089  0.00  0.00    -0.027 S 
BRANCH   9  10
ATOM     10  C   LIG    1        2.060  -0.812  -1.823  0.00  0.00    +0.120 C 
ATOM     11  S   LIG    1        0.782  -0.832  -2.911  0.00  0.00    -0.027 S 
BRANCH  10  12
ATOM     12  N   LIG    1        3.379  -1.140  -2.110  0.00  0.00    -0.319 N 
BRANCH  12  13
ATOM     13  C   LIG    1        3.812  -1.587  -3.453  0.00  0.00    +0.103 C 
ATOM     14  C   LIG    1        4.236  -0.430  -4.374  0.00  0.00    +0.024 C 
ENDBRANCH  12  13
BRANCH  12  15
ATOM     15  C   LIG    1        4.488  -1.019  -1.138  0.00  0.00    +0.103 C 
ATOM     16  C   LIG    1        4.720  -2.297  -0.314  0.00  0.00    +0.024 C 
ENDBRANCH  12  15
ENDBRANCH  10  12
ENDBRANCH   9  10
ENDBRANCH   1   9
TORSDOF 9
