REMARK  Name = DB00384
REMARK                            x       y       z     vdW  Elec       q    Type
REMARK                         _______ _______ _______ _____ _____    ______ ____
ROOT
ATOM      1  N   LIG    1        3.461   1.233   0.000  0.00  0.00    -0.237 NA
ATOM      2  C   LIG    1        4.136   0.046   0.000  0.00  0.00    +0.148 A 
ATOM      3  C   LIG    1        5.554  -0.050   0.000  0.00  0.00    +0.149 A 
ATOM      4  N   LIG    1        6.202  -1.239   0.000  0.00  0.00    -0.198 NA
ATOM      5  C   LIG    1        5.430  -2.352   0.000  0.00  0.00    +0.216 A 
ATOM      6  N   LIG    1        4.075  -2.394   0.000  0.00  0.00    -0.193 NA
ATOM      7  C   LIG    1        3.430  -1.195   0.000  0.00  0.00    +0.187 A 
ATOM      8  N   LIG    1        2.070  -1.228   0.000  0.00  0.00    -0.209 NA
ATOM      9  C   LIG    1        1.414  -0.042   0.000  0.00  0.00    +0.145 A 
ATOM     10  C   LIG    1        2.102   1.183   0.000  0.00  0.00    +0.111 A 
ENDROOT
BRANCH  10  11
ATOM     11  C   LIG    1        1.427   2.503   0.000  0.00  0.00    +0.004 A 
ATOM     12  C   LIG    1        1.095   3.122   1.209  0.00  0.00    +0.010 A 
ATOM     13  C   LIG    1        0.447   4.354   1.210  0.00  0.00    +0.001 A 
ATOM     14  C   LIG    1        0.127   4.966   0.000  0.00  0.00    +0.000 A 
ATOM     15  C   LIG    1        0.446   4.354  -1.210  0.00  0.00    +0.001 A 
ATOM     16  C   LIG    1        1.095   3.122  -1.209  0.00  0.00    +0.010 A 
ENDBRANCH  10  11
BRANCH   3  17
ATOM     17  N   LIG    1        6.371   1.081   0.000  0.00  0.00    -0.341 N 
ATOM     18  H   LIG    1        7.374   0.964   0.000  0.00  0.00    +0.144 HD
ATOM     19  H   LIG    1        5.949   1.998   0.000  0.00  0.00    +0.144 HD
ENDBRANCH   3  17
BRANCH   5  20
ATOM     20  N   LIG    1        6.091  -3.574   0.000  0.00  0.00    -0.327 N 
ATOM     21  H   LIG    1        5.550  -4.426   0.000  0.00  0.00    +0.145 HD
ATOM     22  H   LIG    1        7.100  -3.590   0.000  0.00  0.00    +0.145 HD
ENDBRANCH   5  20
BRANCH   9  23
ATOM     23  N   LIG    1        0.020  -0.101   0.000  0.00  0.00    -0.341 N 
ATOM     24  H   LIG    1       -0.436  -1.002   0.000  0.00  0.00    +0.144 HD
ATOM     25  H   LIG    1       -0.514   0.756   0.000  0.00  0.00    +0.144 HD
ENDBRANCH   9  23
TORSDOF 4
