REMARK  Name = DB00689
REMARK                            x       y       z     vdW  Elec       q    Type
REMARK                         _______ _______ _______ _____ _____    ______ ____
ROOT
ATOM      1  S   LIG    1        0.661  -1.943   1.157  0.00  0.00    -0.131 S 
ATOM      2  C   LIG    1        1.677  -3.435   1.444  0.00  0.00    +0.107 C 
ATOM      3  C   LIG    1        2.322  -3.991   0.161  0.00  0.00    +0.006 C 
ATOM      4  CA  LIG    1        2.610  -3.186  -0.907  0.00  0.00    +0.125 C 
ATOM      5  N   LIG    1        2.385  -1.832  -0.904  0.00  0.00    -0.249 N 
ATOM      6  C   LIG    1        1.942  -0.886  -1.837  0.00  0.00    +0.244 C 
ATOM      7  CA  LIG    1        1.653   0.138  -0.705  0.00  0.00    +0.191 C 
ATOM      8  O   LIG    1        1.778  -0.908  -3.057  0.00  0.00    -0.273 OA
ATOM      9  C   LIG    1        1.968  -1.033   0.271  0.00  0.00    +0.169 C 
ENDROOT
BRANCH   7  10
ATOM     10  N   LIG    1        0.281   0.643  -0.742  0.00  0.00    -0.300 N 
ATOM     11  H   LIG    1       -0.257   0.445  -1.573  0.00  0.00    +0.150 HD
ATOM     12  C   LIG    1       -0.260   1.409   0.221  0.00  0.00    +0.235 C 
ATOM     13  O   LIG    1        0.342   1.753   1.241  0.00  0.00    -0.274 OA
BRANCH  12  14
ATOM     14  CA  LIG    1       -1.726   1.847   0.005  0.00  0.00    +0.168 C 
BRANCH  14  15
ATOM     15  C   LIG    1       -2.626   1.383   1.136  0.00  0.00    -0.022 A 
ATOM     16  C   LIG    1       -3.303   2.297   1.955  0.00  0.00    +0.005 A 
ATOM     17  C   LIG    1       -4.128   1.846   2.982  0.00  0.00    +0.000 A 
ATOM     18  C   LIG    1       -4.286   0.479   3.192  0.00  0.00    +0.000 A 
ATOM     19  C   LIG    1       -3.627  -0.442   2.383  0.00  0.00    +0.000 A 
ATOM     20  C   LIG    1       -2.802   0.009   1.356  0.00  0.00    +0.005 A 
ENDBRANCH  14  15
BRANCH  14  21
ATOM     21  N   LIG    1       -1.660   3.286  -0.309  0.00  0.00    -0.316 NA
ATOM     22  H1  LIG    1       -1.358   3.808   0.501  0.00  0.00    +0.119 HD
ATOM     23  H2  LIG    1       -2.575   3.640  -0.548  0.00  0.00    +0.119 HD
ENDBRANCH  14  21
ENDBRANCH  12  14
ENDBRANCH   7  10
BRANCH   4  24
ATOM     24  C   LIG    1        3.188  -3.735  -2.125  0.00  0.00    +0.351 C 
ATOM     25  OXT LIG    1        2.679  -4.640  -2.786  0.00  0.00    -0.244 OA
BRANCH  24  26
ATOM     26  O   LIG    1        4.369  -3.133  -2.458  0.00  0.00    -0.476 OA
ATOM     27  H   LIG    1        4.748  -3.494  -3.262  0.00  0.00    +0.295 HD
ENDBRANCH  24  26
ENDBRANCH   4  24
BRANCH   3  28
ATOM     28  C   LIG    1        2.599  -5.496   0.228  0.00  0.00    +0.266 C 
BRANCH  28  29
ATOM     29  O   LIG    1        3.457  -5.797   1.321  0.00  0.00    -0.460 OA
BRANCH  29  30
ATOM     30  C   LIG    1        3.759  -7.074   1.627  0.00  0.00    +0.304 C 
ATOM     31  C   LIG    1        4.692  -7.175   2.826  0.00  0.00    +0.136 C 
ATOM     32  O   LIG    1        3.357  -8.080   1.040  0.00  0.00    -0.251 OA
ENDBRANCH  29  30
ENDBRANCH  28  29
ENDBRANCH   3  28
TORSDOF 9
