REMARK  Name = DB00360
REMARK                            x       y       z     vdW  Elec       q    Type
REMARK                         _______ _______ _______ _____ _____    ______ ____
ROOT
ATOM      1  C   LIG    1       -2.048  -0.688   3.711  0.00  0.00    +0.149 A 
ATOM      2  N   LIG    1       -2.685  -1.006   4.880  0.00  0.00    -0.199 NA
ATOM      3  C   LIG    1       -3.910  -1.416   4.828  0.00  0.00    +0.195 A 
ATOM      4  N   LIG    1       -4.554  -1.537   3.618  0.00  0.00    -0.294 N 
ATOM      5  H   LIG    1       -5.508  -1.862   3.611  0.00  0.00    +0.172 HD
ATOM      6  C   LIG    1       -4.021  -1.257   2.393  0.00  0.00    +0.276 A 
ATOM      7  O   LIG    1       -4.668  -1.391   1.355  0.00  0.00    -0.266 OA
ATOM      8  N   LIG    1       -0.730  -0.297   3.815  0.00  0.00    -0.326 N 
ATOM      9  H   LIG    1       -0.308  -0.129   4.716  0.00  0.00    +0.148 HD
ATOM     10  C   LIG    1        0.015   0.204   2.651  0.00  0.00    +0.127 C 
ATOM     11  C   LIG    1       -0.500  -0.491   1.339  0.00  0.00    +0.119 C 
ATOM     12  N   LIG    1       -1.967  -0.409   1.336  0.00  0.00    -0.330 N 
ATOM     13  H   LIG    1       -2.384  -0.623   0.440  0.00  0.00    +0.147 HD
ATOM     14  C   LIG    1       -2.636  -0.798   2.485  0.00  0.00    +0.133 A 
ENDROOT
BRANCH   3  15
ATOM     15  N   LIG    1       -4.617  -1.758   6.000  0.00  0.00    -0.329 N 
ATOM     16  H   LIG    1       -5.625  -1.704   5.994  0.00  0.00    +0.145 HD
ATOM     17  H   LIG    1       -4.223  -1.500   6.893  0.00  0.00    +0.145 HD
ENDBRANCH   3  15
BRANCH  11  18
ATOM     18  C   LIG    1        0.068   0.119   0.024  0.00  0.00    +0.164 C 
BRANCH  18  19
ATOM     19  O   LIG    1       -0.301   1.485  -0.092  0.00  0.00    -0.387 OA
ATOM     20  H   LIG    1       -1.247   1.555   0.060  0.00  0.00    +0.210 HD
ENDBRANCH  18  19
BRANCH  18  21
ATOM     21  C   LIG    1        1.606  -0.021  -0.141  0.00  0.00    +0.142 C 
ATOM     22  C   LIG    1        2.134   0.489  -1.497  0.00  0.00    +0.040 C 
BRANCH  21  23
ATOM     23  O   LIG    1        2.003  -1.373  -0.007  0.00  0.00    -0.389 OA
ATOM     24  H   LIG    1        1.718  -1.693   0.852  0.00  0.00    +0.210 HD
ENDBRANCH  21  23
ENDBRANCH  18  21
ENDBRANCH  11  18
TORSDOF 5
