REMARK  Name = DB00509
REMARK                            x       y       z     vdW  Elec       q    Type
REMARK                         _______ _______ _______ _____ _____    ______ ____
ROOT
ATOM      1  C   LIG    1        0.054  -0.086   0.095  0.00  0.00    -0.043 A 
ATOM      2  C   LIG    1       -0.346   1.253   0.044  0.00  0.00    +0.021 A 
ATOM      3  C   LIG    1       -1.701   1.586   0.055  0.00  0.00    +0.057 A 
ATOM      4  I   LIG    1       -2.251   3.604  -0.035  0.00  0.00    -0.040 I 
ATOM      5  C   LIG    1       -2.670   0.577   0.118  0.00  0.00    +0.155 A 
ATOM      6  C   LIG    1       -2.271  -0.764   0.186  0.00  0.00    +0.057 A 
ATOM      7  I   LIG    1       -3.687  -2.303   0.293  0.00  0.00    -0.040 I 
ATOM      8  C   LIG    1       -0.914  -1.090   0.173  0.00  0.00    +0.021 A 
ENDROOT
BRANCH   5   9
ATOM      9  O   LIG    1       -4.008   0.900   0.124  0.00  0.00    -0.454 OA
BRANCH   9  10
ATOM     10  C   LIG    1       -4.702   1.053  -1.061  0.00  0.00    +0.131 A 
ATOM     11  C   LIG    1       -4.179   0.734  -2.325  0.00  0.00    +0.064 A 
ATOM     12  C   LIG    1       -4.942   0.914  -3.478  0.00  0.00    +0.059 A 
ATOM     13  I   LIG    1       -4.092   0.422  -5.330  0.00  0.00    -0.040 I 
ATOM     14  C   LIG    1       -6.245   1.416  -3.383  0.00  0.00    +0.143 A 
ATOM     15  C   LIG    1       -6.776   1.732  -2.127  0.00  0.00    +0.059 A 
ATOM     16  I   LIG    1       -8.720   2.487  -1.923  0.00  0.00    -0.040 I 
ATOM     17  C   LIG    1       -6.005   1.547  -0.979  0.00  0.00    +0.064 A 
BRANCH  14  18
ATOM     18  O   LIG    1       -6.998   1.596  -4.516  0.00  0.00    -0.505 OA
ATOM     19  H   LIG    1       -6.473   1.570  -5.319  0.00  0.00    +0.292 HD
ENDBRANCH  14  18
ENDBRANCH   9  10
ENDBRANCH   5   9
BRANCH   1  20
ATOM     20  C   LIG    1        1.538  -0.443   0.062  0.00  0.00    +0.065 C 
BRANCH  20  21
ATOM     21  CA  LIG    1        2.203  -0.213  -1.321  0.00  0.00    +0.165 C 
BRANCH  21  22
ATOM     22  N   LIG    1        3.606  -0.660  -1.345  0.00  0.00    -0.318 NA
ATOM     23  H1  LIG    1        3.710  -1.515  -0.816  0.00  0.00    +0.119 HD
ATOM     24  H2  LIG    1        4.200   0.015  -0.885  0.00  0.00    +0.119 HD
ENDBRANCH  21  22
BRANCH  21  25
ATOM     25  C   LIG    1        1.473  -0.898  -2.498  0.00  0.00    +0.322 C 
ATOM     26  O   LIG    1        1.580  -2.098  -2.754  0.00  0.00    -0.249 OA
BRANCH  25  27
ATOM     27  OXT LIG    1        0.678  -0.015  -3.172  0.00  0.00    -0.480 OA
ATOM     28  HXT LIG    1        0.209  -0.430  -3.899  0.00  0.00    +0.295 HD
ENDBRANCH  25  27
ENDBRANCH  21  25
ENDBRANCH  20  21
ENDBRANCH   1  20
TORSDOF 8
