REMARK  Name = DB00703
REMARK                            x       y       z     vdW  Elec       q    Type
REMARK                         _______ _______ _______ _____ _____    ______ ____
ROOT
ATOM      1  C   LIG    1       -0.115   1.362  -0.791  0.00  0.00    +0.185 A 
ATOM      2  N   LIG    1        0.552   0.416  -1.344  0.00  0.00    -0.155 NA
ATOM      3  N   LIG    1        0.129   2.283   0.278  0.00  0.00    -0.244 N 
ATOM      4  C   LIG    1        1.356   2.388   1.063  0.00  0.00    +0.175 C 
ATOM      5  N   LIG    1       -0.858   3.208   0.603  0.00  0.00    -0.142 NA
ATOM      6  C   LIG    1       -1.871   3.066  -0.139  0.00  0.00    +0.254 A 
ATOM      7  S   LIG    1       -1.760   1.763  -1.361  0.00  0.00    -0.011 S 
ENDROOT
BRANCH   2   8
ATOM      8  C   LIG    1        1.819   0.077  -0.924  0.00  0.00    +0.235 C 
ATOM      9  O   LIG    1        2.834   0.655  -1.314  0.00  0.00    -0.274 OA
ATOM     10  C   LIG    1        1.878  -1.125   0.019  0.00  0.00    +0.111 C 
ENDBRANCH   2   8
BRANCH   6  11
ATOM     11  S   LIG    1       -3.332   4.102   0.024  0.00  0.00    +0.081 S 
ATOM     12  O   LIG    1       -4.388   3.214   0.522  0.00  0.00    -0.151 OA
ATOM     13  O   LIG    1       -3.453   4.814  -1.252  0.00  0.00    -0.151 OA
BRANCH  11  14
ATOM     14  N   LIG    1       -2.914   5.254   1.283  0.00  0.00    -0.202 NA
ATOM     15  H   LIG    1       -2.192   5.934   1.032  0.00  0.00    +0.144 HD
ATOM     16  H   LIG    1       -2.818   4.860   2.223  0.00  0.00    +0.144 HD
ENDBRANCH  11  14
ENDBRANCH   6  11
TORSDOF 3
