REMARK  Name = DB00261
REMARK                            x       y       z     vdW  Elec       q    Type
REMARK                         _______ _______ _______ _____ _____    ______ ____
ROOT
ATOM      1  C   LIG    1        1.742   0.515  -0.280  0.00  0.00    +0.380 C 
ATOM      2  N   LIG    1        1.508  -0.864  -0.098  0.00  0.00    -0.210 N 
ATOM      3  C   LIG    1        2.739  -1.587  -0.220  0.00  0.00    +0.302 C 
ATOM      4  C   LIG    1        3.752  -0.472  -0.472  0.00  0.00    +0.307 C 
ATOM      5  O   LIG    1        4.961  -0.623  -0.631  0.00  0.00    -0.254 OA
ATOM      6  C   LIG    1        0.163  -1.414   0.108  0.00  0.00    +0.229 C 
ATOM      7  C   LIG    1       -0.919  -0.315   0.155  0.00  0.00    +0.046 A 
ATOM      8  C   LIG    1       -2.280  -0.585   0.365  0.00  0.00    +0.069 A 
ATOM      9  C   LIG    1       -3.212   0.463   0.395  0.00  0.00    +0.060 A 
ATOM     10 CL   LIG    1       -4.897   0.164   0.651  0.00  0.00    -0.082 Cl
ATOM     11  C   LIG    1       -2.788   1.779   0.215  0.00  0.00    +0.025 A 
ATOM     12  C   LIG    1       -1.441   2.062   0.004  0.00  0.00    +0.048 A 
ATOM     13 CL   LIG    1       -2.802  -2.223   0.587  0.00  0.00    -0.082 Cl
ATOM     14  C   LIG    1       -0.505   1.028  -0.026  0.00  0.00    +0.149 A 
ATOM     15  N   LIG    1        3.063   0.690  -0.485  0.00  0.00    -0.174 N 
ATOM     16  H   LIG    1        3.500   1.586  -0.638  0.00  0.00    +0.254 HD
ATOM     17  N   LIG    1        0.835   1.409  -0.251  0.00  0.00    -0.076 NA
ENDROOT
TORSDOF 0
