REMARK  Name = DB00668
REMARK                            x       y       z     vdW  Elec       q    Type
REMARK                         _______ _______ _______ _____ _____    ______ ____
ROOT
ATOM      1  C   LIG    1        1.537  -0.019   0.010  0.00  0.00    -0.014 A 
ATOM      2  C   LIG    1        2.236  -0.145  -1.195  0.00  0.00    +0.010 A 
ATOM      3  C   LIG    1        3.631  -0.151  -1.206  0.00  0.00    +0.049 A 
ATOM      4  C   LIG    1        4.344  -0.029  -0.013  0.00  0.00    +0.158 A 
ATOM      5  C   LIG    1        3.654   0.103   1.199  0.00  0.00    +0.159 A 
ATOM      6  C   LIG    1        2.257   0.109   1.205  0.00  0.00    +0.055 A 
ENDROOT
BRANCH   5   7
ATOM      7  O   LIG    1        4.327   0.227   2.389  0.00  0.00    -0.503 OA
ATOM      8  H   LIG    1        3.743   0.308   3.146  0.00  0.00    +0.292 HD
ENDBRANCH   5   7
BRANCH   4   9
ATOM      9  O   LIG    1        5.716  -0.037  -0.051  0.00  0.00    -0.503 OA
ATOM     10  H   LIG    1        6.066  -0.133  -0.940  0.00  0.00    +0.292 HD
ENDBRANCH   4   9
BRANCH   1  11
ATOM     11  C   LIG    1        0.009  -0.008   0.008  0.00  0.00    +0.158 C 
BRANCH  11  12
ATOM     12  O   LIG    1       -0.532  -0.826   1.032  0.00  0.00    -0.386 OA
ATOM     13  H   LIG    1       -0.307  -1.740   0.842  0.00  0.00    +0.210 HD
ENDBRANCH  11  12
BRANCH  11  14
ATOM     14  C   LIG    1       -0.535   1.432   0.147  0.00  0.00    +0.116 C 
BRANCH  14  15
ATOM     15  N   LIG    1       -1.971   1.483  -0.103  0.00  0.00    -0.316 NA
ATOM     16  H   LIG    1       -2.448   0.857   0.531  0.00  0.00    +0.122 HD
ATOM     17  C   LIG    1       -2.475   2.837   0.058  0.00  0.00    +0.101 C 
ENDBRANCH  14  15
ENDBRANCH  11  14
ENDBRANCH   1  11
TORSDOF 6
