REMARK  Name = DB00751
REMARK                            x       y       z     vdW  Elec       q    Type
REMARK                         _______ _______ _______ _____ _____    ______ ____
ROOT
ATOM      1  N   LIG    1        2.156   1.280   0.047  0.00  0.00    -0.182 N 
ATOM      2  C   LIG    1        1.460   0.032   0.105  0.00  0.00    +0.370 C 
ATOM      3  N   LIG    1        2.193  -1.007   0.108  0.00  0.00    -0.113 NA
ATOM      4  C   LIG    1        3.563  -0.582   0.062  0.00  0.00    +0.286 C 
ATOM      5  C   LIG    1        1.653   2.586  -0.025  0.00  0.00    +0.099 A 
ATOM      6  C   LIG    1        0.704   3.064   0.889  0.00  0.00    +0.040 A 
ATOM      7  C   LIG    1        0.236   4.374   0.813  0.00  0.00    +0.003 A 
ATOM      8  C   LIG    1        0.708   5.221  -0.185  0.00  0.00    +0.000 A 
ATOM      9  C   LIG    1        1.641   4.753  -1.109  0.00  0.00    +0.007 A 
ATOM     10  C   LIG    1        2.118   3.439  -1.041  0.00  0.00    -0.006 A 
ATOM     11  C   LIG    1        3.067   2.875  -2.092  0.00  0.00    +0.074 C 
ATOM     12  C   LIG    1        4.458   2.598  -1.538  0.00  0.00    -0.037 A 
ATOM     13  C   LIG    1        5.561   3.242  -2.115  0.00  0.00    +0.004 A 
ATOM     14  C   LIG    1        6.854   3.015  -1.656  0.00  0.00    +0.000 A 
ATOM     15  C   LIG    1        7.066   2.132  -0.605  0.00  0.00    +0.000 A 
ATOM     16  C   LIG    1        5.982   1.484  -0.021  0.00  0.00    +0.007 A 
ATOM     17  C   LIG    1        4.669   1.694  -0.465  0.00  0.00    -0.006 A 
ATOM     18  C   LIG    1        3.548   0.925   0.265  0.00  0.00    +0.212 C 
ENDROOT
BRANCH   2  19
ATOM     19  N   LIG    1        0.045   0.048   0.098  0.00  0.00    -0.251 N 
ATOM     20  H   LIG    1       -0.410   0.777  -0.431  0.00  0.00    +0.241 HD
ATOM     21  H   LIG    1       -0.428  -0.836  -0.025  0.00  0.00    +0.241 HD
ENDBRANCH   2  19
TORSDOF 1
