REMARK  Name = DB00876
REMARK                            x       y       z     vdW  Elec       q    Type
REMARK                         _______ _______ _______ _____ _____    ______ ____
ROOT
ATOM      1  N   LIG    1        2.023  -0.812  -0.935  0.00  0.00    -0.324 N 
ATOM      2  C   LIG    1        1.390  -0.051   0.030  0.00  0.00    +0.062 A 
ATOM      3  C   LIG    1        2.430   0.489   0.775  0.00  0.00    +0.138 A 
ATOM      4  N   LIG    1        3.617   0.139   0.325  0.00  0.00    -0.240 NA
ATOM      5  C   LIG    1        3.375  -0.634  -0.707  0.00  0.00    +0.110 A 
ENDROOT
BRANCH   2   6
ATOM      6  C   LIG    1       -0.058   0.062   0.132  0.00  0.00    +0.038 C 
ATOM      7  C   LIG    1       -0.785   1.186   0.355  0.00  0.00    +0.043 C 
BRANCH   7   8
ATOM      8  C   LIG    1       -2.245   1.156   0.448  0.00  0.00    +0.333 C 
ATOM      9  O   LIG    1       -2.937   2.134   0.731  0.00  0.00    -0.245 OA
BRANCH   8  10
ATOM     10  O   LIG    1       -2.801  -0.068   0.192  0.00  0.00    -0.477 OA
ATOM     11  H   LIG    1       -3.758  -0.053   0.262  0.00  0.00    +0.295 HD
ENDBRANCH   8  10
ENDBRANCH   7   8
BRANCH   7  12
ATOM     12  C   LIG    1       -0.159   2.582   0.503  0.00  0.00    +0.084 C 
BRANCH  12  13
ATOM     13  C   LIG    1        0.120   3.081   1.910  0.00  0.00    -0.006 A 
ATOM     14  C   LIG    1       -0.518   2.775   3.115  0.00  0.00    +0.011 A 
ATOM     15  C   LIG    1        0.008   3.428   4.233  0.00  0.00    +0.008 A 
ATOM     16  C   LIG    1        1.063   4.258   3.910  0.00  0.00    +0.045 A 
ATOM     17  S   LIG    1        1.402   4.227   2.213  0.00  0.00    -0.101 S 
ENDBRANCH  12  13
ENDBRANCH   7  12
ENDBRANCH   2   6
BRANCH   1  18
ATOM     18  C   LIG    1        1.408  -1.593  -2.015  0.00  0.00    +0.158 C 
BRANCH  18  19
ATOM     19  C   LIG    1        1.469  -0.914  -3.378  0.00  0.00    -0.028 A 
ATOM     20  C   LIG    1        0.963   0.376  -3.547  0.00  0.00    +0.006 A 
ATOM     21  C   LIG    1        1.047   1.001  -4.788  0.00  0.00    +0.015 A 
ATOM     22  C   LIG    1        1.635   0.344  -5.878  0.00  0.00    +0.059 A 
ATOM     23  C   LIG    1        2.130  -0.956  -5.701  0.00  0.00    +0.015 A 
ATOM     24  C   LIG    1        2.044  -1.581  -4.461  0.00  0.00    +0.006 A 
BRANCH  22  25
ATOM     25  C   LIG    1        1.728   1.042  -7.216  0.00  0.00    +0.337 C 
ATOM     26  O   LIG    1        1.306   2.184  -7.393  0.00  0.00    -0.245 OA
BRANCH  25  27
ATOM     27  O   LIG    1        2.316   0.313  -8.210  0.00  0.00    -0.477 OA
ATOM     28  H   LIG    1        2.356   0.796  -9.039  0.00  0.00    +0.295 HD
ENDBRANCH  25  27
ENDBRANCH  22  25
ENDBRANCH  18  19
ENDBRANCH   1  18
BRANCH   5  29
ATOM     29  C   LIG    1        4.476  -1.219  -1.578  0.00  0.00    +0.074 C 
BRANCH  29  30
ATOM     30  C   LIG    1        4.922  -0.238  -2.680  0.00  0.00    +0.007 C 
BRANCH  30  31
ATOM     31  C   LIG    1        5.901  -0.864  -3.687  0.00  0.00    -0.003 C 
ATOM     32  C   LIG    1        6.273   0.093  -4.828  0.00  0.00    +0.004 C 
ENDBRANCH  30  31
ENDBRANCH  29  30
ENDBRANCH   5  29
TORSDOF 12
