REMARK  Name = DB00317
REMARK                            x       y       z     vdW  Elec       q    Type
REMARK                         _______ _______ _______ _____ _____    ______ ____
ROOT
ATOM      1  C   LIG    1        4.414   2.281  -0.623  0.00  0.00    +0.134 A 
ATOM      2  C   LIG    1        3.588   1.161  -0.294  0.00  0.00    +0.044 A 
ATOM      3  C   LIG    1        4.271  -0.045   0.045  0.00  0.00    +0.080 A 
ATOM      4  C   LIG    1        3.524  -1.196   0.379  0.00  0.00    +0.078 A 
ATOM      5  C   LIG    1        2.121  -1.169   0.383  0.00  0.00    +0.164 A 
ATOM      6  C   LIG    1        1.444   0.012   0.051  0.00  0.00    +0.163 A 
ATOM      7  N   LIG    1        5.632  -0.121   0.057  0.00  0.00    -0.235 NA
ATOM      8  C   LIG    1        6.306   1.008  -0.268  0.00  0.00    +0.223 A 
ATOM      9  C   LIG    1        2.168   1.166  -0.284  0.00  0.00    +0.062 A 
ATOM     10  N   LIG    1        5.769   2.202  -0.604  0.00  0.00    -0.220 NA
ENDROOT
BRANCH   1  11
ATOM     11  N   LIG    1        3.826   3.519  -0.950  0.00  0.00    -0.299 N 
ATOM     12  H   LIG    1        2.825   3.539  -0.821  0.00  0.00    +0.154 HD
BRANCH  11  18
ATOM     13 CL   LIG    1        7.467   6.118  -3.546  0.00  0.00    -0.081 Cl
ATOM     14  C   LIG    1        6.013   6.049  -2.617  0.00  0.00    +0.078 A 
ATOM     15  C   LIG    1        5.308   7.217  -2.315  0.00  0.00    +0.142 A 
ATOM     16  C   LIG    1        4.129   7.144  -1.574  0.00  0.00    +0.041 A 
ATOM     17  C   LIG    1        3.656   5.909  -1.130  0.00  0.00    +0.026 A 
ATOM     18  C   LIG    1        4.361   4.735  -1.412  0.00  0.00    +0.034 A 
ATOM     19  F   LIG    1        5.757   8.421  -2.741  0.00  0.00    -0.204 F 
ATOM     20  C   LIG    1        5.538   4.814  -2.170  0.00  0.00    +0.046 A 
ENDBRANCH  11  18
ENDBRANCH   1  11
BRANCH   5  21
ATOM     21  O   LIG    1        1.341  -2.266   0.704  0.00  0.00    -0.491 OA
ATOM     22  C   LIG    1        1.965  -3.498   1.048  0.00  0.00    +0.277 C 
ENDBRANCH   5  21
BRANCH   6  23
ATOM     23  O   LIG    1        0.061  -0.040   0.075  0.00  0.00    -0.488 OA
BRANCH  23  24
ATOM     24  C   LIG    1       -0.702   1.122  -0.244  0.00  0.00    +0.230 C 
BRANCH  24  25
ATOM     25  C   LIG    1       -2.199   0.795  -0.134  0.00  0.00    +0.056 C 
BRANCH  25  26
ATOM     26  C   LIG    1       -2.617   0.317   1.275  0.00  0.00    +0.088 C 
BRANCH  26  27
ATOM     27  N   LIG    1       -4.069   0.306   1.474  0.00  0.00    -0.298 NA
ATOM     28  C   LIG    1       -4.390   0.091   2.891  0.00  0.00    +0.112 C 
ATOM     29  C   LIG    1       -5.914   0.023   3.126  0.00  0.00    +0.175 C 
ATOM     30  O   LIG    1       -6.492  -0.972   2.288  0.00  0.00    -0.377 OA
ATOM     31  C   LIG    1       -6.276  -0.706   0.906  0.00  0.00    +0.175 C 
ATOM     32  C   LIG    1       -4.763  -0.655   0.603  0.00  0.00    +0.112 C 
ENDBRANCH  26  27
ENDBRANCH  25  26
ENDBRANCH  24  25
ENDBRANCH  23  24
ENDBRANCH   6  23
TORSDOF 8
