REMARK  Name = DB00157
REMARK                            x       y       z     vdW  Elec       q    Type
REMARK                         _______ _______ _______ _____ _____    ______ ____
ROOT
ATOM      1  P   LIG    1       -0.629   1.839   0.710  0.00  0.00    +0.483 P 
ATOM      2  O   LIG    1       -0.632   3.142   1.430  0.00  0.00    -0.227 OA
ENDROOT
BRANCH   1   3
ATOM      3  O   LIG    1       -1.030   1.938  -0.859  0.00  0.00    -0.302 OA
ATOM      4  H   LIG    1       -1.147   2.841  -1.213  0.00  0.00    +0.222 HD
ENDBRANCH   1   3
BRANCH   1   5
ATOM      5  O   LIG    1        0.793   1.047   0.670  0.00  0.00    -0.186 OA
BRANCH   5   6
ATOM      6  P   LIG    1        1.860   0.629   1.830  0.00  0.00    +0.483 P 
ATOM      7  O   LIG    1        2.255  -0.805   1.816  0.00  0.00    -0.227 OA
BRANCH   6   8
ATOM      8  O   LIG    1        1.173   1.133   3.214  0.00  0.00    -0.302 OA
ATOM      9  H   LIG    1        1.143   0.475   3.935  0.00  0.00    +0.222 HD
ENDBRANCH   6   8
BRANCH   6  10
ATOM     10  O   LIG    1        3.095   1.676   1.623  0.00  0.00    -0.284 OA
BRANCH  10  11
ATOM     11  C   LIG    1        2.921   3.074   1.795  0.00  0.00    +0.206 C 
BRANCH  11  12
ATOM     12  C   LIG    1        3.512   3.828   0.592  0.00  0.00    +0.178 C 
ATOM     13  C   LIG    1        3.246   5.336   0.604  0.00  0.00    +0.178 C 
ATOM     14  C   LIG    1        1.990   5.490  -0.260  0.00  0.00    +0.193 C 
ATOM     15  C   LIG    1        2.270   4.414  -1.326  0.00  0.00    +0.241 C 
ATOM     16  O   LIG    1        2.841   3.376  -0.578  0.00  0.00    -0.348 OA
BRANCH  15  17
ATOM     17  N   LIG    1        1.093   3.973  -2.063  0.00  0.00    -0.285 N 
ATOM     18  C   LIG    1        0.199   4.895  -2.595  0.00  0.00    +0.073 C 
ATOM     19  C   LIG    1       -0.363   4.768  -3.813  0.00  0.00    -0.007 C 
ATOM     20  C   LIG    1       -0.083   3.567  -4.719  0.00  0.00    +0.070 C 
ATOM     21  C   LIG    1        0.668   2.465  -3.927  0.00  0.00    +0.032 C 
ATOM     22  C   LIG    1        1.201   2.743  -2.708  0.00  0.00    +0.086 C 
BRANCH  21  23
ATOM     23  C   LIG    1        0.799   1.128  -4.496  0.00  0.00    +0.239 C 
ATOM     24  N   LIG    1        0.297   0.950  -5.723  0.00  0.00    -0.326 N 
ATOM     25  H   LIG    1        0.360   0.045  -6.167  0.00  0.00    +0.145 HD
ATOM     26  H   LIG    1       -0.148   1.714  -6.209  0.00  0.00    +0.145 HD
ATOM     27  O   LIG    1        1.342   0.193  -3.908  0.00  0.00    -0.271 OA
ENDBRANCH  21  23
ENDBRANCH  15  17
BRANCH  14  28
ATOM     28  O   LIG    1        1.822   6.787  -0.811  0.00  0.00    -0.385 OA
ATOM     29  H   LIG    1        2.657   7.065  -1.196  0.00  0.00    +0.210 HD
ENDBRANCH  14  28
BRANCH  13  30
ATOM     30  O   LIG    1        4.372   6.062   0.131  0.00  0.00    -0.386 OA
ATOM     31  H   LIG    1        4.625   5.709  -0.725  0.00  0.00    +0.210 HD
ENDBRANCH  13  30
ENDBRANCH  11  12
ENDBRANCH  10  11
ENDBRANCH   6  10
ENDBRANCH   5   6
ENDBRANCH   1   5
BRANCH   1  32
ATOM     32  O   LIG    1       -1.682   0.721   1.258  0.00  0.00    -0.284 OA
BRANCH  32  33
ATOM     33  C   LIG    1       -1.921   0.531   2.643  0.00  0.00    +0.206 C 
BRANCH  33  34
ATOM     34  C   LIG    1       -1.465  -0.873   3.077  0.00  0.00    +0.178 C 
ATOM     35  C   LIG    1       -2.099  -2.043   2.324  0.00  0.00    +0.178 C 
ATOM     36  C   LIG    1       -2.036  -3.185   3.339  0.00  0.00    +0.195 C 
ATOM     37  C   LIG    1       -2.303  -2.401   4.631  0.00  0.00    +0.253 C 
ATOM     38  O   LIG    1       -1.882  -1.085   4.418  0.00  0.00    -0.346 OA
BRANCH  37  39
ATOM     39  N   LIG    1       -3.723  -2.406   5.167  0.00  0.00    -0.286 N 
ATOM     40  C   LIG    1       -4.885  -2.633   4.517  0.00  0.00    +0.203 A 
ATOM     41  N   LIG    1       -5.949  -2.507   5.270  0.00  0.00    -0.231 NA
ATOM     42  C   LIG    1       -5.465  -2.147   6.468  0.00  0.00    +0.147 A 
ATOM     43  C   LIG    1       -6.111  -1.847   7.691  0.00  0.00    +0.147 A 
ATOM     44  N   LIG    1       -5.342  -1.493   8.756  0.00  0.00    -0.219 NA
ATOM     45  C   LIG    1       -4.013  -1.447   8.583  0.00  0.00    +0.225 A 
ATOM     46  N   LIG    1       -3.290  -1.709   7.483  0.00  0.00    -0.216 NA
ATOM     47  C   LIG    1       -4.083  -2.063   6.441  0.00  0.00    +0.167 A 
BRANCH  43  48
ATOM     48  N   LIG    1       -7.495  -1.893   7.852  0.00  0.00    -0.341 N 
ATOM     49  H   LIG    1       -7.896  -1.664   8.749  0.00  0.00    +0.144 HD
ATOM     50  H   LIG    1       -8.076  -2.154   7.068  0.00  0.00    +0.144 HD
ENDBRANCH  43  48
ENDBRANCH  37  39
BRANCH  36  51
ATOM     51  O   LIG    1       -0.775  -3.833   3.431  0.00  0.00    -0.385 OA
ATOM     52  H   LIG    1       -0.636  -4.348   2.633  0.00  0.00    +0.210 HD
ENDBRANCH  36  51
BRANCH  35  53
ATOM     53  O   LIG    1       -1.460  -2.330   1.093  0.00  0.00    -0.386 OA
ATOM     54  H   LIG    1       -1.935  -3.042   0.657  0.00  0.00    +0.210 HD
ENDBRANCH  35  53
ENDBRANCH  33  34
ENDBRANCH  32  33
ENDBRANCH   1  32
TORSDOF 18
