REMARK  Name = DB00490
REMARK                            x       y       z     vdW  Elec       q    Type
REMARK                         _______ _______ _______ _____ _____    ______ ____
ROOT
ATOM      1  C   LIG    1       -0.290  -0.166   0.102  0.00  0.00    +0.021 C 
ENDROOT
BRANCH   1   2
ATOM      2  C   LIG    1       -0.742   1.309   0.078  0.00  0.00    +0.116 C 
BRANCH   2  14
ATOM      3  O   LIG    1       -2.233   1.536   2.355  0.00  0.00    -0.275 OA
ATOM      4  C   LIG    1       -2.824   1.602   1.274  0.00  0.00    +0.222 C 
ATOM      5  C   LIG    1       -4.357   1.806   1.247  0.00  0.00    +0.103 C 
ATOM      6  C   LIG    1       -4.868   2.461  -0.063  0.00  0.00    -0.013 C 
ATOM      7  C   LIG    1       -4.319   1.635  -1.249  0.00  0.00    +0.103 C 
ATOM      8  C   LIG    1       -2.782   1.481  -1.210  0.00  0.00    +0.222 C 
ATOM      9  O   LIG    1       -2.151   1.337  -2.261  0.00  0.00    -0.275 OA
ATOM     10  C   LIG    1       -6.410   2.498  -0.072  0.00  0.00    +0.008 C 
ATOM     11  C   LIG    1       -6.819   3.763   0.693  0.00  0.00    +0.001 C 
ATOM     12  C   LIG    1       -5.629   4.728   0.589  0.00  0.00    +0.001 C 
ATOM     13  C   LIG    1       -4.516   3.968  -0.145  0.00  0.00    +0.008 C 
ATOM     14  N   LIG    1       -2.220   1.480   0.045  0.00  0.00    -0.242 N 
ENDBRANCH   2  14
ENDBRANCH   1   2
BRANCH   1  15
ATOM     15  C   LIG    1        1.243  -0.312   0.070  0.00  0.00    +0.017 C 
BRANCH  15  16
ATOM     16  C   LIG    1        1.752  -1.772   0.099  0.00  0.00    +0.084 C 
BRANCH  16  17
ATOM     17  N   LIG    1        1.212  -2.614  -0.976  0.00  0.00    -0.299 NA
ATOM     18  C   LIG    1        1.657  -2.184  -2.303  0.00  0.00    +0.103 C 
ATOM     19  C   LIG    1        1.010  -3.053  -3.404  0.00  0.00    +0.123 C 
ATOM     20  N   LIG    1        1.236  -4.505  -3.248  0.00  0.00    -0.297 N 
ATOM     21  C   LIG    1        1.015  -4.925  -1.848  0.00  0.00    +0.123 C 
ATOM     22  C   LIG    1        1.656  -3.995  -0.793  0.00  0.00    +0.103 C 
BRANCH  20  23
ATOM     23  C   LIG    1        1.129  -5.397  -4.322  0.00  0.00    +0.218 A 
ATOM     24  N   LIG    1        1.117  -6.735  -4.046  0.00  0.00    -0.223 NA
ATOM     25  C   LIG    1        1.049  -7.588  -5.101  0.00  0.00    +0.116 A 
ATOM     26  C   LIG    1        1.004  -7.141  -6.422  0.00  0.00    +0.039 A 
ATOM     27  C   LIG    1        1.035  -5.761  -6.618  0.00  0.00    +0.116 A 
ATOM     28  N   LIG    1        1.103  -4.880  -5.585  0.00  0.00    -0.223 NA
ENDBRANCH  20  23
ENDBRANCH  16  17
ENDBRANCH  15  16
ENDBRANCH   1  15
TORSDOF 6
