REMARK  Name = DB00989
REMARK                            x       y       z     vdW  Elec       q    Type
REMARK                         _______ _______ _______ _____ _____    ______ ____
ROOT
ATOM      1  C   LIG    1        1.372   0.196   0.098  0.00  0.00    +0.134 A 
ATOM      2  C   LIG    1        2.094   0.117   1.292  0.00  0.00    +0.046 A 
ATOM      3  C   LIG    1        3.483  -0.010   1.263  0.00  0.00    +0.004 A 
ATOM      4  C   LIG    1        4.154  -0.068   0.042  0.00  0.00    +0.005 A 
ATOM      5  C   LIG    1        3.442  -0.006  -1.161  0.00  0.00    -0.027 A 
ATOM      6  C   LIG    1        2.047   0.124  -1.124  0.00  0.00    +0.051 A 
ENDROOT
BRANCH   5   7
ATOM      7  C   LIG    1        4.191  -0.067  -2.498  0.00  0.00    +0.083 C 
ATOM      8  C   LIG    1        4.035   1.284  -3.240  0.00  0.00    +0.029 C 
BRANCH   7   9
ATOM      9  N   LIG    1        3.759  -1.230  -3.304  0.00  0.00    -0.302 NA
ATOM     10  C   LIG    1        4.325  -1.252  -4.655  0.00  0.00    +0.105 C 
ATOM     11  C   LIG    1        4.131  -2.491  -2.656  0.00  0.00    +0.105 C 
ENDBRANCH   7   9
ENDBRANCH   5   7
BRANCH   1  12
ATOM     12  O   LIG    1        0.000   0.304   0.122  0.00  0.00    -0.411 OA
BRANCH  12  13
ATOM     13  C   LIG    1       -0.587   1.543   0.154  0.00  0.00    +0.408 C 
ATOM     14  N   LIG    1       -1.989   1.447   0.130  0.00  0.00    -0.270 N 
ATOM     15  C   LIG    1       -2.815   2.655   0.126  0.00  0.00    +0.135 C 
ATOM     16  O   LIG    1        0.048   2.603   0.196  0.00  0.00    -0.226 OA
BRANCH  14  17
ATOM     17  C   LIG    1       -2.715   0.172   0.036  0.00  0.00    +0.107 C 
ATOM     18  C   LIG    1       -2.849  -0.342  -1.407  0.00  0.00    +0.024 C 
ENDBRANCH  14  17
ENDBRANCH  12  13
ENDBRANCH   1  12
TORSDOF 5
