REMARK  Name = DB00179
REMARK                            x       y       z     vdW  Elec       q    Type
REMARK                         _______ _______ _______ _____ _____    ______ ____
ROOT
ATOM      1  C   LIG    1       -0.031  -0.037  -0.039  0.00  0.00    -0.007 C 
ATOM      2  C   LIG    1       -0.530  -0.819  -1.281  0.00  0.00    +0.008 C 
ENDROOT
BRANCH   1   3
ATOM      3  C   LIG    1        1.535   0.035   0.033  0.00  0.00    -0.007 C 
ATOM      4  C   LIG    1        2.035   0.812   1.278  0.00  0.00    +0.008 C 
BRANCH   3   5
ATOM      5  C   LIG    1        2.170   0.616  -1.265  0.00  0.00    +0.038 C 
BRANCH   5   6
ATOM      6  C   LIG    1        3.695   0.654  -1.273  0.00  0.00    -0.043 A 
ATOM      7  C   LIG    1        4.372   1.875  -1.202  0.00  0.00    +0.007 A 
ATOM      8  C   LIG    1        5.766   1.907  -1.204  0.00  0.00    +0.049 A 
ATOM      9  C   LIG    1        6.497   0.720  -1.281  0.00  0.00    +0.158 A 
ATOM     10  C   LIG    1        5.824  -0.507  -1.356  0.00  0.00    +0.158 A 
ATOM     11  C   LIG    1        4.428  -0.535  -1.354  0.00  0.00    +0.052 A 
BRANCH  10  12
ATOM     12  O   LIG    1        6.516  -1.690  -1.433  0.00  0.00    -0.503 OA
ATOM     13  H   LIG    1        5.944  -2.459  -1.479  0.00  0.00    +0.292 HD
ENDBRANCH  10  12
BRANCH   9  14
ATOM     14  O   LIG    1        7.868   0.778  -1.281  0.00  0.00    -0.503 OA
ATOM     15  H   LIG    1        8.206   1.674  -1.224  0.00  0.00    +0.292 HD
ENDBRANCH   9  14
ENDBRANCH   5   6
ENDBRANCH   3   5
ENDBRANCH   1   3
BRANCH   1  16
ATOM     16  C   LIG    1       -0.668  -0.611   1.262  0.00  0.00    +0.038 C 
BRANCH  16  21
ATOM     17  C   LIG    1       -4.322   0.511   1.351  0.00  0.00    +0.158 A 
ATOM     18  C   LIG    1       -4.994  -0.716   1.274  0.00  0.00    +0.158 A 
ATOM     19  C   LIG    1       -4.264  -1.903   1.196  0.00  0.00    +0.049 A 
ATOM     20  C   LIG    1       -2.869  -1.871   1.194  0.00  0.00    +0.007 A 
ATOM     21  C   LIG    1       -2.193  -0.649   1.268  0.00  0.00    -0.043 A 
ATOM     22  C   LIG    1       -2.926   0.540   1.349  0.00  0.00    +0.052 A 
BRANCH  17  23
ATOM     23  O   LIG    1       -5.016   1.693   1.429  0.00  0.00    -0.503 OA
ATOM     24  H   LIG    1       -4.445   2.462   1.477  0.00  0.00    +0.292 HD
ENDBRANCH  17  23
BRANCH  18  25
ATOM     25  O   LIG    1       -6.364  -0.771   1.272  0.00  0.00    -0.503 OA
ATOM     26  H   LIG    1       -6.766   0.100   1.328  0.00  0.00    +0.292 HD
ENDBRANCH  18  25
ENDBRANCH  16  21
ENDBRANCH   1  16
TORSDOF 9
