REMARK  Name = DB00372
REMARK                            x       y       z     vdW  Elec       q    Type
REMARK                         _______ _______ _______ _____ _____    ______ ____
ROOT
ATOM      1  S   LIG    1       -2.888   0.006  -1.278  0.00  0.00    -0.086 S 
ATOM      2  C   LIG    1       -2.073  -1.438  -0.697  0.00  0.00    +0.034 A 
ATOM      3  C   LIG    1       -2.820  -2.615  -0.600  0.00  0.00    +0.017 A 
ATOM      4  C   LIG    1       -2.226  -3.795  -0.167  0.00  0.00    +0.001 A 
ATOM      5  C   LIG    1       -0.878  -3.803   0.165  0.00  0.00    +0.002 A 
ATOM      6  C   LIG    1       -0.125  -2.635   0.050  0.00  0.00    +0.024 A 
ATOM      7  C   LIG    1       -0.686  -1.433  -0.426  0.00  0.00    +0.048 A 
ATOM      8  N   LIG    1        0.044  -0.223  -0.465  0.00  0.00    -0.298 N 
ATOM      9  C   LIG    1       -0.569   1.017  -0.166  0.00  0.00    +0.049 A 
ATOM     10  C   LIG    1        0.100   2.033   0.548  0.00  0.00    +0.039 A 
ATOM     11  C   LIG    1       -0.537   3.217   0.924  0.00  0.00    +0.010 A 
ATOM     12  C   LIG    1       -1.876   3.409   0.600  0.00  0.00    +0.016 A 
ATOM     13  C   LIG    1       -2.575   2.410  -0.070  0.00  0.00    +0.018 A 
ATOM     14  C   LIG    1       -1.945   1.213  -0.416  0.00  0.00    +0.034 A 
ENDROOT
BRANCH  11  15
ATOM     15  S   LIG    1        0.323   4.495   1.803  0.00  0.00    -0.125 S 
BRANCH  15  16
ATOM     16  C   LIG    1        1.913   3.841   2.394  0.00  0.00    +0.071 C 
ATOM     17  C   LIG    1        2.666   4.795   3.326  0.00  0.00    +0.015 C 
ENDBRANCH  15  16
ENDBRANCH  11  15
BRANCH   8  18
ATOM     18  C   LIG    1        1.521  -0.280  -0.455  0.00  0.00    +0.112 C 
BRANCH  18  19
ATOM     19  C   LIG    1        2.158  -0.374   0.958  0.00  0.00    +0.035 C 
BRANCH  19  20
ATOM     20  C   LIG    1        3.548   0.289   1.059  0.00  0.00    +0.086 C 
BRANCH  20  21
ATOM     21  N   LIG    1        3.925   0.602   2.441  0.00  0.00    -0.300 NA
ATOM     22  C   LIG    1        5.154   1.406   2.452  0.00  0.00    +0.100 C 
ATOM     23  C   LIG    1        5.534   1.787   3.904  0.00  0.00    +0.099 C 
ATOM     24  N   LIG    1        5.752   0.575   4.700  0.00  0.00    -0.303 NA
ATOM     25  C   LIG    1        6.124   0.928   6.065  0.00  0.00    +0.105 C 
ATOM     26  C   LIG    1        4.523  -0.227   4.699  0.00  0.00    +0.099 C 
ATOM     27  C   LIG    1        4.138  -0.609   3.249  0.00  0.00    +0.100 C 
ENDBRANCH  20  21
ENDBRANCH  19  20
ENDBRANCH  18  19
ENDBRANCH   8  18
TORSDOF 6
