REMARK  Name = DB00350
REMARK                            x       y       z     vdW  Elec       q    Type
REMARK                         _______ _______ _______ _____ _____    ______ ____
ROOT
ATOM      1  C   LIG    1       -0.154   0.296   0.024  0.00  0.00    +0.115 C 
ATOM      2  N   LIG    1       -0.893   1.167   0.771  0.00  0.00    -0.260 NA
ATOM      3  H   LIG    1       -0.704   2.104   0.414  0.00  0.00    +0.127 HD
ATOM      4  C   LIG    1       -2.239   1.019   0.803  0.00  0.00    +0.199 C 
ATOM      5  N   LIG    1       -2.892   0.031   0.131  0.00  0.00    -0.129 NA
ATOM      6  C   LIG    1       -2.184  -0.867  -0.615  0.00  0.00    +0.138 C 
ATOM      7  C   LIG    1       -0.789  -0.748  -0.674  0.00  0.00    +0.077 C 
ENDROOT
BRANCH   1   8
ATOM      8  N   LIG    1        1.240   0.459   0.045  0.00  0.00    -0.282 NA
ATOM      9  C   LIG    1        1.857   1.709   0.552  0.00  0.00    +0.086 C 
ATOM     10  C   LIG    1        3.342   1.614   0.953  0.00  0.00    +0.015 C 
ATOM     11  C   LIG    1        4.200   1.009  -0.154  0.00  0.00    +0.002 C 
ATOM     12  C   LIG    1        3.609  -0.347  -0.529  0.00  0.00    +0.015 C 
ATOM     13  C   LIG    1        2.116  -0.260  -0.909  0.00  0.00    +0.086 C 
ENDBRANCH   1   8
BRANCH   6  14
ATOM     14  N   LIG    1       -2.813  -1.923  -1.333  0.00  0.00    -0.308 NA
ATOM     15  H   LIG    1       -3.818  -2.021  -1.298  0.00  0.00    +0.120 HD
ATOM     16  H   LIG    1       -2.260  -2.571  -1.874  0.00  0.00    +0.120 HD
ENDBRANCH   6  14
BRANCH   4  17
ATOM     17  N   LIG    1       -2.893   1.990   1.605  0.00  0.00    -0.295 NA
ATOM     18  H   LIG    1       -3.898   1.968   1.700  0.00  0.00    +0.121 HD
ATOM     19  H   LIG    1       -2.353   2.699   2.080  0.00  0.00    +0.121 HD
ENDBRANCH   4  17
BRANCH   5  20
ATOM     20  O   LIG    1       -4.157  -0.053   0.203  0.00  0.00    -0.307 OA
ATOM     21  H   LIG    1       -4.461  -0.805  -0.329  0.00  0.00    +0.237 HD
ENDBRANCH   5  20
TORSDOF 4
