REMARK  Name = DB00718
REMARK                            x       y       z     vdW  Elec       q    Type
REMARK                         _______ _______ _______ _____ _____    ______ ____
ROOT
ATOM      1  P   LIG    1        0.248  -0.508  -0.387  0.00  0.00    +0.363 P 
ATOM      2  O   LIG    1       -0.296   0.717  -1.037  0.00  0.00    -0.256 OA
ENDROOT
BRANCH   1   3
ATOM      3  C   LIG    1        2.075  -0.555  -0.099  0.00  0.00    +0.286 C 
BRANCH   3   4
ATOM      4  O   LIG    1        2.406   0.151   1.095  0.00  0.00    -0.366 OA
BRANCH   4   5
ATOM      5  C   LIG    1        2.224   1.563   1.041  0.00  0.00    +0.182 C 
BRANCH   5   6
ATOM      6  C   LIG    1        2.980   2.237   2.197  0.00  0.00    +0.153 C 
BRANCH   6   7
ATOM      7  N   LIG    1        4.437   2.136   2.014  0.00  0.00    -0.313 N 
ATOM      8  C   LIG    1        5.210   2.991   1.316  0.00  0.00    +0.201 A 
ATOM      9  N   LIG    1        6.473   2.645   1.299  0.00  0.00    -0.231 NA
ATOM     10  C   LIG    1        6.522   1.512   2.021  0.00  0.00    +0.147 A 
ATOM     11  C   LIG    1        7.601   0.663   2.362  0.00  0.00    +0.147 A 
ATOM     12  N   LIG    1        7.343  -0.434   3.125  0.00  0.00    -0.219 NA
ATOM     13  C   LIG    1        6.076  -0.647   3.509  0.00  0.00    +0.225 A 
ATOM     14  N   LIG    1        4.975   0.077   3.248  0.00  0.00    -0.216 NA
ATOM     15  C   LIG    1        5.266   1.160   2.487  0.00  0.00    +0.165 A 
BRANCH  11  16
ATOM     16  N   LIG    1        8.913   0.900   1.955  0.00  0.00    -0.341 N 
ATOM     17  H   LIG    1        9.639   0.256   2.233  0.00  0.00    +0.144 HD
ATOM     18  H   LIG    1        9.118   1.708   1.387  0.00  0.00    +0.144 HD
ENDBRANCH  11  16
ENDBRANCH   6   7
ENDBRANCH   5   6
ENDBRANCH   4   5
ENDBRANCH   3   4
ENDBRANCH   1   3
BRANCH   1  19
ATOM     19  O   LIG    1       -0.002  -1.888  -1.223  0.00  0.00    -0.268 OA
BRANCH  19  20
ATOM     20  C   LIG    1       -1.306  -2.266  -1.635  0.00  0.00    +0.407 C 
BRANCH  20  21
ATOM     21  O   LIG    1       -1.887  -1.302  -2.503  0.00  0.00    -0.437 OA
BRANCH  21  22
ATOM     22  C   LIG    1       -3.153  -1.449  -2.957  0.00  0.00    +0.314 C 
ATOM     23  O   LIG    1       -3.892  -2.401  -2.688  0.00  0.00    -0.250 OA
BRANCH  22  24
ATOM     24  C   LIG    1       -3.607  -0.276  -3.870  0.00  0.00    +0.059 C 
ATOM     25  C   LIG    1       -2.666  -0.173  -5.096  0.00  0.00    +0.022 C 
ATOM     26  C   LIG    1       -5.055  -0.501  -4.380  0.00  0.00    +0.022 C 
ATOM     27  C   LIG    1       -3.573   1.048  -3.065  0.00  0.00    +0.022 C 
ENDBRANCH  22  24
ENDBRANCH  21  22
ENDBRANCH  20  21
ENDBRANCH  19  20
ENDBRANCH   1  19
BRANCH   1  28
ATOM     28  O   LIG    1       -0.398  -0.817   1.083  0.00  0.00    -0.268 OA
BRANCH  28  29
ATOM     29  C   LIG    1       -0.274  -2.078   1.723  0.00  0.00    +0.407 C 
BRANCH  29  30
ATOM     30  O   LIG    1        1.035  -2.299   2.230  0.00  0.00    -0.437 OA
BRANCH  30  31
ATOM     31  C   LIG    1        1.362  -3.491   2.788  0.00  0.00    +0.314 C 
ATOM     32  O   LIG    1        0.606  -4.465   2.857  0.00  0.00    -0.250 OA
BRANCH  31  33
ATOM     33  C   LIG    1        2.807  -3.522   3.358  0.00  0.00    +0.059 C 
ATOM     34  C   LIG    1        2.918  -2.505   4.520  0.00  0.00    +0.022 C 
ATOM     35  C   LIG    1        3.147  -4.932   3.912  0.00  0.00    +0.022 C 
ATOM     36  C   LIG    1        3.826  -3.180   2.243  0.00  0.00    +0.022 C 
ENDBRANCH  31  33
ENDBRANCH  30  31
ENDBRANCH  29  30
ENDBRANCH  28  29
ENDBRANCH   1  28
TORSDOF 16
