REMARK  Name = DB00583
REMARK                            x       y       z     vdW  Elec       q    Type
REMARK                         _______ _______ _______ _____ _____    ______ ____
ROOT
ATOM      1  C   LIG    1        2.052  -1.535   0.048  0.00  0.00    +0.109 C 
ENDROOT
BRANCH   1   2
ATOM      2  O   LIG    1        1.578  -2.388   1.074  0.00  0.00    -0.393 OA
ATOM      3  H   LIG    1        1.987  -2.126   1.903  0.00  0.00    +0.210 HD
ENDBRANCH   1   2
BRANCH   1   4
ATOM      4  C   LIG    1        3.607  -1.468   0.092  0.00  0.00    +0.149 C 
BRANCH   4   5
ATOM      5  C   LIG    1        4.340  -2.818  -0.105  0.00  0.00    +0.307 C 
ATOM      6  O   LIG    1        3.843  -3.675  -0.872  0.00  0.00    -0.251 OA
BRANCH   5   7
ATOM      7  O   LIG    1        5.431  -2.957   0.493  0.00  0.00    -0.481 OA
ATOM      8  H   LIG    1        5.936  -2.203   0.726  0.00  0.00    +0.295 HD
ENDBRANCH   5   7
ENDBRANCH   4   5
ENDBRANCH   1   4
BRANCH   1   9
ATOM      9  C   LIG    1        1.442  -0.109   0.160  0.00  0.00    -0.044 C 
BRANCH   9  10
ATOM     10  N   LIG    1       -0.112  -0.004   0.024  0.00  0.00    +0.376 N 
ATOM     11  C   LIG    1       -0.859  -0.544   1.269  0.00  0.00    -0.093 C 
ATOM     12  C   LIG    1       -0.632  -0.731  -1.240  0.00  0.00    -0.093 C 
ATOM     13  C   LIG    1       -0.466   1.499  -0.108  0.00  0.00    -0.093 C 
ENDBRANCH   9  10
ENDBRANCH   1   9
TORSDOF 6
