REMARK  Name = DB00308
REMARK                            x       y       z     vdW  Elec       q    Type
REMARK                         _______ _______ _______ _____ _____    ______ ____
ROOT
ATOM      1  C   LIG    1       -0.384   3.806   1.233  0.00  0.00    +0.145 C 
ENDROOT
BRANCH   1   2
ATOM      2  C   LIG    1        0.145   4.683   2.368  0.00  0.00    -0.019 A 
ATOM      3  C   LIG    1        1.437   5.218   2.310  0.00  0.00    +0.008 A 
ATOM      4  C   LIG    1        1.916   6.005   3.354  0.00  0.00    +0.025 A 
ATOM      5  C   LIG    1        1.109   6.252   4.467  0.00  0.00    +0.048 A 
ATOM      6  C   LIG    1       -0.182   5.726   4.524  0.00  0.00    +0.025 A 
ATOM      7  C   LIG    1       -0.661   4.941   3.479  0.00  0.00    +0.008 A 
BRANCH   5   8
ATOM      8  N   LIG    1        1.563   7.043   5.528  0.00  0.00    -0.221 N 
ATOM      9  H   LIG    1        0.797   7.286   6.140  0.00  0.00    +0.173 HD
BRANCH   8  10
ATOM     10  S   LIG    1        2.950   6.492   6.485  0.00  0.00    +0.040 S 
ATOM     11  O   LIG    1        4.090   6.339   5.575  0.00  0.00    -0.155 OA
ATOM     12  O   LIG    1        2.480   5.362   7.295  0.00  0.00    -0.155 OA
ATOM     13  C   LIG    1        3.261   7.970   7.612  0.00  0.00    +0.218 C 
ENDBRANCH   8  10
ENDBRANCH   5   8
ENDBRANCH   1   2
BRANCH   1  14
ATOM     14  O   LIG    1       -0.192   4.403  -0.038  0.00  0.00    -0.387 OA
ATOM     15  H   LIG    1       -0.717   5.206  -0.079  0.00  0.00    +0.210 HD
ENDBRANCH   1  14
BRANCH   1  16
ATOM     16  C   LIG    1        0.265   2.403   1.251  0.00  0.00    +0.037 C 
BRANCH  16  17
ATOM     17  C   LIG    1       -0.334   1.408   0.232  0.00  0.00    +0.018 C 
BRANCH  17  18
ATOM     18  C   LIG    1        0.226  -0.026   0.349  0.00  0.00    +0.084 C 
BRANCH  18  19
ATOM     19  N   LIG    1        1.677  -0.075   0.109  0.00  0.00    -0.303 NA
BRANCH  19  20
ATOM     20  C   LIG    1        2.060  -0.519  -1.239  0.00  0.00    +0.081 C 
ATOM     21  C   LIG    1        1.562   0.405  -2.362  0.00  0.00    +0.020 C 
ENDBRANCH  19  20
BRANCH  19  22
ATOM     22  C   LIG    1        2.386  -0.823   1.155  0.00  0.00    +0.084 C 
BRANCH  22  23
ATOM     23  C   LIG    1        2.096  -2.345   1.192  0.00  0.00    +0.015 C 
BRANCH  23  24
ATOM     24  C   LIG    1        2.483  -3.025   2.519  0.00  0.00    +0.001 C 
BRANCH  24  25
ATOM     25  C   LIG    1        1.524  -2.699   3.680  0.00  0.00    +0.000 C 
BRANCH  25  26
ATOM     26  C   LIG    1        1.915  -3.393   4.996  0.00  0.00    -0.000 C 
BRANCH  26  27
ATOM     27  C   LIG    1        0.945  -3.080   6.149  0.00  0.00    -0.003 C 
ATOM     28  C   LIG    1        1.337  -3.763   7.466  0.00  0.00    +0.004 C 
ENDBRANCH  26  27
ENDBRANCH  25  26
ENDBRANCH  24  25
ENDBRANCH  23  24
ENDBRANCH  22  23
ENDBRANCH  19  22
ENDBRANCH  18  19
ENDBRANCH  17  18
ENDBRANCH  16  17
ENDBRANCH   1  16
TORSDOF 15
