REMARK  Name = DB00292
REMARK                            x       y       z     vdW  Elec       q    Type
REMARK                         _______ _______ _______ _____ _____    ______ ____
ROOT
ATOM      1  C   LIG    1        0.223  -0.102  -0.066  0.00  0.00    +0.147 A 
ATOM      2  C   LIG    1       -0.708  -1.134  -0.150  0.00  0.00    +0.145 A 
ATOM      3  N   LIG    1       -1.934  -0.690  -0.332  0.00  0.00    -0.243 NA
ATOM      4  C   LIG    1       -1.807   0.613  -0.362  0.00  0.00    +0.200 A 
ATOM      5  N   LIG    1       -0.515   1.070  -0.186  0.00  0.00    -0.318 N 
ENDROOT
BRANCH   1   6
ATOM      6  C   LIG    1        1.685  -0.127   0.091  0.00  0.00    +0.357 C 
ATOM      7  O   LIG    1        2.425   0.858   0.060  0.00  0.00    -0.243 OA
BRANCH   6   8
ATOM      8  O   LIG    1        2.106  -1.401   0.271  0.00  0.00    -0.460 OA
BRANCH   8   9
ATOM      9  C   LIG    1        3.487  -1.695   0.443  0.00  0.00    +0.229 C 
ATOM     10  C   LIG    1        3.664  -3.205   0.623  0.00  0.00    +0.048 C 
ENDBRANCH   8   9
ENDBRANCH   6   8
ENDBRANCH   1   6
BRANCH   5  11
ATOM     11  C   LIG    1       -0.069   2.482  -0.182  0.00  0.00    +0.116 C 
ATOM     12  C   LIG    1       -1.185   3.437   0.300  0.00  0.00    +0.036 C 
BRANCH  11  13
ATOM     13  C   LIG    1        0.545   2.959  -1.504  0.00  0.00    -0.025 A 
ATOM     14  C   LIG    1        1.473   4.005  -1.478  0.00  0.00    +0.005 A 
ATOM     15  C   LIG    1        2.056   4.458  -2.659  0.00  0.00    +0.000 A 
ATOM     16  C   LIG    1        1.711   3.864  -3.870  0.00  0.00    +0.000 A 
ATOM     17  C   LIG    1        0.787   2.822  -3.911  0.00  0.00    +0.000 A 
ATOM     18  C   LIG    1        0.204   2.370  -2.730  0.00  0.00    +0.005 A 
ENDBRANCH  11  13
ENDBRANCH   5  11
TORSDOF 5
