REMARK  Name = DB00343
REMARK                            x       y       z     vdW  Elec       q    Type
REMARK                         _______ _______ _______ _____ _____    ______ ____
ROOT
ATOM      1  C   LIG    1       -2.071   1.103  -0.187  0.00  0.00    +0.279 C 
ATOM      2  C   LIG    1       -2.709   0.805   1.212  0.00  0.00    +0.131 C 
ATOM      3  S   LIG    1       -1.958  -0.616   2.090  0.00  0.00    -0.111 S 
ATOM      4  C   LIG    1       -1.600  -1.727   0.751  0.00  0.00    +0.030 A 
ATOM      5  C   LIG    1       -2.251  -2.964   0.734  0.00  0.00    +0.016 A 
ATOM      6  C   LIG    1       -2.025  -3.874  -0.294  0.00  0.00    +0.001 A 
ATOM      7  C   LIG    1       -1.141  -3.555  -1.318  0.00  0.00    +0.002 A 
ATOM      8  C   LIG    1       -0.476  -2.331  -1.304  0.00  0.00    +0.024 A 
ATOM      9  C   LIG    1       -0.671  -1.400  -0.273  0.00  0.00    +0.050 A 
ATOM     10  N   LIG    1        0.032  -0.167  -0.291  0.00  0.00    -0.266 N 
ATOM     11  C   LIG    1       -0.519   1.084  -0.167  0.00  0.00    +0.262 C 
ATOM     12  O   LIG    1        0.127   2.125  -0.007  0.00  0.00    -0.271 OA
ENDROOT
BRANCH   2  13
ATOM     13  C   LIG    1       -2.827   2.017   2.146  0.00  0.00    -0.030 A 
ATOM     14  C   LIG    1       -4.081   2.582   2.395  0.00  0.00    +0.008 A 
ATOM     15  C   LIG    1       -4.197   3.695   3.223  0.00  0.00    +0.046 A 
ATOM     16  C   LIG    1       -3.067   4.261   3.813  0.00  0.00    +0.120 A 
ATOM     17  C   LIG    1       -1.808   3.690   3.567  0.00  0.00    +0.046 A 
ATOM     18  C   LIG    1       -1.692   2.576   2.741  0.00  0.00    +0.008 A 
BRANCH  16  19
ATOM     19  O   LIG    1       -3.278   5.367   4.613  0.00  0.00    -0.495 OA
ATOM     20  C   LIG    1       -2.161   6.004   5.224  0.00  0.00    +0.277 C 
ENDBRANCH  16  19
ENDBRANCH   2  13
BRANCH   1  21
ATOM     21  O   LIG    1       -2.477   2.380  -0.707  0.00  0.00    -0.451 OA
BRANCH  21  22
ATOM     22  C   LIG    1       -3.720   2.608  -1.196  0.00  0.00    +0.305 C 
ATOM     23  C   LIG    1       -3.900   4.046  -1.663  0.00  0.00    +0.136 C 
ATOM     24  O   LIG    1       -4.636   1.788  -1.271  0.00  0.00    -0.251 OA
ENDBRANCH  21  22
ENDBRANCH   1  21
BRANCH  10  25
ATOM     25  C   LIG    1        1.495  -0.243  -0.107  0.00  0.00    +0.129 C 
BRANCH  25  26
ATOM     26  C   LIG    1        1.921  -0.282   1.379  0.00  0.00    +0.103 C 
BRANCH  26  27
ATOM     27  N   LIG    1        3.377  -0.305   1.546  0.00  0.00    -0.307 NA
ATOM     28  C   LIG    1        3.971  -1.553   1.068  0.00  0.00    +0.104 C 
ATOM     29  C   LIG    1        3.713  -0.128   2.956  0.00  0.00    +0.104 C 
ENDBRANCH  26  27
ENDBRANCH  25  26
ENDBRANCH  10  25
TORSDOF 7
