REMARK  Name = DB00257
REMARK                            x       y       z     vdW  Elec       q    Type
REMARK                         _______ _______ _______ _____ _____    ______ ____
ROOT
ATOM      1  C   LIG    1        1.456   0.014  -0.013  0.00  0.00    +0.123 C 
ENDROOT
BRANCH   1   8
ATOM      2 CL   LIG    1        1.089  -0.021   3.224  0.00  0.00    -0.083 Cl
ATOM      3  C   LIG    1        1.769  -1.290   2.262  0.00  0.00    +0.047 A 
ATOM      4  C   LIG    1        2.169  -2.431   2.963  0.00  0.00    +0.020 A 
ATOM      5  C   LIG    1        2.666  -3.542   2.293  0.00  0.00    +0.001 A 
ATOM      6  C   LIG    1        2.749  -3.527   0.908  0.00  0.00    +0.000 A 
ATOM      7  C   LIG    1        2.357  -2.394   0.201  0.00  0.00    +0.008 A 
ATOM      8  C   LIG    1        1.896  -1.229   0.848  0.00  0.00    +0.006 A 
ENDBRANCH   1   8
BRANCH   1   9
ATOM      9  C   LIG    1        1.928   1.390   0.555  0.00  0.00    -0.013 A 
ATOM     10  C   LIG    1        1.157   2.552   0.383  0.00  0.00    +0.006 A 
ATOM     11  C   LIG    1        1.561   3.767   0.928  0.00  0.00    +0.000 A 
ATOM     12  C   LIG    1        2.743   3.836   1.658  0.00  0.00    +0.000 A 
ATOM     13  C   LIG    1        3.524   2.700   1.845  0.00  0.00    +0.000 A 
ATOM     14  C   LIG    1        3.117   1.486   1.299  0.00  0.00    +0.006 A 
ENDBRANCH   1   9
BRANCH   1  15
ATOM     15  C   LIG    1        2.100   0.071  -1.442  0.00  0.00    -0.013 A 
ATOM     16  C   LIG    1        1.349   0.382  -2.590  0.00  0.00    +0.006 A 
ATOM     17  C   LIG    1        1.939   0.404  -3.850  0.00  0.00    +0.000 A 
ATOM     18  C   LIG    1        3.292   0.115  -3.985  0.00  0.00    +0.000 A 
ATOM     19  C   LIG    1        4.061  -0.190  -2.867  0.00  0.00    +0.000 A 
ATOM     20  C   LIG    1        3.469  -0.211  -1.608  0.00  0.00    +0.006 A 
ENDBRANCH   1  15
BRANCH   1  21
ATOM     21  N   LIG    1       -0.031  -0.144  -0.084  0.00  0.00    -0.319 N 
ATOM     22  C   LIG    1       -0.731  -1.087  -0.816  0.00  0.00    +0.200 A 
ATOM     23  N   LIG    1       -2.024  -1.103  -0.598  0.00  0.00    -0.244 NA
ATOM     24  C   LIG    1       -2.204  -0.212   0.354  0.00  0.00    +0.130 A 
ATOM     25  C   LIG    1       -1.010   0.371   0.740  0.00  0.00    +0.108 A 
ENDBRANCH   1  21
TORSDOF 4
