REMARK  Name = DB00826
REMARK                            x       y       z     vdW  Elec       q    Type
REMARK                         _______ _______ _______ _____ _____    ______ ____
ROOT
ATOM      1  C   LIG    1        1.119  -4.302  -0.815  0.00  0.00    +0.172 C 
ATOM      2  C   LIG    1        1.581  -5.104   0.422  0.00  0.00    +0.096 C 
ATOM      3  C   LIG    1        1.428  -4.394   1.793  0.00  0.00    +0.122 C 
ATOM      4  C   LIG    1        2.044  -5.220   2.943  0.00  0.00    +0.066 C 
ATOM      5  C   LIG    1        1.955  -4.529   4.316  0.00  0.00    +0.154 C 
ATOM      6  C   LIG    1        1.855  -5.357   5.557  0.00  0.00    +0.171 C 
ATOM      7  C   LIG    1        2.456  -4.787   6.822  0.00  0.00    +0.014 C 
ATOM      8  C   LIG    1        3.051  -5.516   7.788  0.00  0.00    +0.090 C 
ATOM      9  C   LIG    1        3.694  -4.916   8.954  0.00  0.00    +0.332 C 
ATOM     10  O   LIG    1        4.601  -5.486   9.562  0.00  0.00    -0.246 OA
ATOM     11  O   LIG    1        3.221  -3.678   9.259  0.00  0.00    -0.458 OA
ATOM     12  C   LIG    1        3.911  -2.791  10.141  0.00  0.00    +0.177 C 
ATOM     13  C   LIG    1        2.885  -1.771  10.663  0.00  0.00    +0.052 C 
ATOM     14  C   LIG    1        5.097  -2.118   9.402  0.00  0.00    +0.071 C 
ATOM     15  C   LIG    1        4.747  -1.565   8.026  0.00  0.00    -0.023 C 
ATOM     16  C   LIG    1        5.123  -2.129   6.862  0.00  0.00    -0.004 C 
ATOM     17  C   LIG    1        4.770  -1.641   5.540  0.00  0.00    -0.000 C 
ATOM     18  C   LIG    1        4.608  -0.343   5.213  0.00  0.00    -0.000 C 
ATOM     19  C   LIG    1        4.223   0.135   3.896  0.00  0.00    -0.000 C 
ATOM     20  C   LIG    1        3.329  -0.463   3.084  0.00  0.00    -0.000 C 
ATOM     21  C   LIG    1        3.010   0.051   1.766  0.00  0.00    -0.002 C 
ATOM     22  C   LIG    1        2.087  -0.494   0.955  0.00  0.00    +0.004 C 
ATOM     23  C   LIG    1        1.705   0.066  -0.409  0.00  0.00    +0.147 C 
ATOM     24  C   LIG    1        2.184  -0.796  -1.599  0.00  0.00    +0.068 C 
ATOM     25  C   LIG    1        1.425  -2.132  -1.842  0.00  0.00    +0.141 C 
ATOM     26  C   LIG    1        1.751  -2.763  -3.233  0.00  0.00    +0.155 C 
ATOM     27  C   LIG    1        1.193  -4.204  -3.359  0.00  0.00    +0.136 C 
ATOM     28  O   LIG    1        0.752  -4.663   5.027  0.00  0.00    -0.364 OA
ATOM     29  C   LIG    1        1.522  -5.035  -2.107  0.00  0.00    +0.097 C 
ATOM     30  O   LIG    1        1.750  -3.041  -0.773  0.00  0.00    -0.344 OA
ENDROOT
BRANCH   1  31
ATOM     31  O   LIG    1       -0.257  -4.221  -0.779  0.00  0.00    -0.364 OA
ATOM     32  H   LIG    1       -0.605  -5.116  -0.793  0.00  0.00    +0.213 HD
ENDBRANCH   1  31
BRANCH   3  33
ATOM     33  O   LIG    1        0.065  -4.142   2.080  0.00  0.00    -0.392 OA
ATOM     34  H   LIG    1       -0.311  -3.641   1.351  0.00  0.00    +0.210 HD
ENDBRANCH   3  33
BRANCH  26  35
ATOM     35  C   LIG    1        1.158  -1.892  -4.368  0.00  0.00    +0.313 C 
ATOM     36  O   LIG    1       -0.042  -1.639  -4.471  0.00  0.00    -0.251 OA
BRANCH  35  37
ATOM     37  O   LIG    1        2.119  -1.438  -5.224  0.00  0.00    -0.480 OA
ATOM     38  H   LIG    1        1.753  -0.897  -5.927  0.00  0.00    +0.295 HD
ENDBRANCH  35  37
ENDBRANCH  26  35
BRANCH  27  39
ATOM     39  O   LIG    1        1.669  -4.876  -4.511  0.00  0.00    -0.391 OA
ATOM     40  H   LIG    1        0.914  -5.188  -5.015  0.00  0.00    +0.210 HD
ENDBRANCH  27  39
BRANCH  23  41
ATOM     41  O   LIG    1        0.295   0.262  -0.541  0.00  0.00    -0.341 OA
BRANCH  41  42
ATOM     42  C   LIG    1       -0.303   1.222   0.283  0.00  0.00    +0.281 C 
ATOM     43  O   LIG    1       -0.425   0.756   1.605  0.00  0.00    -0.343 OA
ATOM     44  C   LIG    1       -0.915   1.750   2.513  0.00  0.00    +0.148 C 
ATOM     45  C   LIG    1       -0.864   1.145   3.926  0.00  0.00    +0.041 C 
ATOM     46  C   LIG    1       -2.340   2.207   2.096  0.00  0.00    +0.162 C 
ATOM     47  C   LIG    1       -2.375   2.596   0.596  0.00  0.00    +0.116 C 
ATOM     48  C   LIG    1       -1.710   1.497  -0.269  0.00  0.00    +0.189 C 
BRANCH  47  49
ATOM     49  N   LIG    1       -3.676   3.017   0.098  0.00  0.00    -0.323 NA
ATOM     50  H   LIG    1       -3.585   3.377  -0.841  0.00  0.00    +0.119 HD
ATOM     51  H   LIG    1       -4.031   3.772   0.667  0.00  0.00    +0.119 HD
ENDBRANCH  47  49
BRANCH  46  52
ATOM     52  O   LIG    1       -2.807   3.265   2.916  0.00  0.00    -0.388 OA
ATOM     53  H   LIG    1       -2.263   4.039   2.756  0.00  0.00    +0.210 HD
ENDBRANCH  46  52
BRANCH  48  54
ATOM     54  O   LIG    1       -2.492   0.314  -0.329  0.00  0.00    -0.385 OA
ATOM     55  H   LIG    1       -3.418   0.566  -0.333  0.00  0.00    +0.210 HD
ENDBRANCH  48  54
ENDBRANCH  41  42
ENDBRANCH  23  41
TORSDOF 10
