REMARK  Name = DB00716
REMARK                            x       y       z     vdW  Elec       q    Type
REMARK                         _______ _______ _______ _____ _____    ______ ____
ROOT
ATOM      1  O   LIG    1        0.091  -2.461  -0.026  0.00  0.00    -0.448 OA
ATOM      2  C   LIG    1       -0.594  -3.631  -0.179  0.00  0.00    +0.215 A 
ATOM      3  C   LIG    1       -1.939  -3.671  -0.335  0.00  0.00    +0.105 A 
ATOM      4  C   LIG    1       -2.762  -2.469  -0.350  0.00  0.00    +0.193 A 
ATOM      5  C   LIG    1       -1.972  -1.206  -0.193  0.00  0.00    +0.065 A 
ATOM      6  C   LIG    1       -2.609   0.034  -0.167  0.00  0.00    +0.029 A 
ATOM      7  C   LIG    1       -1.891   1.224  -0.016  0.00  0.00    +0.046 A 
ATOM      8  C   LIG    1       -2.660   2.517   0.104  0.00  0.00    +0.190 A 
ATOM      9  C   LIG    1       -1.819   3.624   0.553  0.00  0.00    +0.084 A 
ATOM     10  C   LIG    1       -0.465   3.554   0.559  0.00  0.00    +0.131 A 
ATOM     11  N   LIG    1        0.204   2.437   0.040  0.00  0.00    -0.335 N 
ATOM     12  O   LIG    1       -3.876   2.603  -0.067  0.00  0.00    -0.287 OA
ATOM     13  C   LIG    1       -0.472   1.178   0.044  0.00  0.00    +0.060 A 
ATOM     14  C   LIG    1        0.188  -0.077   0.087  0.00  0.00    +0.020 A 
ATOM     15  O   LIG    1       -3.986  -2.479  -0.477  0.00  0.00    -0.287 OA
ATOM     16  C   LIG    1       -0.578  -1.249  -0.046  0.00  0.00    +0.145 A 
ENDROOT
BRANCH   2  17
ATOM     17  C   LIG    1        0.202  -4.846  -0.165  0.00  0.00    +0.373 C 
ATOM     18  O   LIG    1       -0.252  -5.983  -0.295  0.00  0.00    -0.242 OA
BRANCH  17  19
ATOM     19  O   LIG    1        1.536  -4.601   0.009  0.00  0.00    -0.475 OA
ATOM     20  H   LIG    1        2.056  -5.407   0.017  0.00  0.00    +0.296 HD
ENDBRANCH  17  19
ENDBRANCH   2  17
BRANCH  10  21
ATOM     21  C   LIG    1        0.349   4.601   1.166  0.00  0.00    +0.354 C 
ATOM     22  O   LIG    1        1.404   4.392   1.764  0.00  0.00    -0.243 OA
BRANCH  21  23
ATOM     23  O   LIG    1       -0.165   5.854   0.986  0.00  0.00    -0.476 OA
ATOM     24  H   LIG    1        0.385   6.534   1.382  0.00  0.00    +0.295 HD
ENDBRANCH  21  23
ENDBRANCH  10  21
BRANCH  11  25
ATOM     25  C   LIG    1        1.314   2.681  -0.908  0.00  0.00    +0.119 C 
ATOM     26  C   LIG    1        1.082   2.149  -2.336  0.00  0.00    +0.027 C 
ENDBRANCH  11  25
BRANCH  14  27
ATOM     27  C   LIG    1        1.704  -0.208   0.330  0.00  0.00    +0.041 C 
BRANCH  27  28
ATOM     28  C   LIG    1        2.155   0.331   1.703  0.00  0.00    +0.001 C 
ATOM     29  C   LIG    1        3.663   0.174   1.938  0.00  0.00    +0.004 C 
ENDBRANCH  27  28
ENDBRANCH  14  27
TORSDOF 7
