REMARK  Name = DB00507
REMARK                            x       y       z     vdW  Elec       q    Type
REMARK                         _______ _______ _______ _____ _____    ______ ____
ROOT
ATOM      1  N   LIG    1        2.016  -1.147   0.030  0.00  0.00    -0.261 N 
ATOM      2  H   LIG    1        1.454  -1.837  -0.447  0.00  0.00    +0.157 HD
ATOM      3  C   LIG    1        1.382  -0.054   0.514  0.00  0.00    +0.253 C 
ATOM      4  O   LIG    1        1.936   0.886   1.087  0.00  0.00    -0.270 OA
ENDROOT
BRANCH   3   5
ATOM      5  C   LIG    1       -0.112  -0.029   0.282  0.00  0.00    +0.079 A 
ATOM      6  C   LIG    1       -0.866  -1.192   0.511  0.00  0.00    +0.017 A 
ATOM      7  C   LIG    1       -2.251  -1.190   0.357  0.00  0.00    +0.001 A 
ATOM      8  C   LIG    1       -2.908  -0.023  -0.020  0.00  0.00    +0.004 A 
ATOM      9  C   LIG    1       -2.179   1.141  -0.251  0.00  0.00    +0.047 A 
ATOM     10  C   LIG    1       -0.785   1.150  -0.121  0.00  0.00    +0.144 A 
BRANCH  10  11
ATOM     11  O   LIG    1       -0.142   2.346  -0.378  0.00  0.00    -0.425 OA
BRANCH  11  12
ATOM     12  C   LIG    1        0.554   2.506  -1.538  0.00  0.00    +0.309 C 
ATOM     13  C   LIG    1        1.216   3.875  -1.623  0.00  0.00    +0.136 C 
ATOM     14  O   LIG    1        0.673   1.683  -2.449  0.00  0.00    -0.251 OA
ENDBRANCH  11  12
ENDBRANCH  10  11
ENDBRANCH   3   5
BRANCH   1  19
ATOM     15  S   LIG    1        3.935  -2.892  -0.612  0.00  0.00    -0.028 S 
ATOM     16  C   LIG    1        5.555  -2.474  -0.102  0.00  0.00    +0.180 A 
ATOM     17  C   LIG    1        5.499  -1.247   0.564  0.00  0.00    +0.153 A 
ATOM     18  N   LIG    1        4.311  -0.685   0.671  0.00  0.00    -0.231 NA
ATOM     19  C   LIG    1        3.376  -1.417   0.107  0.00  0.00    +0.167 A 
BRANCH  16  20
ATOM     20  N   LIG    1        6.698  -3.296  -0.355  0.00  0.00    +0.014 N 
ATOM     21  O   LIG    1        7.780  -2.900   0.064  0.00  0.00    -0.129 OA
BRANCH  20  22
ATOM     22  O   LIG    1        6.536  -4.345  -0.971  0.00  0.00    -0.396 OA
ATOM     23  H   LIG    1        7.269  -4.901  -1.150  0.00  0.00    +0.329 HD
ENDBRANCH  20  22
ENDBRANCH  16  20
ENDBRANCH   1  19
TORSDOF 6
