REMARK  Name = DB00700
REMARK                            x       y       z     vdW  Elec       q    Type
REMARK                         _______ _______ _______ _____ _____    ______ ____
ROOT
ATOM      1  C   LIG    1        0.092  -2.997  -2.512  0.00  0.00    +0.153 C 
ATOM      2  C   LIG    1        0.014  -2.235  -3.861  0.00  0.00    +0.045 C 
ATOM      3  C   LIG    1       -0.706  -0.860  -3.794  0.00  0.00    +0.013 C 
ATOM      4  C   LIG    1       -2.240  -1.129  -3.647  0.00  0.00    +0.015 C 
ATOM      5  C   LIG    1       -0.430   0.149  -4.968  0.00  0.00    +0.120 C 
ATOM      6  C   LIG    1        0.979   0.149  -5.601  0.00  0.00    +0.060 C 
ATOM      7  C   LIG    1        0.909  -0.814  -6.769  0.00  0.00    +0.124 C 
ATOM      8  C   LIG    1       -0.557  -0.678  -7.138  0.00  0.00    +0.308 C 
ATOM      9  O   LIG    1       -1.108  -1.016  -8.182  0.00  0.00    -0.251 OA
ATOM     10  O   LIG    1       -1.236  -0.094  -6.127  0.00  0.00    -0.457 OA
ATOM     11  C   LIG    1       -0.833   1.509  -4.341  0.00  0.00    +0.049 C 
ATOM     12  C   LIG    1       -0.566   1.393  -2.830  0.00  0.00    +0.008 C 
ATOM     13  C   LIG    1       -0.120  -0.062  -2.605  0.00  0.00    +0.006 C 
ATOM     14  C   LIG    1       -0.457  -0.716  -1.238  0.00  0.00    +0.042 C 
ATOM     15  C   LIG    1        0.113  -0.009   0.023  0.00  0.00    +0.108 C 
ATOM     16  C   LIG    1       -0.391  -0.709   1.315  0.00  0.00    +0.046 C 
ATOM     17  C   LIG    1       -0.163  -2.232   1.317  0.00  0.00    -0.057 C 
ATOM     18  C   LIG    1       -0.656  -3.011   0.061  0.00  0.00    +0.021 C 
ATOM     19  C   LIG    1       -2.202  -3.093   0.132  0.00  0.00    +0.019 C 
ATOM     20  C   LIG    1       -0.103  -4.483   0.117  0.00  0.00    +0.022 C 
ATOM     21  C   LIG    1       -0.124  -5.146   1.507  0.00  0.00    +0.080 C 
ATOM     22  C   LIG    1        0.593  -4.270   2.538  0.00  0.00    +0.156 C 
ATOM     23  O   LIG    1        1.206  -4.745   3.491  0.00  0.00    -0.293 OA
ATOM     24  C   LIG    1        0.393  -2.837   2.394  0.00  0.00    +0.046 C 
ATOM     25  O   LIG    1        1.137  -2.603  -1.648  0.00  0.00    -0.364 OA
ATOM     26  C   LIG    1       -0.141  -2.239  -1.208  0.00  0.00    +0.109 C 
ENDROOT
BRANCH  15  27
ATOM     27  C   LIG    1        1.655   0.131  -0.000  0.00  0.00    +0.311 C 
ATOM     28  O   LIG    1        2.404  -0.714   0.498  0.00  0.00    -0.251 OA
BRANCH  27  29
ATOM     29  O   LIG    1        2.052   1.281  -0.584  0.00  0.00    -0.468 OA
ATOM     30  C   LIG    1        3.432   1.587  -0.715  0.00  0.00    +0.280 C 
ENDBRANCH  27  29
ENDBRANCH  15  27
TORSDOF 2
