REMARK  Name = DB00246
REMARK                            x       y       z     vdW  Elec       q    Type
REMARK                         _______ _______ _______ _____ _____    ______ ____
ROOT
ATOM      1  N   LIG    1       -0.200  -0.234   0.082  0.00  0.00    -0.299 NA
ATOM      2  C   LIG    1       -0.760  -0.539   1.402  0.00  0.00    +0.103 C 
ATOM      3  C   LIG    1       -2.285  -0.766   1.290  0.00  0.00    +0.122 C 
ATOM      4  N   LIG    1       -3.000   0.396   0.734  0.00  0.00    -0.312 N 
ATOM      5  C   LIG    1       -2.360   0.805  -0.531  0.00  0.00    +0.122 C 
ATOM      6  C   LIG    1       -0.834   1.002  -0.391  0.00  0.00    +0.103 C 
ENDROOT
BRANCH   4   7
ATOM      7  C   LIG    1       -4.296   0.702   1.073  0.00  0.00    +0.138 A 
ATOM      8  C   LIG    1       -4.793   0.772   2.418  0.00  0.00    +0.031 A 
ATOM      9  C   LIG    1       -4.180   0.575   3.675  0.00  0.00    +0.012 A 
ATOM     10  C   LIG    1       -4.934   0.699   4.841  0.00  0.00    +0.001 A 
ATOM     11  C   LIG    1       -6.284   1.026   4.794  0.00  0.00    +0.001 A 
ATOM     12  C   LIG    1       -6.924   1.250   3.578  0.00  0.00    +0.017 A 
ATOM     13  C   LIG    1       -6.169   1.132   2.402  0.00  0.00    +0.041 A 
ATOM     14  S   LIG    1       -6.702   1.382   0.754  0.00  0.00    +0.014 S 
ATOM     15  N   LIG    1       -5.122   1.109   0.137  0.00  0.00    -0.194 NA
ENDBRANCH   4   7
BRANCH   1  16
ATOM     16  C   LIG    1        1.262  -0.101   0.144  0.00  0.00    +0.089 C 
BRANCH  16  17
ATOM     17  C   LIG    1        1.987  -0.606  -1.127  0.00  0.00    +0.052 C 
BRANCH  17  29
ATOM     18 CL   LIG    1       -0.219  -2.032  -2.843  0.00  0.00    -0.083 Cl
ATOM     19  C   LIG    1        0.564  -0.547  -3.268  0.00  0.00    +0.046 A 
ATOM     20  C   LIG    1        0.184   0.081  -4.457  0.00  0.00    +0.043 A 
ATOM     21  C   LIG    1        0.790   1.282  -4.816  0.00  0.00    +0.038 A 
ATOM     22  C   LIG    1        1.759   1.859  -4.022  0.00  0.00    -0.017 A 
ATOM     23  C   LIG    1        2.204   3.130  -4.676  0.00  0.00    +0.133 C 
ATOM     24  C   LIG    1        1.349   3.180  -5.945  0.00  0.00    +0.222 C 
ATOM     25  O   LIG    1        1.377   4.063  -6.799  0.00  0.00    -0.275 OA
ATOM     26  C   LIG    1        2.148   1.242  -2.834  0.00  0.00    +0.011 A 
ATOM     27  N   LIG    1        0.575   2.078  -5.930  0.00  0.00    -0.285 N 
ATOM     28  H   LIG    1       -0.092   1.862  -6.657  0.00  0.00    +0.155 HD
ATOM     29  C   LIG    1        1.551   0.034  -2.445  0.00  0.00    -0.027 A 
ENDBRANCH  17  29
ENDBRANCH  16  17
ENDBRANCH   1  16
TORSDOF 4
