REMARK  Name = DB00499
REMARK                            x       y       z     vdW  Elec       q    Type
REMARK                         _______ _______ _______ _____ _____    ______ ____
ROOT
ATOM      1  C   LIG    1        3.649   1.155  -0.470  0.00  0.00    +0.086 A 
ATOM      2  C   LIG    1        4.298  -0.017  -0.018  0.00  0.00    +0.133 A 
ATOM      3  C   LIG    1        3.532  -1.099   0.430  0.00  0.00    +0.035 A 
ATOM      4  C   LIG    1        2.142  -1.038   0.432  0.00  0.00    +0.025 A 
ATOM      5  C   LIG    1        1.485   0.113   0.001  0.00  0.00    +0.034 A 
ATOM      6  C   LIG    1        2.246   1.200  -0.457  0.00  0.00    +0.038 A 
ENDROOT
BRANCH   1   8
ATOM      7  F   LIG    1        5.415   2.673  -0.072  0.00  0.00    -0.166 F 
ATOM      8  C   LIG    1        4.431   2.395  -0.929  0.00  0.00    +0.420 C 
ATOM      9  F   LIG    1        4.960   2.173  -2.132  0.00  0.00    -0.166 F 
ATOM     10  F   LIG    1        3.664   3.484  -1.009  0.00  0.00    -0.166 F 
ENDBRANCH   1   8
BRANCH   5  11
ATOM     11  N   LIG    1        0.079   0.081   0.027  0.00  0.00    -0.285 N 
ATOM     12  H   LIG    1       -0.320  -0.843   0.103  0.00  0.00    +0.155 HD
ATOM     13  C   LIG    1       -0.793   1.114   0.032  0.00  0.00    +0.220 C 
ATOM     14  O   LIG    1       -0.471   2.303   0.068  0.00  0.00    -0.275 OA
BRANCH  13  15
ATOM     15  C   LIG    1       -2.287   0.735   0.020  0.00  0.00    +0.069 C 
ATOM     16  C   LIG    1       -3.002   1.234   1.293  0.00  0.00    +0.017 C 
ATOM     17  C   LIG    1       -2.981   1.255  -1.255  0.00  0.00    +0.017 C 
ENDBRANCH  13  15
ENDBRANCH   5  11
BRANCH   2  18
ATOM     18  N   LIG    1        5.767  -0.151  -0.001  0.00  0.00    +0.007 N 
ATOM     19  O   LIG    1        6.296  -0.474   1.058  0.00  0.00    -0.130 OA
BRANCH  18  20
ATOM     20  O   LIG    1        6.380   0.033  -1.047  0.00  0.00    -0.396 OA
ATOM     21  H   LIG    1        7.314  -0.046  -1.062  0.00  0.00    +0.329 HD
ENDBRANCH  18  20
ENDBRANCH   2  18
TORSDOF 5
