REMARK  Name = DB00371
REMARK                            x       y       z     vdW  Elec       q    Type
REMARK                         _______ _______ _______ _____ _____    ______ ____
ROOT
ATOM      1  C   LIG    1       -0.043   0.018  -0.000  0.00  0.00    +0.036 C 
ATOM      2  C   LIG    1       -0.507   1.496   0.000  0.00  0.00    +0.018 C 
ENDROOT
BRANCH   1   3
ATOM      3  C   LIG    1       -0.628  -0.695  -1.248  0.00  0.00    +0.243 C 
BRANCH   3   4
ATOM      4  O   LIG    1       -0.137  -0.138  -2.465  0.00  0.00    -0.450 OA
BRANCH   4   5
ATOM      5  C   LIG    1       -0.506  -0.649  -3.654  0.00  0.00    +0.398 C 
ATOM      6  N   LIG    1        0.097   0.063  -4.665  0.00  0.00    -0.295 N 
ATOM      7  H   LIG    1        0.706   0.834  -4.434  0.00  0.00    +0.148 HD
ATOM      8  H   LIG    1       -0.080  -0.196  -5.624  0.00  0.00    +0.148 HD
ATOM      9  O   LIG    1       -1.266  -1.605  -3.817  0.00  0.00    -0.227 OA
ENDBRANCH   4   5
ENDBRANCH   3   4
ENDBRANCH   1   3
BRANCH   1  10
ATOM     10  C   LIG    1       -0.628  -0.695   1.248  0.00  0.00    +0.243 C 
BRANCH  10  11
ATOM     11  O   LIG    1       -0.137  -0.138   2.465  0.00  0.00    -0.450 OA
BRANCH  11  12
ATOM     12  C   LIG    1       -0.506  -0.649   3.654  0.00  0.00    +0.398 C 
ATOM     13  N   LIG    1        0.097   0.063   4.665  0.00  0.00    -0.295 N 
ATOM     14  H   LIG    1        0.706   0.834   4.434  0.00  0.00    +0.148 HD
ATOM     15  H   LIG    1       -0.080  -0.196   5.625  0.00  0.00    +0.148 HD
ATOM     16  O   LIG    1       -1.265  -1.605   3.817  0.00  0.00    -0.227 OA
ENDBRANCH  11  12
ENDBRANCH  10  11
ENDBRANCH   1  10
BRANCH   1  17
ATOM     17  C   LIG    1        1.517  -0.030   0.000  0.00  0.00    +0.013 C 
BRANCH  17  18
ATOM     18  C   LIG    1        2.159  -1.435   0.000  0.00  0.00    -0.003 C 
ATOM     19  C   LIG    1        3.693  -1.384   0.000  0.00  0.00    +0.004 C 
ENDBRANCH  17  18
ENDBRANCH   1  17
TORSDOF 8
