REMARK  Name = DB00921
REMARK                            x       y       z     vdW  Elec       q    Type
REMARK                         _______ _______ _______ _____ _____    ______ ____
ROOT
ATOM      1  O   LIG    1       -2.845  -1.175   2.332  0.00  0.00    -0.481 OA
ATOM      2  C   LIG    1       -3.643  -2.164   1.801  0.00  0.00    +0.166 A 
ATOM      3  C   LIG    1       -4.473  -3.044   2.494  0.00  0.00    +0.159 A 
ATOM      4  C   LIG    1       -5.032  -4.121   1.791  0.00  0.00    +0.049 A 
ATOM      5  C   LIG    1       -4.694  -4.341   0.444  0.00  0.00    +0.008 A 
ATOM      6  C   LIG    1       -3.850  -3.455  -0.242  0.00  0.00    -0.038 A 
ATOM      7  C   LIG    1       -3.195  -3.755  -1.603  0.00  0.00    +0.055 C 
ATOM      8  C   LIG    1       -2.177  -2.643  -2.080  0.00  0.00    +0.068 C 
ATOM      9  C   LIG    1       -1.426  -1.956  -0.857  0.00  0.00    +0.000 C 
ATOM     10  C   LIG    1       -0.665  -3.008   0.044  0.00  0.00    +0.012 C 
ATOM     11  C   LIG    1       -0.161  -2.384   1.375  0.00  0.00    +0.040 C 
ATOM     12  C   LIG    1       -0.470  -0.858   1.414  0.00  0.00    +0.112 C 
ATOM     13  C   LIG    1        0.244  -0.212   0.148  0.00  0.00    +0.057 C 
ATOM     14  C   LIG    1       -0.331  -0.882  -1.170  0.00  0.00    +0.018 C 
ATOM     15  C   LIG    1       -2.539  -1.244  -0.045  0.00  0.00    +0.047 C 
ATOM     16  C   LIG    1       -3.283  -0.201  -0.930  0.00  0.00    +0.031 C 
ATOM     17  C   LIG    1       -3.858  -0.811  -2.222  0.00  0.00    +0.086 C 
ATOM     18  N   LIG    1       -2.907  -1.679  -2.937  0.00  0.00    -0.298 NA
ATOM     19  C   LIG    1       -3.450  -2.313   0.453  0.00  0.00    +0.012 A 
ATOM     20  C   LIG    1       -2.025  -0.619   1.275  0.00  0.00    +0.217 C 
ENDROOT
BRANCH  13  21
ATOM     21  C   LIG    1        1.833   0.006   0.143  0.00  0.00    +0.074 C 
ATOM     22  C   LIG    1        2.430   0.142   1.574  0.00  0.00    +0.042 C 
BRANCH  21  23
ATOM     23  C   LIG    1        2.354   1.196  -0.797  0.00  0.00    -0.009 C 
ATOM     24  C   LIG    1        1.843   1.085  -2.259  0.00  0.00    +0.013 C 
ATOM     25  C   LIG    1        1.910   2.586  -0.262  0.00  0.00    +0.013 C 
ATOM     26  C   LIG    1        3.911   1.235  -0.893  0.00  0.00    +0.013 C 
ENDBRANCH  21  23
BRANCH  21  27
ATOM     27  O   LIG    1        2.426  -1.208  -0.302  0.00  0.00    -0.388 OA
ATOM     28  H   LIG    1        3.380  -1.101  -0.288  0.00  0.00    +0.210 HD
ENDBRANCH  21  27
ENDBRANCH  13  21
BRANCH  12  29
ATOM     29  O   LIG    1       -0.129  -0.142   2.610  0.00  0.00    -0.373 OA
ATOM     30  C   LIG    1       -0.156  -0.829   3.859  0.00  0.00    +0.194 C 
ENDBRANCH  12  29
BRANCH   3  31
ATOM     31  O   LIG    1       -4.697  -2.884   3.836  0.00  0.00    -0.503 OA
ATOM     32  H   LIG    1       -5.269  -3.561   4.203  0.00  0.00    +0.292 HD
ENDBRANCH   3  31
BRANCH  18  33
ATOM     33  C   LIG    1       -2.082  -0.986  -3.931  0.00  0.00    +0.088 C 
BRANCH  33  34
ATOM     34  C   LIG    1       -2.597  -1.263  -5.355  0.00  0.00    +0.003 C 
ATOM     35  C   LIG    1       -3.977  -0.856  -5.803  0.00  0.00    +0.005 C 
ATOM     36  C   LIG    1       -2.746  -0.134  -6.338  0.00  0.00    +0.005 C 
ENDBRANCH  33  34
ENDBRANCH  18  33
TORSDOF 7
