REMARK  Name = DB00819
REMARK                            x       y       z     vdW  Elec       q    Type
REMARK                         _______ _______ _______ _____ _____    ______ ____
ROOT
ATOM      1  C   LIG    1        1.715  -0.039   0.008  0.00  0.00    +0.256 A 
ATOM      2  N   LIG    1        2.412   0.088  -1.096  0.00  0.00    -0.119 NA
ATOM      3  N   LIG    1        3.778   0.162  -0.854  0.00  0.00    -0.124 NA
ATOM      4  C   LIG    1        4.068   0.093   0.428  0.00  0.00    +0.189 A 
ATOM      5  S   LIG    1        2.677  -0.069   1.457  0.00  0.00    -0.011 S 
ENDROOT
BRANCH   4   6
ATOM      6  N   LIG    1        5.319   0.136   1.029  0.00  0.00    -0.263 N 
ATOM      7  H   LIG    1        5.329   0.060   2.035  0.00  0.00    +0.157 HD
ATOM      8  C   LIG    1        6.507   0.266   0.399  0.00  0.00    +0.216 C 
ATOM      9  C   LIG    1        7.737   0.285   1.301  0.00  0.00    +0.109 C 
ATOM     10  O   LIG    1        6.658   0.368  -0.819  0.00  0.00    -0.276 OA
ENDBRANCH   4   6
BRANCH   1  11
ATOM     11  S   LIG    1       -0.088  -0.144   0.035  0.00  0.00    +0.081 S 
ATOM     12  O   LIG    1       -0.528  -0.484  -1.322  0.00  0.00    -0.151 OA
ATOM     13  O   LIG    1       -0.459  -0.952   1.202  0.00  0.00    -0.151 OA
BRANCH  11  14
ATOM     14  N   LIG    1       -0.491   1.532   0.357  0.00  0.00    -0.202 NA
ATOM     15  H   LIG    1       -0.226   1.871   1.285  0.00  0.00    +0.144 HD
ATOM     16  H   LIG    1       -0.272   2.182  -0.403  0.00  0.00    +0.144 HD
ENDBRANCH  11  14
ENDBRANCH   1  11
TORSDOF 3
