REMARK  Name = DB00365
REMARK                            x       y       z     vdW  Elec       q    Type
REMARK                         _______ _______ _______ _____ _____    ______ ____
ROOT
ATOM      1  F   LIG    1        1.413  -0.940   1.917  0.00  0.00    -0.203 F 
ATOM      2  C   LIG    1        2.146  -0.390   0.916  0.00  0.00    +0.148 A 
ATOM      3  C   LIG    1        3.547  -0.368   1.023  0.00  0.00    -0.001 A 
ATOM      4  C   LIG    1        4.151  -0.904   2.327  0.00  0.00    +0.047 C 
ATOM      5  C   LIG    1        4.344   0.145  -0.041  0.00  0.00    +0.052 A 
ATOM      6  C   LIG    1        5.874   0.198   0.024  0.00  0.00    +0.204 A 
ATOM      7  C   LIG    1        6.534   0.934  -1.097  0.00  0.00    +0.122 A 
ATOM      8  C   LIG    1        5.773   1.327  -2.150  0.00  0.00    +0.105 A 
ATOM      9  N   LIG    1        4.425   1.082  -2.304  0.00  0.00    -0.343 N 
ATOM     10  O   LIG    1        6.504  -0.311   0.952  0.00  0.00    -0.286 OA
ATOM     11  C   LIG    1        3.669   0.604  -1.203  0.00  0.00    +0.055 A 
ATOM     12  C   LIG    1        2.272   0.593  -1.263  0.00  0.00    +0.052 A 
ATOM     13  C   LIG    1        1.488   0.116  -0.212  0.00  0.00    +0.068 A 
ENDROOT
BRANCH  13  14
ATOM     14  N   LIG    1        0.096   0.082  -0.310  0.00  0.00    -0.325 N 
ATOM     15  C   LIG    1       -0.716   0.759   0.720  0.00  0.00    +0.120 C 
ATOM     16  C   LIG    1       -2.190   0.303   0.737  0.00  0.00    +0.100 C 
ATOM     17  N   LIG    1       -2.811   0.489  -0.567  0.00  0.00    -0.311 NA
ATOM     18  H   LIG    1       -3.767   0.167  -0.523  0.00  0.00    +0.122 HD
ATOM     19  C   LIG    1       -2.084  -0.295  -1.560  0.00  0.00    +0.068 C 
ATOM     20  C   LIG    1       -2.734  -0.213  -2.950  0.00  0.00    +0.025 C 
ATOM     21  C   LIG    1       -0.598   0.146  -1.613  0.00  0.00    +0.123 C 
ENDBRANCH  13  14
BRANCH   9  22
ATOM     22  C   LIG    1        3.843   1.358  -3.625  0.00  0.00    +0.087 C 
ATOM     23  C   LIG    1        4.437   0.635  -4.826  0.00  0.00    +0.027 C 
ATOM     24  C   LIG    1        3.085   0.235  -4.322  0.00  0.00    +0.027 C 
ENDBRANCH   9  22
BRANCH   7  25
ATOM     25  C   LIG    1        7.968   1.248  -1.067  0.00  0.00    +0.342 C 
ATOM     26  O   LIG    1        8.717   0.999  -0.122  0.00  0.00    -0.245 OA
BRANCH  25  27
ATOM     27  O   LIG    1        8.439   1.862  -2.196  0.00  0.00    -0.477 OA
ATOM     28  H   LIG    1        9.378   2.051  -2.139  0.00  0.00    +0.295 HD
ENDBRANCH  25  27
ENDBRANCH   7  25
TORSDOF 4
