REMARK  Name = DB00540
REMARK                            x       y       z     vdW  Elec       q    Type
REMARK                         _______ _______ _______ _____ _____    ______ ____
ROOT
ATOM      1  C   LIG    1        3.476  -1.556   0.232  0.00  0.00    -0.017 C 
ATOM      2  C   LIG    1        4.160  -2.514  -0.446  0.00  0.00    -0.014 C 
ATOM      3  C   LIG    1        3.443  -3.631  -1.107  0.00  0.00    -0.014 A 
ATOM      4  C   LIG    1        2.649  -4.503  -0.348  0.00  0.00    +0.009 A 
ATOM      5  C   LIG    1        1.933  -5.530  -0.958  0.00  0.00    +0.001 A 
ATOM      6  C   LIG    1        2.006  -5.700  -2.338  0.00  0.00    +0.000 A 
ATOM      7  C   LIG    1        2.801  -4.847  -3.100  0.00  0.00    +0.004 A 
ATOM      8  C   LIG    1        3.524  -3.810  -2.498  0.00  0.00    -0.039 A 
ATOM      9  C   LIG    1        4.452  -2.914  -3.299  0.00  0.00    +0.040 C 
ATOM     10  C   LIG    1        5.936  -3.118  -2.958  0.00  0.00    +0.040 C 
ATOM     11  C   LIG    1        6.468  -2.764  -1.563  0.00  0.00    -0.039 A 
ATOM     12  C   LIG    1        7.862  -2.726  -1.418  0.00  0.00    +0.004 A 
ATOM     13  C   LIG    1        8.464  -2.436  -0.199  0.00  0.00    +0.000 A 
ATOM     14  C   LIG    1        7.674  -2.182   0.912  0.00  0.00    +0.001 A 
ATOM     15  C   LIG    1        6.289  -2.220   0.796  0.00  0.00    +0.009 A 
ATOM     16  C   LIG    1        5.654  -2.514  -0.426  0.00  0.00    -0.014 A 
ENDROOT
BRANCH   1  17
ATOM     17  C   LIG    1        1.968  -1.384   0.359  0.00  0.00    +0.043 C 
BRANCH  17  18
ATOM     18  C   LIG    1        1.484  -0.000  -0.101  0.00  0.00    +0.084 C 
BRANCH  18  19
ATOM     19  N   LIG    1        0.044   0.106   0.091  0.00  0.00    -0.319 NA
ATOM     20  H   LIG    1       -0.425  -0.621  -0.430  0.00  0.00    +0.122 HD
ATOM     21  C   LIG    1       -0.437   1.410  -0.337  0.00  0.00    +0.101 C 
ENDBRANCH  18  19
ENDBRANCH  17  18
ENDBRANCH   1  17
TORSDOF 3
