REMARK  Name = DB00377
REMARK                            x       y       z     vdW  Elec       q    Type
REMARK                         _______ _______ _______ _____ _____    ______ ____
ROOT
ATOM      1  C   LIG    1       -2.230  -1.163  -0.454  0.00  0.00    +0.041 A 
ATOM      2  C   LIG    1       -3.001  -0.127   0.095  0.00  0.00    -0.028 A 
ATOM      3  C   LIG    1       -2.290   0.922   0.940  0.00  0.00    +0.037 C 
ATOM      4  C   LIG    1       -3.101   2.228   1.060  0.00  0.00    +0.010 C 
ATOM      5  C   LIG    1       -4.550   1.923   1.464  0.00  0.00    +0.005 C 
ATOM      6  C   LIG    1       -5.248   1.080   0.382  0.00  0.00    +0.035 C 
ATOM      7  C   LIG    1       -0.861   1.146   0.410  0.00  0.00    +0.116 C 
ATOM      8  N   LIG    1       -0.103  -0.125   0.254  0.00  0.00    -0.292 N 
ATOM      9  C   LIG    1       -4.401  -0.102  -0.096  0.00  0.00    -0.043 A 
ATOM     10  C   LIG    1       -5.003  -1.163  -0.778  0.00  0.00    +0.004 A 
ATOM     11  C   LIG    1       -4.248  -2.216  -1.284  0.00  0.00    +0.001 A 
ATOM     12  C   LIG    1       -0.719  -1.232  -0.292  0.00  0.00    +0.247 C 
ATOM     13  O   LIG    1       -0.076  -2.236  -0.619  0.00  0.00    -0.270 OA
ATOM     14  C   LIG    1       -2.867  -2.215  -1.127  0.00  0.00    +0.013 A 
ENDROOT
BRANCH   8  15
ATOM     15  C   LIG    1        1.390  -0.099   0.308  0.00  0.00    +0.093 C 
ATOM     16  C   LIG    1        2.113   1.246   0.634  0.00  0.00    +0.013 C 
ATOM     17  C   LIG    1        2.029   1.459   2.173  0.00  0.00    +0.021 C 
ATOM     18  C   LIG    1        2.619   0.242   2.947  0.00  0.00    +0.085 C 
ATOM     19  N   LIG    1        3.135  -0.817   2.057  0.00  0.00    -0.301 NA
ATOM     20  C   LIG    1        4.166  -0.208   1.198  0.00  0.00    +0.085 C 
ATOM     21  C   LIG    1        3.627   1.003   0.384  0.00  0.00    +0.021 C 
ATOM     22  C   LIG    1        2.015  -1.246   1.193  0.00  0.00    +0.107 C 
ENDBRANCH   8  15
TORSDOF 1
