REMARK  Name = DB00203
REMARK                            x       y       z     vdW  Elec       q    Type
REMARK                         _______ _______ _______ _____ _____    ______ ____
ROOT
ATOM      1  C   LIG    1       -0.215   0.234   0.181  0.00  0.00    +0.061 A 
ATOM      2  C   LIG    1       -0.982  -0.932   0.016  0.00  0.00    +0.043 A 
ATOM      3  C   LIG    1       -2.368  -0.870  -0.124  0.00  0.00    +0.106 A 
ATOM      4  C   LIG    1       -3.008   0.365  -0.100  0.00  0.00    +0.032 A 
ATOM      5  C   LIG    1       -2.266   1.532   0.057  0.00  0.00    +0.048 A 
ATOM      6  C   LIG    1       -0.867   1.490   0.198  0.00  0.00    +0.131 A 
ENDROOT
BRANCH   1   7
ATOM      7  C   LIG    1        1.255   0.103   0.325  0.00  0.00    +0.145 A 
ATOM      8  N   LIG    1        1.764  -1.029   0.966  0.00  0.00    -0.305 N 
ATOM      9  H   LIG    1        1.085  -1.699   1.297  0.00  0.00    +0.170 HD
ATOM     10  C   LIG    1        3.065  -1.384   1.230  0.00  0.00    +0.278 A 
ATOM     11  O   LIG    1        3.359  -2.427   1.810  0.00  0.00    -0.265 OA
ATOM     12  C   LIG    1        3.943  -0.341   0.722  0.00  0.00    +0.151 A 
ATOM     13  N   LIG    1        5.305  -0.181   0.729  0.00  0.00    -0.260 N 
ATOM     14  N   LIG    1        5.672   0.989   0.180  0.00  0.00    -0.174 NA
ATOM     15  C   LIG    1        4.557   1.576  -0.217  0.00  0.00    +0.089 A 
ATOM     16  C   LIG    1        6.320  -1.041   1.320  0.00  0.00    +0.173 C 
ATOM     17  C   LIG    1        3.440   0.782   0.087  0.00  0.00    +0.119 A 
ATOM     18  N   LIG    1        2.106   0.983  -0.115  0.00  0.00    -0.225 NA
BRANCH  15  19
ATOM     19  C   LIG    1        4.600   2.937  -0.887  0.00  0.00    +0.059 C 
BRANCH  19  20
ATOM     20  C   LIG    1        4.353   4.100   0.095  0.00  0.00    +0.003 C 
ATOM     21  C   LIG    1        5.428   4.252   1.183  0.00  0.00    +0.004 C 
ENDBRANCH  19  20
ENDBRANCH  15  19
ENDBRANCH   1   7
BRANCH   3  22
ATOM     22  S   LIG    1       -3.321  -2.375  -0.314  0.00  0.00    +0.061 S 
ATOM     23  O   LIG    1       -2.426  -3.404  -0.858  0.00  0.00    -0.153 OA
ATOM     24  O   LIG    1       -4.551  -2.012  -1.027  0.00  0.00    -0.153 OA
BRANCH  22  25
ATOM     25  N   LIG    1       -3.756  -2.839   1.339  0.00  0.00    -0.174 NA
ATOM     26  C   LIG    1       -2.659  -3.428   2.145  0.00  0.00    +0.125 C 
ATOM     27  C   LIG    1       -3.089  -3.492   3.630  0.00  0.00    +0.101 C 
ATOM     28  N   LIG    1       -4.319  -4.295   3.746  0.00  0.00    -0.303 NA
ATOM     29  C   LIG    1       -4.709  -4.418   5.147  0.00  0.00    +0.105 C 
ATOM     30  C   LIG    1       -5.413  -3.690   2.966  0.00  0.00    +0.101 C 
ATOM     31  C   LIG    1       -5.006  -3.625   1.474  0.00  0.00    +0.125 C 
ENDBRANCH  22  25
ENDBRANCH   3  22
BRANCH   6  32
ATOM     32  O   LIG    1       -0.105   2.635   0.376  0.00  0.00    -0.492 OA
BRANCH  32  33
ATOM     33  C   LIG    1       -0.712   3.922   0.319  0.00  0.00    +0.226 C 
ATOM     34  C   LIG    1        0.389   4.982   0.423  0.00  0.00    +0.048 C 
ENDBRANCH  32  33
ENDBRANCH   6  32
TORSDOF 7
