REMARK  Name = DB00492
REMARK                            x       y       z     vdW  Elec       q    Type
REMARK                         _______ _______ _______ _____ _____    ______ ____
ROOT
ATOM      1  P   LIG    1       -0.611   1.240   0.173  0.00  0.00    +0.216 P 
ATOM      2  O   LIG    1       -0.971   2.276  -0.834  0.00  0.00    -0.290 OA
ENDROOT
BRANCH   1   3
ATOM      3  C   LIG    1       -1.206   1.548   1.893  0.00  0.00    +0.193 C 
BRANCH   3   4
ATOM      4  C   LIG    1       -2.594   0.972   2.208  0.00  0.00    +0.226 C 
ATOM      5  N   LIG    1       -2.703  -0.194   2.897  0.00  0.00    -0.287 N 
ATOM      6  C   LIG    1       -3.991  -0.862   3.137  0.00  0.00    +0.185 C 
ATOM      7  C   LIG    1       -3.646  -2.332   2.879  0.00  0.00    +0.039 C 
ATOM      8  C   LIG    1       -2.171  -2.500   3.259  0.00  0.00    +0.012 C 
ATOM      9  C   LIG    1       -1.567  -1.077   3.204  0.00  0.00    +0.112 C 
ATOM     10  O   LIG    1       -3.577   1.613   1.833  0.00  0.00    -0.275 OA
BRANCH   8  11
ATOM     11  C   LIG    1       -1.406  -3.539   2.381  0.00  0.00    -0.006 C 
ATOM     12  C   LIG    1        0.098  -3.690   2.734  0.00  0.00    +0.004 C 
ATOM     13  C   LIG    1        0.300  -4.332   4.124  0.00  0.00    +0.000 C 
ATOM     14  C   LIG    1       -0.421  -5.694   4.234  0.00  0.00    +0.000 C 
ATOM     15  C   LIG    1       -1.897  -5.632   3.780  0.00  0.00    +0.000 C 
ATOM     16  C   LIG    1       -2.035  -4.958   2.398  0.00  0.00    +0.004 C 
ENDBRANCH   8  11
BRANCH   6  17
ATOM     17  C   LIG    1       -4.521  -0.566   4.559  0.00  0.00    +0.325 C 
ATOM     18  O   LIG    1       -4.580  -1.386   5.454  0.00  0.00    -0.249 OA
BRANCH  17  19
ATOM     19  O   LIG    1       -4.932   0.733   4.650  0.00  0.00    -0.479 OA
ATOM     20  H   LIG    1       -5.274   0.948   5.520  0.00  0.00    +0.295 HD
ENDBRANCH  17  19
ENDBRANCH   6  17
ENDBRANCH   3   4
ENDBRANCH   1   3
BRANCH   1  21
ATOM     21  C   LIG    1       -1.001  -0.516  -0.256  0.00  0.00    +0.098 C 
BRANCH  21  22
ATOM     22  C   LIG    1       -0.935  -0.770  -1.773  0.00  0.00    +0.010 C 
BRANCH  22  23
ATOM     23  C   LIG    1       -1.112  -2.251  -2.160  0.00  0.00    +0.005 C 
BRANCH  23  24
ATOM     24  C   LIG    1       -2.494  -2.836  -1.806  0.00  0.00    +0.035 C 
BRANCH  24  25
ATOM     25  C   LIG    1       -2.641  -4.292  -2.224  0.00  0.00    -0.047 A 
ATOM     26  C   LIG    1       -3.391  -4.627  -3.354  0.00  0.00    +0.003 A 
ATOM     27  C   LIG    1       -3.525  -5.962  -3.727  0.00  0.00    +0.000 A 
ATOM     28  C   LIG    1       -2.910  -6.956  -2.969  0.00  0.00    +0.000 A 
ATOM     29  C   LIG    1       -2.159  -6.628  -1.842  0.00  0.00    +0.000 A 
ATOM     30  C   LIG    1       -2.023  -5.293  -1.470  0.00  0.00    +0.003 A 
ENDBRANCH  24  25
ENDBRANCH  23  24
ENDBRANCH  22  23
ENDBRANCH  21  22
ENDBRANCH   1  21
BRANCH   1  31
ATOM     31  O   LIG    1        0.991   1.136   0.471  0.00  0.00    -0.286 OA
BRANCH  31  32
ATOM     32  C   LIG    1        1.957   1.315  -0.556  0.00  0.00    +0.319 C 
BRANCH  32  33
ATOM     33  C   LIG    1        2.361   2.808  -0.642  0.00  0.00    +0.052 C 
ATOM     34  C   LIG    1        2.959   3.346   0.674  0.00  0.00    +0.013 C 
ATOM     35  C   LIG    1        3.294   3.083  -1.836  0.00  0.00    +0.013 C 
ENDBRANCH  32  33
BRANCH  32  36
ATOM     36  O   LIG    1        3.116   0.525  -0.298  0.00  0.00    -0.434 OA
BRANCH  36  37
ATOM     37  C   LIG    1        3.106  -0.819  -0.429  0.00  0.00    +0.309 C 
ATOM     38  O   LIG    1        2.146  -1.514  -0.763  0.00  0.00    -0.251 OA
BRANCH  37  39
ATOM     39  C   LIG    1        4.463  -1.446  -0.111  0.00  0.00    +0.117 C 
ATOM     40  C   LIG    1        5.501  -1.196  -1.218  0.00  0.00    +0.015 C 
ENDBRANCH  37  39
ENDBRANCH  36  37
ENDBRANCH  32  36
ENDBRANCH  31  32
ENDBRANCH   1  31
TORSDOF 16
