REMARK  Name = DB00134
REMARK                            x       y       z     vdW  Elec       q    Type
REMARK                         _______ _______ _______ _____ _____    ______ ____
ROOT
ATOM      1  CA  MET A  1        0.022  -0.038   0.115  0.00  0.00    +0.161 C 
ENDROOT
BRANCH   1   2
ATOM      2  N   MET A  1       -0.713   1.239   0.096  0.00  0.00    -0.318 NA
ATOM      3  H1  MET A  1       -0.567   1.757   0.950  0.00  0.00    +0.119 HD
ATOM      4  H2  MET A  1       -1.708   1.090   0.002  0.00  0.00    +0.119 HD
ENDBRANCH   1   2
BRANCH   1   6
ATOM      5  O   MET A  1       -0.374  -0.311   2.509  0.00  0.00    -0.249 OA
ATOM      6  C   MET A  1       -0.422  -0.798   1.379  0.00  0.00    +0.322 C 
BRANCH   6   7
ATOM      7  OXT MET A  1       -0.846  -2.061   1.080  0.00  0.00    -0.480 OA
ATOM      8  HXT MET A  1       -1.119  -2.548   1.861  0.00  0.00    +0.295 HD
ENDBRANCH   6   7
ENDBRANCH   1   6
BRANCH   1   9
ATOM      9  CB  MET A  1        1.557   0.139   0.074  0.00  0.00    +0.040 C 
BRANCH   9  10
ATOM     10  CG  MET A  1        2.070   0.765  -1.231  0.00  0.00    +0.071 C 
BRANCH  10  11
ATOM     11  SD  MET A  1        3.874   0.921  -1.311  0.00  0.00    -0.164 S 
ATOM     12  CE  MET A  1        4.040   1.663  -2.955  0.00  0.00    +0.084 C 
ENDBRANCH  10  11
ENDBRANCH   9  10
ENDBRANCH   1   9
TORSDOF 6
