REMARK  Name = DB00533
REMARK                            x       y       z     vdW  Elec       q    Type
REMARK                         _______ _______ _______ _____ _____    ______ ____
ROOT
ATOM      1  C   LIG    1        6.067   0.047  -0.048  0.00  0.00    +0.011 C 
ATOM      2  C   LIG    1        6.891  -0.890  -0.887  0.00  0.00    +0.269 C 
ATOM      3  O   LIG    1        8.225  -0.548  -0.570  0.00  0.00    -0.456 OA
ATOM      4  C   LIG    1        8.272   0.441   0.339  0.00  0.00    +0.340 C 
ATOM      5  O   LIG    1        9.313   0.940   0.764  0.00  0.00    -0.245 OA
ATOM      6  C   LIG    1        6.903   0.786   0.704  0.00  0.00    +0.073 C 
ENDROOT
BRANCH   1  10
ATOM      7  C   LIG    1        1.790  -0.023   0.006  0.00  0.00    +0.088 A 
ATOM      8  C   LIG    1        2.481  -0.166  -1.199  0.00  0.00    +0.027 A 
ATOM      9  C   LIG    1        3.873  -0.154  -1.204  0.00  0.00    +0.010 A 
ATOM     10  C   LIG    1        4.587   0.003  -0.011  0.00  0.00    -0.018 A 
ATOM     11  C   LIG    1        3.882   0.145   1.191  0.00  0.00    +0.010 A 
ATOM     12  C   LIG    1        2.491   0.132   1.202  0.00  0.00    +0.027 A 
BRANCH   7  13
ATOM     13  S   LIG    1       -0.000  -0.024   0.024  0.00  0.00    -0.006 S 
ATOM     14  C   LIG    1       -0.430   1.813  -0.009  0.00  0.00    +0.200 C 
ATOM     15  O   LIG    1       -0.425  -0.579   1.314  0.00  0.00    -0.170 OA
ATOM     16  O   LIG    1       -0.459  -0.631  -1.230  0.00  0.00    -0.170 OA
ENDBRANCH   7  13
ENDBRANCH   1  10
BRANCH   6  17
ATOM     17  C   LIG    1        6.571   1.891   1.637  0.00  0.00    -0.011 A 
ATOM     18  C   LIG    1        7.145   1.940   2.913  0.00  0.00    +0.009 A 
ATOM     19  C   LIG    1        6.823   2.971   3.792  0.00  0.00    +0.001 A 
ATOM     20  C   LIG    1        5.923   3.957   3.398  0.00  0.00    +0.000 A 
ATOM     21  C   LIG    1        5.343   3.922   2.133  0.00  0.00    +0.001 A 
ATOM     22  C   LIG    1        5.667   2.891   1.255  0.00  0.00    +0.009 A 
ENDBRANCH   6  17
TORSDOF 3
