REMARK  Name = DB00709
REMARK                            x       y       z     vdW  Elec       q    Type
REMARK                         _______ _______ _______ _____ _____    ______ ____
ROOT
ATOM      1  N   LIG    1       -0.043  -0.048  -0.025  0.00  0.00    -0.272 N 
ATOM      2  C   LIG    1       -0.634  -1.283   0.214  0.00  0.00    +0.352 A 
ATOM      3  N   LIG    1       -2.048  -1.308   0.221  0.00  0.00    -0.178 NA
ATOM      4  C   LIG    1       -2.766  -0.251   0.055  0.00  0.00    +0.123 A 
ATOM      5  C   LIG    1       -2.162   1.032  -0.159  0.00  0.00    +0.061 A 
ATOM      6  O   LIG    1        0.081  -2.270   0.399  0.00  0.00    -0.244 OA
ATOM      7  C   LIG    1       -0.822   1.074  -0.190  0.00  0.00    +0.096 A 
ENDROOT
BRANCH   1  11
ATOM      8  S   LIG    1        3.705   0.674   1.156  0.00  0.00    -0.123 S 
ATOM      9  C   LIG    1        3.338   1.233  -0.519  0.00  0.00    +0.203 C 
ATOM     10  O   LIG    1        1.921   1.226  -0.629  0.00  0.00    -0.340 OA
ATOM     11  C   LIG    1        1.413   0.067  -0.033  0.00  0.00    +0.235 C 
ATOM     12  C   LIG    1        2.058  -0.029   1.350  0.00  0.00    +0.126 C 
BRANCH   9  13
ATOM     13  C   LIG    1        3.897   2.638  -0.794  0.00  0.00    +0.198 C 
BRANCH  13  14
ATOM     14  O   LIG    1        3.730   2.979  -2.155  0.00  0.00    -0.392 OA
ATOM     15  H   LIG    1        4.097   3.855  -2.298  0.00  0.00    +0.210 HD
ENDBRANCH  13  14
ENDBRANCH   9  13
ENDBRANCH   1  11
BRANCH   4  16
ATOM     16  N   LIG    1       -4.105  -0.313   0.073  0.00  0.00    -0.343 N 
ATOM     17  H   LIG    1       -4.571  -1.197   0.218  0.00  0.00    +0.144 HD
ATOM     18  H   LIG    1       -4.660   0.519  -0.063  0.00  0.00    +0.144 HD
ENDBRANCH   4  16
TORSDOF 4
