REMARK  Name = DB00344
REMARK                            x       y       z     vdW  Elec       q    Type
REMARK                         _______ _______ _______ _____ _____    ______ ____
ROOT
ATOM      1  C   LIG    1       -2.051   1.441  -0.227  0.00  0.00    +0.050 C 
ATOM      2  C   LIG    1       -2.531   2.001   1.122  0.00  0.00    -0.033 A 
ATOM      3  C   LIG    1       -3.287   1.194   1.985  0.00  0.00    +0.005 A 
ATOM      4  C   LIG    1       -3.669   1.640   3.247  0.00  0.00    +0.000 A 
ATOM      5  C   LIG    1       -3.295   2.909   3.673  0.00  0.00    +0.001 A 
ATOM      6  C   LIG    1       -2.548   3.729   2.831  0.00  0.00    +0.008 A 
ATOM      7  C   LIG    1       -2.165   3.295   1.556  0.00  0.00    -0.021 A 
ATOM      8  C   LIG    1       -1.423   4.248   0.712  0.00  0.00    +0.009 C 
ATOM      9  C   LIG    1       -1.429   4.375  -0.627  0.00  0.00    +0.009 C 
ATOM     10  C   LIG    1       -2.178   3.595  -1.629  0.00  0.00    -0.021 A 
ATOM     11  C   LIG    1       -2.570   4.261  -2.797  0.00  0.00    +0.008 A 
ATOM     12  C   LIG    1       -3.324   3.614  -3.771  0.00  0.00    +0.001 A 
ATOM     13  C   LIG    1       -3.696   2.287  -3.589  0.00  0.00    +0.000 A 
ATOM     14  C   LIG    1       -3.301   1.611  -2.438  0.00  0.00    +0.005 A 
ATOM     15  C   LIG    1       -2.539   2.242  -1.443  0.00  0.00    -0.033 A 
ENDROOT
BRANCH   1  16
ATOM     16  C   LIG    1       -0.527   1.148  -0.278  0.00  0.00    +0.014 C 
BRANCH  16  17
ATOM     17  C   LIG    1       -0.037   0.149   0.795  0.00  0.00    +0.016 C 
BRANCH  17  18
ATOM     18  C   LIG    1        1.458  -0.211   0.692  0.00  0.00    +0.080 C 
BRANCH  18  19
ATOM     19  N   LIG    1        2.292   0.963   0.910  0.00  0.00    -0.319 NA
ATOM     20  H   LIG    1        2.089   1.364   1.815  0.00  0.00    +0.122 HD
ATOM     21  C   LIG    1        3.701   0.618   0.824  0.00  0.00    +0.101 C 
ENDBRANCH  18  19
ENDBRANCH  17  18
ENDBRANCH  16  17
ENDBRANCH   1  16
TORSDOF 4
