REMARK  Name = DB00187
REMARK                            x       y       z     vdW  Elec       q    Type
REMARK                         _______ _______ _______ _____ _____    ______ ____
ROOT
ATOM      1  C   LIG    1        3.541  -1.180   0.074  0.00  0.00    +0.121 A 
ATOM      2  C   LIG    1        4.426  -0.137  -0.241  0.00  0.00    +0.046 A 
ATOM      3  C   LIG    1        5.798  -0.370  -0.284  0.00  0.00    +0.007 A 
ATOM      4  C   LIG    1        6.299  -1.644  -0.014  0.00  0.00    -0.047 A 
ATOM      5  C   LIG    1        5.424  -2.685   0.299  0.00  0.00    +0.007 A 
ATOM      6  C   LIG    1        4.052  -2.450   0.342  0.00  0.00    +0.046 A 
ENDROOT
BRANCH   1   7
ATOM      7  O   LIG    1        2.167  -1.043   0.140  0.00  0.00    -0.489 OA
BRANCH   7   8
ATOM      8  C   LIG    1        1.577   0.226  -0.135  0.00  0.00    +0.261 C 
BRANCH   8   9
ATOM      9  C   LIG    1        0.044   0.125   0.009  0.00  0.00    +0.166 C 
BRANCH   9  10
ATOM     10  O   LIG    1       -0.480  -0.716  -1.004  0.00  0.00    -0.387 OA
ATOM     11  H   LIG    1       -0.004  -1.550  -0.980  0.00  0.00    +0.210 HD
ENDBRANCH   9  10
BRANCH   9  12
ATOM     12  C   LIG    1       -0.682   1.491  -0.015  0.00  0.00    +0.115 C 
BRANCH  12  13
ATOM     13  N   LIG    1       -0.423   2.234  -1.247  0.00  0.00    -0.311 NA
ATOM     14  H   LIG    1       -0.589   1.643  -2.050  0.00  0.00    +0.122 HD
BRANCH  13  15
ATOM     15  C   LIG    1       -1.182   3.477  -1.367  0.00  0.00    +0.048 C 
ATOM     16  C   LIG    1       -0.727   4.528  -0.333  0.00  0.00    +0.023 C 
ATOM     17  C   LIG    1       -1.001   3.993  -2.805  0.00  0.00    +0.023 C 
ENDBRANCH  13  15
ENDBRANCH  12  13
ENDBRANCH   9  12
ENDBRANCH   8   9
ENDBRANCH   7   8
ENDBRANCH   1   7
BRANCH   4  18
ATOM     18  C   LIG    1        7.798  -1.896  -0.063  0.00  0.00    +0.046 C 
BRANCH  18  19
ATOM     19  C   LIG    1        8.277  -2.273  -1.479  0.00  0.00    +0.125 C 
BRANCH  19  20
ATOM     20  C   LIG    1        9.786  -2.513  -1.538  0.00  0.00    +0.307 C 
ATOM     21  O   LIG    1       10.249  -3.652  -1.621  0.00  0.00    -0.251 OA
BRANCH  20  22
ATOM     22  O   LIG    1       10.494  -1.366  -1.488  0.00  0.00    -0.468 OA
ATOM     23  C   LIG    1       11.913  -1.392  -1.525  0.00  0.00    +0.280 C 
ENDBRANCH  20  22
ENDBRANCH  19  20
ENDBRANCH  18  19
ENDBRANCH   4  18
TORSDOF 11
