REMARK  Name = DB00225
REMARK                            x       y       z     vdW  Elec       q    Type
REMARK                         _______ _______ _______ _____ _____    ______ ____
ROOT
ATOM      1  N   LIG    1        1.582   0.293  -0.200  0.00  0.00    -0.290 NA
ENDROOT
BRANCH   1   2
ATOM      2  C   LIG    1        0.117   0.141  -0.216  0.00  0.00    +0.100 C 
BRANCH   2   3
ATOM      3  C   LIG    1       -0.616   1.250   0.582  0.00  0.00    +0.101 C 
BRANCH   3   4
ATOM      4  N   LIG    1       -2.038   1.368   0.231  0.00  0.00    -0.283 NA
BRANCH   4   5
ATOM      5  C   LIG    1       -2.782   2.109   1.252  0.00  0.00    +0.181 C 
BRANCH   5   6
ATOM      6  C   LIG    1       -4.301   1.875   1.133  0.00  0.00    +0.227 C 
ATOM      7  O   LIG    1       -4.760   0.734   1.061  0.00  0.00    -0.274 OA
ATOM      8  N   LIG    1       -5.076   2.971   1.158  0.00  0.00    -0.317 N 
ATOM      9  H   LIG    1       -4.645   3.880   1.240  0.00  0.00    +0.148 HD
ATOM     10  C   LIG    1       -6.527   2.931   1.052  0.00  0.00    +0.128 C 
ENDBRANCH   5   6
ENDBRANCH   4   5
BRANCH   4  11
ATOM     11  C   LIG    1       -2.219   1.913  -1.138  0.00  0.00    +0.205 C 
BRANCH  11  12
ATOM     12  C   LIG    1       -3.046   1.007  -2.089  0.00  0.00    +0.319 C 
ATOM     13  O   LIG    1       -3.439   1.550  -3.146  0.00  0.00    -0.250 OA
BRANCH  12  14
ATOM     14  O   LIG    1       -3.265  -0.194  -1.802  0.00  0.00    -0.480 OA
ATOM     15  H   LIG    1       -2.946  -0.549  -0.996  0.00  0.00    +0.295 HD
ENDBRANCH  12  14
ENDBRANCH  11  12
ENDBRANCH   4  11
ENDBRANCH   3   4
ENDBRANCH   2   3
ENDBRANCH   1   2
BRANCH   1  16
ATOM     16  C   LIG    1        2.217  -0.687  -1.097  0.00  0.00    +0.100 C 
BRANCH  16  17
ATOM     17  C   LIG    1        3.744  -0.471  -1.254  0.00  0.00    +0.101 C 
BRANCH  17  18
ATOM     18  N   LIG    1        4.312  -1.195  -2.405  0.00  0.00    -0.283 NA
BRANCH  18  19
ATOM     19  C   LIG    1        4.287  -2.650  -2.219  0.00  0.00    +0.181 C 
BRANCH  19  20
ATOM     20  C   LIG    1        4.458  -3.403  -3.556  0.00  0.00    +0.227 C 
ATOM     21  O   LIG    1        3.975  -2.965  -4.603  0.00  0.00    -0.274 OA
ATOM     22  N   LIG    1        5.146  -4.554  -3.497  0.00  0.00    -0.317 N 
ATOM     23  H   LIG    1        5.524  -4.855  -2.610  0.00  0.00    +0.148 HD
ATOM     24  C   LIG    1        5.408  -5.405  -4.649  0.00  0.00    +0.128 C 
ENDBRANCH  19  20
ENDBRANCH  18  19
BRANCH  18  25
ATOM     25  C   LIG    1        5.680  -0.691  -2.672  0.00  0.00    +0.205 C 
BRANCH  25  26
ATOM     26  C   LIG    1        5.754   0.619  -3.503  0.00  0.00    +0.319 C 
ATOM     27  O   LIG    1        6.882   1.160  -3.558  0.00  0.00    -0.250 OA
BRANCH  26  28
ATOM     28  O   LIG    1        4.740   1.064  -4.091  0.00  0.00    -0.480 OA
ATOM     29  H   LIG    1        3.920   0.617  -4.014  0.00  0.00    +0.295 HD
ENDBRANCH  26  28
ENDBRANCH  25  26
ENDBRANCH  18  25
ENDBRANCH  17  18
ENDBRANCH  16  17
ENDBRANCH   1  16
BRANCH   1  30
ATOM     30  C   LIG    1        2.207   0.454   1.138  0.00  0.00    +0.205 C 
BRANCH  30  31
ATOM     31  C   LIG    1        2.163  -0.738   2.139  0.00  0.00    +0.319 C 
ATOM     32  O   LIG    1        2.695  -0.519   3.251  0.00  0.00    -0.250 OA
BRANCH  31  33
ATOM     33  O   LIG    1        1.630  -1.831   1.836  0.00  0.00    -0.480 OA
ATOM     34  H   LIG    1        1.245  -1.945   0.990  0.00  0.00    +0.295 HD
ENDBRANCH  31  33
ENDBRANCH  30  31
ENDBRANCH   1  30
TORSDOF 19
