REMARK  Name = DB00916
REMARK                            x       y       z     vdW  Elec       q    Type
REMARK                         _______ _______ _______ _____ _____    ______ ____
ROOT
ATOM      1  N   LIG    1        0.031  -0.014  -0.006  0.00  0.00    -0.307 N 
ATOM      2  C   LIG    1       -0.826  -1.101   0.108  0.00  0.00    +0.211 A 
ATOM      3  C   LIG    1       -2.099  -0.546   0.165  0.00  0.00    +0.164 A 
ATOM      4  N   LIG    1       -2.076   0.769   0.118  0.00  0.00    -0.239 NA
ATOM      5  C   LIG    1       -0.807   1.088   0.024  0.00  0.00    +0.108 A 
ATOM      6  C   LIG    1       -0.324   2.523  -0.042  0.00  0.00    +0.086 C 
ENDROOT
BRANCH   2   7
ATOM      7  N   LIG    1       -0.425  -2.480   0.156  0.00  0.00    +0.025 N 
ATOM      8  O   LIG    1       -1.329  -3.310   0.161  0.00  0.00    -0.128 OA
BRANCH   7   9
ATOM      9  O   LIG    1        0.763  -2.774   0.206  0.00  0.00    -0.395 OA
ATOM     10  H   LIG    1        1.023  -3.673   0.237  0.00  0.00    +0.329 HD
ENDBRANCH   7   9
ENDBRANCH   2   7
BRANCH   1  11
ATOM     11  C   LIG    1        1.495   0.021  -0.101  0.00  0.00    +0.153 C 
BRANCH  11  12
ATOM     12  C   LIG    1        2.109  -0.045   1.310  0.00  0.00    +0.177 C 
BRANCH  12  13
ATOM     13  O   LIG    1        3.518  -0.025   1.239  0.00  0.00    -0.393 OA
ATOM     14  H   LIG    1        3.871  -0.086   2.130  0.00  0.00    +0.209 HD
ENDBRANCH  12  13
ENDBRANCH  11  12
ENDBRANCH   1  11
TORSDOF 5
