REMARK  Name = DB00795
REMARK                            x       y       z     vdW  Elec       q    Type
REMARK                         _______ _______ _______ _____ _____    ______ ____
ROOT
ATOM      1  C   LIG    1       -2.694  -0.407  -0.145  0.00  0.00    +0.109 A 
ATOM      2  C   LIG    1       -2.004   0.583   0.552  0.00  0.00    +0.031 A 
ATOM      3  C   LIG    1       -0.613   0.552   0.602  0.00  0.00    +0.031 A 
ATOM      4  C   LIG    1        0.118  -0.454  -0.040  0.00  0.00    +0.086 A 
ATOM      5  C   LIG    1       -0.601  -1.442  -0.743  0.00  0.00    +0.031 A 
ATOM      6  C   LIG    1       -1.991  -1.420  -0.796  0.00  0.00    +0.031 A 
ENDROOT
BRANCH   1   7
ATOM      7  S   LIG    1       -4.484  -0.368  -0.209  0.00  0.00    +0.073 S 
ATOM      8  O   LIG    1       -4.948   0.250   1.038  0.00  0.00    -0.150 OA
ATOM      9  O   LIG    1       -4.967  -1.695  -0.610  0.00  0.00    -0.150 OA
BRANCH   7  10
ATOM     10  N   LIG    1       -4.881   0.779  -1.508  0.00  0.00    -0.199 N 
ATOM     11  H   LIG    1       -5.108   1.726  -1.244  0.00  0.00    +0.175 HD
BRANCH  10  12
ATOM     12  C   LIG    1       -4.779   0.491  -2.877  0.00  0.00    +0.138 A 
ATOM     13  N   LIG    1       -4.198  -0.671  -3.284  0.00  0.00    -0.239 NA
ATOM     14  C   LIG    1       -4.122  -0.924  -4.615  0.00  0.00    +0.113 A 
ATOM     15  C   LIG    1       -4.613  -0.045  -5.581  0.00  0.00    +0.020 A 
ATOM     16  C   LIG    1       -5.207   1.144  -5.155  0.00  0.00    +0.005 A 
ATOM     17  C   LIG    1       -5.293   1.419  -3.788  0.00  0.00    +0.045 A 
ENDBRANCH  10  12
ENDBRANCH   7  10
ENDBRANCH   1   7
BRANCH   4  18
ATOM     18  N   LIG    1        1.519  -0.400   0.080  0.00  0.00    -0.149 NA
ATOM     19  N   LIG    1        2.172  -1.237  -0.621  0.00  0.00    -0.149 NA
BRANCH  19  20
ATOM     20  C   LIG    1        3.573  -1.190  -0.497  0.00  0.00    +0.087 A 
ATOM     21  C   LIG    1        4.314  -2.054  -1.306  0.00  0.00    +0.033 A 
ATOM     22  C   LIG    1        5.703  -2.085  -1.256  0.00  0.00    +0.048 A 
ATOM     23  C   LIG    1        6.400  -1.248  -0.387  0.00  0.00    +0.131 A 
ATOM     24  C   LIG    1        5.698  -0.358   0.455  0.00  0.00    +0.102 A 
ATOM     25  C   LIG    1        4.292  -0.350   0.379  0.00  0.00    +0.048 A 
BRANCH  23  26
ATOM     26  O   LIG    1        7.770  -1.342  -0.402  0.00  0.00    -0.506 OA
ATOM     27  H   LIG    1        8.094  -1.990  -1.031  0.00  0.00    +0.292 HD
ENDBRANCH  23  26
BRANCH  24  28
ATOM     28  C   LIG    1        6.409   0.572   1.426  0.00  0.00    +0.340 C 
ATOM     29  O   LIG    1        7.633   0.616   1.541  0.00  0.00    -0.245 OA
BRANCH  28  30
ATOM     30  O   LIG    1        5.588   1.367   2.174  0.00  0.00    -0.477 OA
ATOM     31  H   LIG    1        6.080   1.933   2.772  0.00  0.00    +0.295 HD
ENDBRANCH  28  30
ENDBRANCH  24  28
ENDBRANCH  19  20
ENDBRANCH   4  18
TORSDOF 8
