REMARK  Name = DB00852
REMARK                            x       y       z     vdW  Elec       q    Type
REMARK                         _______ _______ _______ _____ _____    ______ ____
ROOT
ATOM      1  C   LIG    1        0.245   0.273  -0.320  0.00  0.00    +0.161 C 
ENDROOT
BRANCH   1   6
ATOM      2  C   LIG    1       -1.898  -2.427  -1.968  0.00  0.00    +0.000 A 
ATOM      3  C   LIG    1       -1.643  -2.194  -3.318  0.00  0.00    +0.000 A 
ATOM      4  C   LIG    1       -0.786  -1.169  -3.712  0.00  0.00    +0.000 A 
ATOM      5  C   LIG    1       -0.179  -0.369  -2.748  0.00  0.00    +0.006 A 
ATOM      6  C   LIG    1       -0.431  -0.592  -1.389  0.00  0.00    -0.018 A 
ATOM      7  C   LIG    1       -1.291  -1.627  -1.004  0.00  0.00    +0.006 A 
ENDBRANCH   1   6
BRANCH   1   8
ATOM      8  O   LIG    1        0.068   1.650  -0.611  0.00  0.00    -0.386 OA
ATOM      9  H   LIG    1       -0.869   1.851  -0.563  0.00  0.00    +0.210 HD
ENDBRANCH   1   8
BRANCH   1  10
ATOM     10  C   LIG    1        1.771  -0.032  -0.130  0.00  0.00    +0.083 C 
ATOM     11  C   LIG    1        2.135  -1.528  -0.273  0.00  0.00    +0.027 C 
BRANCH  10  12
ATOM     12  N   LIG    1        2.273   0.352   1.193  0.00  0.00    -0.314 NA
ATOM     13  H   LIG    1        3.177  -0.064   1.366  0.00  0.00    +0.122 HD
ATOM     14  C   LIG    1        2.308   1.784   1.449  0.00  0.00    +0.101 C 
ENDBRANCH  10  12
ENDBRANCH   1  10
TORSDOF 4
