REMARK  Name = DB00812
REMARK                            x       y       z     vdW  Elec       q    Type
REMARK                         _______ _______ _______ _____ _____    ______ ____
ROOT
ATOM      1  O   LIG    1        0.084  -1.434   2.479  0.00  0.00    -0.273 OA
ATOM      2  C   LIG    1       -0.275  -1.497   1.301  0.00  0.00    +0.249 C 
ATOM      3  C   LIG    1        0.227  -0.629   0.174  0.00  0.00    +0.165 C 
ATOM      4  C   LIG    1       -0.076  -1.504  -1.017  0.00  0.00    +0.249 C 
ATOM      5  N   LIG    1       -1.148  -2.246  -0.656  0.00  0.00    -0.180 N 
ATOM      6  O   LIG    1        0.459  -1.419  -2.124  0.00  0.00    -0.273 OA
ATOM      7  N   LIG    1       -1.265  -2.249   0.770  0.00  0.00    -0.180 N 
ENDROOT
BRANCH   5   8
ATOM      8  C   LIG    1       -1.980  -2.974  -1.533  0.00  0.00    +0.057 A 
ATOM      9  C   LIG    1       -1.435  -3.846  -2.486  0.00  0.00    +0.025 A 
ATOM     10  C   LIG    1       -2.276  -4.563  -3.333  0.00  0.00    +0.002 A 
ATOM     11  C   LIG    1       -3.657  -4.410  -3.227  0.00  0.00    +0.000 A 
ATOM     12  C   LIG    1       -4.207  -3.547  -2.281  0.00  0.00    +0.002 A 
ATOM     13  C   LIG    1       -3.369  -2.828  -1.434  0.00  0.00    +0.025 A 
ENDBRANCH   5   8
BRANCH   7  14
ATOM     14  C   LIG    1       -2.077  -3.128   1.515  0.00  0.00    +0.057 A 
ATOM     15  C   LIG    1       -2.925  -2.620   2.506  0.00  0.00    +0.025 A 
ATOM     16  C   LIG    1       -3.733  -3.486   3.238  0.00  0.00    +0.002 A 
ATOM     17  C   LIG    1       -3.690  -4.855   2.980  0.00  0.00    +0.000 A 
ATOM     18  C   LIG    1       -2.845  -5.368   1.998  0.00  0.00    +0.002 A 
ATOM     19  C   LIG    1       -2.036  -4.505   1.264  0.00  0.00    +0.025 A 
ENDBRANCH   7  14
BRANCH   3  20
ATOM     20  C   LIG    1        1.749  -0.312   0.289  0.00  0.00    +0.022 C 
BRANCH  20  21
ATOM     21  C   LIG    1        2.074   0.849   1.252  0.00  0.00    +0.001 C 
BRANCH  21  22
ATOM     22  C   LIG    1        3.578   1.166   1.322  0.00  0.00    -0.003 C 
ATOM     23  C   LIG    1        3.902   2.321   2.280  0.00  0.00    +0.004 C 
ENDBRANCH  21  22
ENDBRANCH  20  21
ENDBRANCH   3  20
TORSDOF 5
