REMARK  Name = DB00934
REMARK                            x       y       z     vdW  Elec       q    Type
REMARK                         _______ _______ _______ _____ _____    ______ ____
ROOT
ATOM      1  C   LIG    1       -2.041   1.385   0.001  0.00  0.00    +0.021 C 
ATOM      2  C   LIG    1       -2.657   2.114   1.245  0.00  0.00    -0.033 A 
ATOM      3  C   LIG    1       -1.979   2.654   2.353  0.00  0.00    +0.005 A 
ATOM      4  C   LIG    1       -2.676   3.279   3.387  0.00  0.00    +0.000 A 
ATOM      5  C   LIG    1       -4.064   3.375   3.341  0.00  0.00    +0.000 A 
ATOM      6  C   LIG    1       -4.759   2.843   2.260  0.00  0.00    +0.004 A 
ATOM      7  C   LIG    1       -4.068   2.216   1.221  0.00  0.00    -0.036 A 
ATOM      8  C   LIG    1       -4.741   1.589  -0.001  0.00  0.00    +0.050 C 
ATOM      9  C   LIG    1       -4.066   2.217  -1.222  0.00  0.00    -0.036 A 
ATOM     10  C   LIG    1       -4.755   2.845  -2.261  0.00  0.00    +0.004 A 
ATOM     11  C   LIG    1       -4.058   3.378  -3.341  0.00  0.00    +0.000 A 
ATOM     12  C   LIG    1       -2.670   3.283  -3.384  0.00  0.00    +0.000 A 
ATOM     13  C   LIG    1       -1.975   2.658  -2.349  0.00  0.00    +0.005 A 
ATOM     14  C   LIG    1       -4.318   0.094  -0.001  0.00  0.00    +0.014 C 
ATOM     15  C   LIG    1       -2.655   2.116  -1.243  0.00  0.00    -0.033 A 
ATOM     16  C   LIG    1       -2.755  -0.026  -0.000  0.00  0.00    +0.017 C 
ENDROOT
BRANCH   1  17
ATOM     17  C   LIG    1       -0.460   1.283   0.002  0.00  0.00    +0.017 C 
BRANCH  17  18
ATOM     18  C   LIG    1        0.172  -0.128   0.008  0.00  0.00    +0.016 C 
BRANCH  18  19
ATOM     19  C   LIG    1        1.711  -0.089   0.005  0.00  0.00    +0.080 C 
BRANCH  19  20
ATOM     20  N   LIG    1        2.241  -1.445   0.004  0.00  0.00    -0.319 NA
ATOM     21  H   LIG    1        1.895  -1.946  -0.801  0.00  0.00    +0.122 HD
ATOM     22  C   LIG    1        3.695  -1.427  -0.013  0.00  0.00    +0.101 C 
ENDBRANCH  19  20
ENDBRANCH  18  19
ENDBRANCH  17  18
ENDBRANCH   1  17
TORSDOF 4
