REMARK  Name = DB00670
REMARK                            x       y       z     vdW  Elec       q    Type
REMARK                         _______ _______ _______ _____ _____    ______ ____
ROOT
ATOM      1  O   LIG    1        1.348  -2.279  -0.048  0.00  0.00    -0.271 OA
ATOM      2  C   LIG    1        2.000  -1.309   0.359  0.00  0.00    +0.248 C 
ATOM      3  N   LIG    1        3.308  -1.427   0.748  0.00  0.00    -0.262 N 
ATOM      4  C   LIG    1        4.068  -0.332   1.189  0.00  0.00    +0.164 A 
ATOM      5  C   LIG    1        4.409  -0.254   2.558  0.00  0.00    +0.085 A 
ATOM      6  C   LIG    1        5.124   0.874   2.977  0.00  0.00    +0.031 A 
ATOM      7  C   LIG    1        5.478   1.871   2.069  0.00  0.00    +0.022 A 
ATOM      8  C   LIG    1        5.114   1.709   0.736  0.00  0.00    +0.113 A 
ATOM      9  N   LIG    1        4.117  -1.292   3.459  0.00  0.00    -0.319 N 
ATOM     10  H   LIG    1        4.020  -0.996   4.419  0.00  0.00    +0.169 HD
ATOM     11  C   LIG    1        4.137  -2.640   3.343  0.00  0.00    +0.258 A 
ATOM     12  C   LIG    1        4.352  -3.259   1.965  0.00  0.00    +0.063 A 
ATOM     13  C   LIG    1        4.954  -4.530   1.953  0.00  0.00    +0.015 A 
ATOM     14  C   LIG    1        5.205  -5.193   0.755  0.00  0.00    +0.001 A 
ATOM     15  C   LIG    1        4.853  -4.603  -0.453  0.00  0.00    +0.002 A 
ATOM     16  C   LIG    1        4.237  -3.355  -0.459  0.00  0.00    +0.027 A 
ATOM     17  O   LIG    1        4.005  -3.360   4.334  0.00  0.00    -0.267 OA
ATOM     18  N   LIG    1        4.423   0.631   0.291  0.00  0.00    -0.236 NA
ATOM     19  C   LIG    1        3.959  -2.672   0.736  0.00  0.00    +0.064 A 
ENDROOT
BRANCH   2  20
ATOM     20  C   LIG    1        1.316   0.088   0.434  0.00  0.00    +0.184 C 
BRANCH  20  21
ATOM     21  N   LIG    1       -0.150   0.012   0.305  0.00  0.00    -0.291 NA
ATOM     22  C   LIG    1       -0.785  -0.467   1.547  0.00  0.00    +0.100 C 
ATOM     23  C   LIG    1       -2.319  -0.563   1.361  0.00  0.00    +0.099 C 
ATOM     24  N   LIG    1       -2.865   0.761   1.040  0.00  0.00    -0.303 NA
ATOM     25  C   LIG    1       -4.313   0.684   0.876  0.00  0.00    +0.105 C 
ATOM     26  C   LIG    1       -2.238   1.251  -0.193  0.00  0.00    +0.099 C 
ATOM     27  C   LIG    1       -0.703   1.339  -0.006  0.00  0.00    +0.100 C 
ENDBRANCH  20  21
ENDBRANCH   2  20
TORSDOF 2
