REMARK  Name = DB00530
REMARK                            x       y       z     vdW  Elec       q    Type
REMARK                         _______ _______ _______ _____ _____    ______ ____
ROOT
ATOM      1  C   LIG    1       -4.261  -0.458  -0.903  0.00  0.00    +0.134 A 
ATOM      2  N   LIG    1       -4.822  -1.688  -1.030  0.00  0.00    -0.220 NA
ATOM      3  C   LIG    1       -3.991  -2.751  -0.937  0.00  0.00    +0.223 A 
ATOM      4  N   LIG    1       -2.654  -2.718  -0.723  0.00  0.00    -0.235 NA
ATOM      5  C   LIG    1       -2.087  -1.486  -0.589  0.00  0.00    +0.080 A 
ATOM      6  C   LIG    1       -0.696  -1.400  -0.360  0.00  0.00    +0.078 A 
ATOM      7  C   LIG    1       -0.066  -0.155  -0.213  0.00  0.00    +0.164 A 
ATOM      8  C   LIG    1       -0.818   1.024  -0.294  0.00  0.00    +0.163 A 
ATOM      9  C   LIG    1       -2.201   0.960  -0.520  0.00  0.00    +0.062 A 
ATOM     10  C   LIG    1       -2.859  -0.289  -0.671  0.00  0.00    +0.044 A 
ENDROOT
BRANCH   1  11
ATOM     11  N   LIG    1       -5.101   0.671  -0.977  0.00  0.00    -0.299 N 
ATOM     12  H   LIG    1       -4.639   1.527  -0.708  0.00  0.00    +0.154 HD
BRANCH  11  13
ATOM     13  C   LIG    1       -6.474   0.834  -1.233  0.00  0.00    +0.034 A 
ATOM     14  C   LIG    1       -7.095   1.987  -0.740  0.00  0.00    +0.040 A 
ATOM     15  C   LIG    1       -8.455   2.219  -0.968  0.00  0.00    +0.026 A 
ATOM     16  C   LIG    1       -9.201   1.297  -1.706  0.00  0.00    +0.017 A 
ATOM     17  C   LIG    1       -8.588   0.154  -2.216  0.00  0.00    +0.003 A 
ATOM     18  C   LIG    1       -7.231  -0.076  -1.986  0.00  0.00    +0.023 A 
BRANCH  15  19
ATOM     19  C   LIG    1       -9.091   3.418  -0.440  0.00  0.00    -0.070 C 
ATOM     20  C   LIG    1       -9.616   4.427   0.005  0.00  0.00    +0.009 C 
ENDBRANCH  15  19
ENDBRANCH  11  13
ENDBRANCH   1  11
BRANCH   7  21
ATOM     21  O   LIG    1        1.292  -0.011   0.016  0.00  0.00    -0.486 OA
BRANCH  21  22
ATOM     22  C   LIG    1        2.123  -1.165   0.112  0.00  0.00    +0.257 C 
BRANCH  22  23
ATOM     23  C   LIG    1        3.572  -0.722   0.353  0.00  0.00    +0.200 C 
BRANCH  23  24
ATOM     24  O   LIG    1        4.011   0.075  -0.739  0.00  0.00    -0.380 OA
ATOM     25  C   LIG    1        5.336   0.560  -0.589  0.00  0.00    +0.194 C 
ENDBRANCH  23  24
ENDBRANCH  22  23
ENDBRANCH  21  22
ENDBRANCH   7  21
BRANCH   8  26
ATOM     26  O   LIG    1       -0.126   2.213  -0.140  0.00  0.00    -0.486 OA
BRANCH  26  27
ATOM     27  C   LIG    1       -0.820   3.456  -0.219  0.00  0.00    +0.257 C 
BRANCH  27  28
ATOM     28  C   LIG    1        0.182   4.604  -0.036  0.00  0.00    +0.200 C 
BRANCH  28  29
ATOM     29  O   LIG    1        1.152   4.557  -1.074  0.00  0.00    -0.380 OA
ATOM     30  C   LIG    1        2.136   5.575  -0.976  0.00  0.00    +0.194 C 
ENDBRANCH  28  29
ENDBRANCH  27  28
ENDBRANCH  26  27
ENDBRANCH   8  26
TORSDOF 11
