REMARK  Name = DB00600
REMARK                            x       y       z     vdW  Elec       q    Type
REMARK                         _______ _______ _______ _____ _____    ______ ____
ROOT
ATOM      1  O   LIG    1        0.138   0.115   0.000  0.00  0.00    -0.487 OA
ENDROOT
BRANCH   1   2
ATOM      2  C   LIG    1       -0.464   1.359   0.000  0.00  0.00    +0.121 A 
ATOM      3  C   LIG    1        0.236   2.577   0.000  0.00  0.00    +0.049 A 
ATOM      4  C   LIG    1       -0.458   3.784   0.000  0.00  0.00    +0.049 A 
ATOM      5  C   LIG    1       -1.851   3.782   0.000  0.00  0.00    +0.117 A 
ATOM      6  C   LIG    1       -2.555   2.580   0.000  0.00  0.00    +0.049 A 
ATOM      7  C   LIG    1       -1.860   1.374   0.000  0.00  0.00    +0.049 A 
BRANCH   5   8
ATOM      8  O   LIG    1       -2.534   4.969   0.000  0.00  0.00    -0.507 OA
ATOM      9  H   LIG    1       -1.955   5.735   0.000  0.00  0.00    +0.292 HD
ENDBRANCH   5   8
ENDBRANCH   1   2
BRANCH   1  10
ATOM     10  C   LIG    1        1.560   0.025   0.000  0.00  0.00    +0.264 C 
BRANCH  10  11
ATOM     11  C   LIG    1        1.961  -1.440   0.000  0.00  0.00    -0.010 A 
ATOM     12  C   LIG    1        2.139  -2.114   1.211  0.00  0.00    +0.007 A 
ATOM     13  C   LIG    1        2.500  -3.459   1.211  0.00  0.00    +0.000 A 
ATOM     14  C   LIG    1        2.680  -4.125   0.000  0.00  0.00    +0.000 A 
ATOM     15  C   LIG    1        2.500  -3.459  -1.211  0.00  0.00    +0.000 A 
ATOM     16  C   LIG    1        2.139  -2.114  -1.211  0.00  0.00    +0.007 A 
ENDBRANCH  10  11
ENDBRANCH   1  10
TORSDOF 4
