REMARK  Name = DB00216
REMARK                            x       y       z     vdW  Elec       q    Type
REMARK                         _______ _______ _______ _____ _____    ______ ____
ROOT
ATOM      1  C   LIG    1        1.513   0.288   0.145  0.00  0.00    -0.045 A 
ATOM      2  C   LIG    1        2.112  -0.435   1.179  0.00  0.00    +0.006 A 
ATOM      3  C   LIG    1        3.485  -0.672   1.229  0.00  0.00    +0.026 A 
ATOM      4  C   LIG    1        4.257  -0.156   0.185  0.00  0.00    +0.047 A 
ATOM      5  C   LIG    1        3.685   0.579  -0.896  0.00  0.00    +0.003 A 
ATOM      6  C   LIG    1        4.751   0.952  -1.789  0.00  0.00    -0.021 A 
ATOM      7  C   LIG    1        5.904   0.442  -1.221  0.00  0.00    +0.087 A 
ATOM      8  N   LIG    1        5.611  -0.214  -0.054  0.00  0.00    -0.360 N 
ATOM      9  H   LIG    1        6.319  -0.659   0.512  0.00  0.00    +0.165 HD
ATOM     10  C   LIG    1        2.297   0.792  -0.901  0.00  0.00    +0.014 A 
ENDROOT
BRANCH   1  11
ATOM     11  C   LIG    1       -0.002   0.494   0.192  0.00  0.00    +0.058 C 
BRANCH  11  12
ATOM     12  C   LIG    1       -0.565   1.588  -0.740  0.00  0.00    +0.176 C 
BRANCH  12  13
ATOM     13  S   LIG    1       -2.424   1.818  -0.460  0.00  0.00    -0.003 S 
ATOM     14  O   LIG    1       -2.885   2.915  -1.318  0.00  0.00    -0.169 OA
ATOM     15  O   LIG    1       -3.078   0.506  -0.527  0.00  0.00    -0.169 OA
BRANCH  13  17
ATOM     16  C   LIG    1       -2.945   1.537   2.250  0.00  0.00    +0.027 A 
ATOM     17  C   LIG    1       -2.534   2.401   1.232  0.00  0.00    +0.088 A 
ATOM     18  C   LIG    1       -2.193   3.724   1.522  0.00  0.00    +0.027 A 
ATOM     19  C   LIG    1       -2.265   4.184   2.834  0.00  0.00    +0.002 A 
ATOM     20  C   LIG    1       -2.677   3.320   3.848  0.00  0.00    +0.000 A 
ATOM     21  C   LIG    1       -3.017   1.999   3.561  0.00  0.00    +0.002 A 
ENDBRANCH  13  17
ENDBRANCH  12  13
ENDBRANCH  11  12
ENDBRANCH   1  11
BRANCH   6  22
ATOM     22  C   LIG    1        4.619   1.742  -3.077  0.00  0.00    +0.056 C 
BRANCH  22  23
ATOM     23  C   LIG    1        4.259   3.228  -2.840  0.00  0.00    +0.061 C 
ATOM     24  C   LIG    1        5.337   4.008  -2.065  0.00  0.00    +0.020 C 
ATOM     25  C   LIG    1        5.225   5.441  -2.592  0.00  0.00    +0.017 C 
ATOM     26  C   LIG    1        4.042   5.395  -3.555  0.00  0.00    +0.084 C 
ATOM     27  N   LIG    1        3.995   4.022  -4.037  0.00  0.00    -0.302 NA
ATOM     28  C   LIG    1        2.718   3.716  -4.676  0.00  0.00    +0.105 C 
ENDBRANCH  22  23
ENDBRANCH   6  22
TORSDOF 6
