REMARK  Name = DB00551
REMARK                            x       y       z     vdW  Elec       q    Type
REMARK                         _______ _______ _______ _____ _____    ______ ____
ROOT
ATOM      1  N   LIG    1        1.312   0.092   0.000  0.00  0.00    -0.198 N 
ATOM      2  H   LIG    1        1.589   1.063   0.000  0.00  0.00    +0.182 HD
ATOM      3  C   LIG    1        2.093  -1.001   0.000  0.00  0.00    +0.232 C 
ATOM      4  C   LIG    1        3.598  -0.752   0.000  0.00  0.00    +0.111 C 
ATOM      5  O   LIG    1        1.673  -2.159   0.000  0.00  0.00    -0.274 OA
ENDROOT
BRANCH   1   6
ATOM      6  O   LIG    1       -0.076  -0.085   0.000  0.00  0.00    -0.295 OA
ATOM      7  H   LIG    1       -0.415   0.813   0.000  0.00  0.00    +0.241 HD
ENDBRANCH   1   6
TORSDOF 1
