REMARK  Name = DB00300
REMARK                            x       y       z     vdW  Elec       q    Type
REMARK                         _______ _______ _______ _____ _____    ______ ____
ROOT
ATOM      1  P   LIG    1        2.629  -0.009   0.190  0.00  0.00    +0.364 P 
ATOM      2  O   LIG    1        3.606   1.110   0.288  0.00  0.00    -0.256 OA
ENDROOT
BRANCH   1   3
ATOM      3  O   LIG    1        3.059  -1.352   1.012  0.00  0.00    -0.268 OA
BRANCH   3   4
ATOM      4  C   LIG    1        3.606  -1.264   2.318  0.00  0.00    +0.410 C 
BRANCH   4   5
ATOM      5  O   LIG    1        2.752  -0.555   3.208  0.00  0.00    -0.406 OA
BRANCH   5   6
ATOM      6  C   LIG    1        3.105  -0.360   4.489  0.00  0.00    +0.512 C 
ATOM      7  O   LIG    1        4.141  -0.758   5.031  0.00  0.00    -0.203 OA
BRANCH   6   8
ATOM      8  O   LIG    1        2.117   0.351   5.077  0.00  0.00    -0.431 OA
BRANCH   8  10
ATOM      9  C   LIG    1        0.752   1.059   6.909  0.00  0.00    +0.052 C 
ATOM     10  C   LIG    1        2.183   0.746   6.447  0.00  0.00    +0.174 C 
ATOM     11  C   LIG    1        3.120   1.956   6.636  0.00  0.00    +0.052 C 
ENDBRANCH   8  10
ENDBRANCH   6   8
ENDBRANCH   5   6
ENDBRANCH   4   5
ENDBRANCH   3   4
ENDBRANCH   1   3
BRANCH   1  12
ATOM     12  O   LIG    1        2.402  -0.588  -1.316  0.00  0.00    -0.268 OA
BRANCH  12  13
ATOM     13  C   LIG    1        2.419   0.301  -2.416  0.00  0.00    +0.410 C 
BRANCH  13  14
ATOM     14  O   LIG    1        1.953  -0.348  -3.589  0.00  0.00    -0.406 OA
BRANCH  14  15
ATOM     15  C   LIG    1        1.928   0.306  -4.765  0.00  0.00    +0.512 C 
ATOM     16  O   LIG    1        2.284   1.471  -4.960  0.00  0.00    -0.203 OA
BRANCH  15  17
ATOM     17  O   LIG    1        1.440  -0.546  -5.694  0.00  0.00    -0.431 OA
BRANCH  17  18
ATOM     18  C   LIG    1        1.318  -0.174  -7.067  0.00  0.00    +0.174 C 
ATOM     19  C   LIG    1        2.680  -0.251  -7.785  0.00  0.00    +0.052 C 
ATOM     20  C   LIG    1        0.280  -1.104  -7.713  0.00  0.00    +0.052 C 
ENDBRANCH  17  18
ENDBRANCH  15  17
ENDBRANCH  14  15
ENDBRANCH  13  14
ENDBRANCH  12  13
ENDBRANCH   1  12
BRANCH   1  21
ATOM     21  C   LIG    1        0.901   0.257   0.774  0.00  0.00    +0.287 C 
BRANCH  21  22
ATOM     22  O   LIG    1        0.214   0.954  -0.259  0.00  0.00    -0.363 OA
BRANCH  22  23
ATOM     23  C   LIG    1       -1.142   1.298   0.016  0.00  0.00    +0.136 C 
ATOM     24  C   LIG    1       -2.050   0.054  -0.086  0.00  0.00    +0.040 C 
BRANCH  23  25
ATOM     25  C   LIG    1       -1.509   2.407  -0.994  0.00  0.00    +0.156 C 
BRANCH  25  26
ATOM     26  N   LIG    1       -2.841   2.982  -0.739  0.00  0.00    -0.312 N 
ATOM     27  C   LIG    1       -4.028   2.606  -1.302  0.00  0.00    +0.165 A 
ATOM     28  N   LIG    1       -4.277   1.640  -2.221  0.00  0.00    -0.216 NA
ATOM     29  C   LIG    1       -5.585   1.574  -2.517  0.00  0.00    +0.225 A 
ATOM     30  N   LIG    1       -6.602   2.306  -2.039  0.00  0.00    -0.219 NA
ATOM     31  C   LIG    1       -6.318   3.269  -1.119  0.00  0.00    +0.147 A 
ATOM     32  C   LIG    1       -4.970   3.439  -0.722  0.00  0.00    +0.147 A 
ATOM     33  N   LIG    1       -4.398   4.288   0.149  0.00  0.00    -0.231 NA
ATOM     34  C   LIG    1       -3.123   3.987   0.113  0.00  0.00    +0.201 A 
BRANCH  31  35
ATOM     35  N   LIG    1       -7.364   4.037  -0.612  0.00  0.00    -0.341 N 
ATOM     36  H   LIG    1       -8.305   3.866  -0.934  0.00  0.00    +0.144 HD
ATOM     37  H   LIG    1       -7.166   4.751   0.074  0.00  0.00    +0.144 HD
ENDBRANCH  31  35
ENDBRANCH  25  26
ENDBRANCH  23  25
ENDBRANCH  22  23
ENDBRANCH  21  22
ENDBRANCH   1  21
TORSDOF 18
