REMARK  Name = DB00739
REMARK                            x       y       z     vdW  Elec       q    Type
REMARK                         _______ _______ _______ _____ _____    ______ ____
ROOT
ATOM      1  N   LIG    1       -0.143   0.190   0.034  0.00  0.00    -0.268 N 
ATOM      2  C   LIG    1       -1.038   1.195   0.218  0.00  0.00    +0.239 C 
ATOM      3  CA  LIG    1       -2.392   0.608  -0.196  0.00  0.00    +0.173 C 
ATOM      4  N   LIG    1       -2.075  -0.569  -0.974  0.00  0.00    -0.282 NA
ATOM      5  H   LIG    1       -2.748  -1.296  -0.778  0.00  0.00    +0.125 HD
ATOM      6  O   LIG    1       -0.849   2.344   0.622  0.00  0.00    -0.273 OA
ATOM      7  C   LIG    1       -0.783  -1.021  -0.504  0.00  0.00    +0.084 C 
ATOM      8  C   LIG    1       -0.938  -2.075   0.620  0.00  0.00    +0.049 C 
ATOM      9  C   LIG    1       -0.004  -1.617  -1.699  0.00  0.00    +0.049 C 
ENDROOT
BRANCH   1  17
ATOM     10  S   LIG    1        1.607   2.257  -1.904  0.00  0.00    -0.127 S 
ATOM     11  C   LIG    1        2.931   3.408  -1.427  0.00  0.00    +0.042 C 
ATOM     12  C   LIG    1        2.594   4.866  -1.799  0.00  0.00    +0.025 C 
ATOM     13  C   LIG    1        4.170   2.985  -2.267  0.00  0.00    +0.025 C 
ATOM     14  CA  LIG    1        3.116   3.160   0.113  0.00  0.00    +0.201 C 
ATOM     15  N   LIG    1        2.814   1.738   0.332  0.00  0.00    -0.271 N 
ATOM     16  C   LIG    1        1.905   1.272   1.288  0.00  0.00    +0.240 C 
ATOM     17  CA  LIG    1        1.322   0.257   0.268  0.00  0.00    +0.194 C 
ATOM     18  O   LIG    1        1.637   1.617   2.437  0.00  0.00    -0.273 OA
ATOM     19  C   LIG    1        2.208   0.965  -0.785  0.00  0.00    +0.165 C 
BRANCH  14  20
ATOM     20  C   LIG    1        4.482   3.600   0.685  0.00  0.00    +0.327 C 
ATOM     21  OXT LIG    1        5.351   2.833   1.045  0.00  0.00    -0.249 OA
BRANCH  20  22
ATOM     22  O   LIG    1        4.547   4.961   0.761  0.00  0.00    -0.479 OA
ATOM     23  H   LIG    1        5.377   5.266   1.134  0.00  0.00    +0.295 HD
ENDBRANCH  20  22
ENDBRANCH  14  20
ENDBRANCH   1  17
BRANCH   3  24
ATOM     24  C   LIG    1       -3.279   1.585  -0.975  0.00  0.00    -0.022 A 
ATOM     25  C   LIG    1       -2.832   2.170  -2.168  0.00  0.00    +0.005 A 
ATOM     26  C   LIG    1       -3.651   3.054  -2.865  0.00  0.00    +0.000 A 
ATOM     27  C   LIG    1       -4.918   3.354  -2.371  0.00  0.00    +0.000 A 
ATOM     28  C   LIG    1       -5.374   2.777  -1.188  0.00  0.00    +0.000 A 
ATOM     29  C   LIG    1       -4.555   1.892  -0.491  0.00  0.00    +0.005 A 
ENDBRANCH   3  24
TORSDOF 4
