REMARK  Name = DB00581
REMARK                            x       y       z     vdW  Elec       q    Type
REMARK                         _______ _______ _______ _____ _____    ______ ____
ROOT
ATOM      1  O   LIG    1       -0.016   0.055   0.088  0.00  0.00    -0.340 OA
ENDROOT
BRANCH   1   2
ATOM      2  C   LIG    1       -0.650   1.298   0.096  0.00  0.00    +0.282 C 
ATOM      3  C   LIG    1       -2.166   1.040   0.025  0.00  0.00    +0.201 C 
ATOM      4  C   LIG    1       -2.938   2.376   0.161  0.00  0.00    +0.179 C 
ATOM      5  C   LIG    1       -2.452   3.189   1.382  0.00  0.00    +0.177 C 
ATOM      6  C   LIG    1       -0.904   3.301   1.348  0.00  0.00    +0.178 C 
ATOM      7  O   LIG    1       -0.339   1.987   1.283  0.00  0.00    -0.341 OA
BRANCH   5   8
ATOM      8  O   LIG    1       -2.914   2.646   2.610  0.00  0.00    -0.386 OA
ATOM      9  H   LIG    1       -2.760   3.289   3.305  0.00  0.00    +0.210 HD
ENDBRANCH   5   8
BRANCH   4  10
ATOM     10  O   LIG    1       -4.345   2.193   0.161  0.00  0.00    -0.386 OA
ATOM     11  H   LIG    1       -4.728   2.764  -0.510  0.00  0.00    +0.210 HD
ENDBRANCH   4  10
BRANCH   3  12
ATOM     12  O   LIG    1       -2.513   0.366  -1.173  0.00  0.00    -0.384 OA
ATOM     13  H   LIG    1       -3.469   0.378  -1.259  0.00  0.00    +0.210 HD
ENDBRANCH   3  12
BRANCH   6  14
ATOM     14  C   LIG    1       -0.281   4.040   2.552  0.00  0.00    +0.190 C 
BRANCH  14  15
ATOM     15  O   LIG    1       -0.721   5.382   2.616  0.00  0.00    -0.392 OA
ATOM     16  H   LIG    1       -0.298   5.807   3.366  0.00  0.00    +0.210 HD
ENDBRANCH  14  15
ENDBRANCH   6  14
ENDBRANCH   1   2
BRANCH   1  17
ATOM     17  C   LIG    1        1.409   0.078  -0.005  0.00  0.00    +0.186 C 
ATOM     18  C   LIG    1        1.857  -0.794  -1.186  0.00  0.00    +0.178 C 
ATOM     19  O   LIG    1        3.021  -1.465  -0.697  0.00  0.00    -0.336 OA
ATOM     20  C   LIG    1        3.365  -1.059   0.598  0.00  0.00    +0.220 C 
ATOM     21  C   LIG    1        2.019  -0.615   1.210  0.00  0.00    +0.207 C 
BRANCH  20  22
ATOM     22  O   LIG    1        4.216   0.030   0.581  0.00  0.00    -0.361 OA
ATOM     23  H   LIG    1        5.025  -0.236   0.137  0.00  0.00    +0.213 HD
ENDBRANCH  20  22
BRANCH  21  24
ATOM     24  O   LIG    1        2.143   0.183   2.378  0.00  0.00    -0.384 OA
ATOM     25  H   LIG    1        2.475   1.046   2.121  0.00  0.00    +0.210 HD
ENDBRANCH  21  24
BRANCH  18  26
ATOM     26  C   LIG    1        2.211  -0.042  -2.481  0.00  0.00    +0.190 C 
BRANCH  26  27
ATOM     27  O   LIG    1        1.037   0.415  -3.122  0.00  0.00    -0.392 OA
ATOM     28  H   LIG    1        0.620   1.075  -2.564  0.00  0.00    +0.210 HD
ENDBRANCH  26  27
ENDBRANCH  18  26
BRANCH  20  29
ATOM     29  C   LIG    1        4.063  -2.234   1.296  0.00  0.00    +0.223 C 
BRANCH  29  30
ATOM     30  O   LIG    1        3.249  -3.391   1.341  0.00  0.00    -0.390 OA
ATOM     31  H   LIG    1        3.148  -3.727   0.447  0.00  0.00    +0.210 HD
ENDBRANCH  29  30
ENDBRANCH  20  29
ENDBRANCH   1  17
TORSDOF 13
