REMARK  Name = DB00123
REMARK                            x       y       z     vdW  Elec       q    Type
REMARK                         _______ _______ _______ _____ _____    ______ ____
ROOT
ATOM      1  CA  LYS A  1       -0.556   1.468  -0.070  0.00  0.00    +0.161 C 
ENDROOT
BRANCH   1   2
ATOM      2  N   LYS A  1       -2.023   1.484   0.053  0.00  0.00    -0.318 NA
ATOM      3  H1  LYS A  1       -2.347   2.420   0.251  0.00  0.00    +0.119 HD
ATOM      4  H2  LYS A  1       -2.316   0.923   0.839  0.00  0.00    +0.119 HD
ENDBRANCH   1   2
BRANCH   1   5
ATOM      5  C   LYS A  1       -0.206   2.286  -1.329  0.00  0.00    +0.322 C 
ATOM      6  OXT LYS A  1        0.299   3.404  -1.257  0.00  0.00    -0.249 OA
BRANCH   5   7
ATOM      7  O   LYS A  1       -0.519   1.634  -2.489  0.00  0.00    -0.480 OA
ATOM      8  H   LYS A  1       -0.302   2.151  -3.268  0.00  0.00    +0.295 HD
ENDBRANCH   5   7
ENDBRANCH   1   5
BRANCH   1   9
ATOM      9  CB  LYS A  1        0.019   0.031  -0.066  0.00  0.00    +0.030 C 
BRANCH   9  10
ATOM     10  CG  LYS A  1        1.557  -0.036  -0.020  0.00  0.00    +0.003 C 
BRANCH  10  11
ATOM     11  CD  LYS A  1        2.082  -1.478   0.021  0.00  0.00    +0.015 C 
BRANCH  11  12
ATOM     12  CE  LYS A  1        3.615  -1.538   0.065  0.00  0.00    +0.077 C 
BRANCH  12  13
ATOM     13  NZ  LYS A  1        4.059  -2.917   0.090  0.00  0.00    -0.330 NA
ATOM     14  HZ1 LYS A  1        3.717  -3.401  -0.728  0.00  0.00    +0.118 HD
ATOM     15  HZ2 LYS A  1        3.665  -3.389   0.891  0.00  0.00    +0.118 HD
ENDBRANCH  12  13
ENDBRANCH  11  12
ENDBRANCH  10  11
ENDBRANCH   9  10
ENDBRANCH   1   9
TORSDOF 8
