REMARK  Name = DB00326
REMARK                            x       y       z     vdW  Elec       q    Type
REMARK                         _______ _______ _______ _____ _____    ______ ____
ROOT
ATOM      1  C   LIG    1       -0.012   0.190   0.109  0.00  0.00    +0.177 C 
ENDROOT
BRANCH   1   2
ATOM      2  O   LIG    1       -0.480   1.530   0.097  0.00  0.00    -0.386 OA
ATOM      3  H   LIG    1       -1.438   1.515   0.169  0.00  0.00    +0.210 HD
ENDBRANCH   1   2
BRANCH   1   4
ATOM      4  C   LIG    1        1.547   0.145  -0.008  0.00  0.00    +0.176 C 
BRANCH   4   5
ATOM      5  O   LIG    1        2.163   0.716   1.136  0.00  0.00    -0.386 OA
ATOM      6  H   LIG    1        1.863   1.625   1.216  0.00  0.00    +0.210 HD
ENDBRANCH   4   5
BRANCH   4   7
ATOM      7  C   LIG    1        2.131   0.816  -1.288  0.00  0.00    +0.171 C 
BRANCH   7   8
ATOM      8  O   LIG    1        1.523   0.260  -2.443  0.00  0.00    -0.387 OA
ATOM      9  H   LIG    1        0.572   0.374  -2.370  0.00  0.00    +0.210 HD
ENDBRANCH   7   8
BRANCH   7  10
ATOM     10  C   LIG    1        3.666   0.660  -1.429  0.00  0.00    +0.189 C 
BRANCH  10  11
ATOM     11  O   LIG    1        4.170   1.464  -2.478  0.00  0.00    -0.392 OA
ATOM     12  H   LIG    1        3.824   1.128  -3.308  0.00  0.00    +0.210 HD
ENDBRANCH  10  11
ENDBRANCH   7  10
ENDBRANCH   4   7
ENDBRANCH   1   4
BRANCH   1  13
ATOM     13  C   LIG    1       -0.645  -0.611   1.294  0.00  0.00    +0.185 C 
BRANCH  13  14
ATOM     14  O   LIG    1       -0.173  -0.114   2.539  0.00  0.00    -0.386 OA
ATOM     15  H   LIG    1        0.786  -0.078   2.507  0.00  0.00    +0.210 HD
ENDBRANCH  13  14
BRANCH  13  16
ATOM     16  C   LIG    1       -2.212  -0.675   1.288  0.00  0.00    +0.254 C 
BRANCH  16  17
ATOM     17  O   LIG    1       -2.681  -1.028  -0.011  0.00  0.00    -0.378 OA
ATOM     18  H   LIG    1       -3.114  -1.884   0.054  0.00  0.00    +0.211 HD
ENDBRANCH  16  17
BRANCH  16  19
ATOM     19  C   LIG    1       -2.760  -1.676   2.355  0.00  0.00    +0.336 C 
ATOM     20  O   LIG    1       -2.889  -1.245   3.525  0.00  0.00    -0.248 OA
BRANCH  19  21
ATOM     21  O   LIG    1       -3.052  -2.849   2.017  0.00  0.00    -0.479 OA
ATOM     22  H   LIG    1       -3.380  -3.452   2.654  0.00  0.00    +0.295 HD
ENDBRANCH  19  21
ENDBRANCH  16  19
ENDBRANCH  13  16
ENDBRANCH   1  13
TORSDOF 13
