REMARK  Name = DB00486
REMARK                            x       y       z     vdW  Elec       q    Type
REMARK                         _______ _______ _______ _____ _____    ______ ____
ROOT
ATOM      1  O   LIG    1       -0.412  -0.397   4.809  0.00  0.00    -0.486 OA
ATOM      2  C   LIG    1       -0.823  -0.971   3.620  0.00  0.00    +0.128 A 
ATOM      3  C   LIG    1       -0.336  -0.337   2.479  0.00  0.00    +0.050 A 
ATOM      4  C   LIG    1       -0.692  -0.774   1.199  0.00  0.00    -0.035 A 
ATOM      5  C   LIG    1       -1.555  -1.874   1.107  0.00  0.00    +0.050 A 
ATOM      6  C   LIG    1       -2.047  -2.511   2.248  0.00  0.00    +0.124 A 
ATOM      7  C   LIG    1       -1.710  -2.063   3.541  0.00  0.00    +0.040 A 
ATOM      8  C   LIG    1       -2.193  -2.727   4.848  0.00  0.00    +0.040 C 
ATOM      9  C   LIG    1       -3.676  -3.208   4.872  0.00  0.00    +0.083 C 
ATOM     10  C   LIG    1       -4.134  -3.769   6.232  0.00  0.00    +0.134 C 
ATOM     11  C   LIG    1       -3.683  -2.973   7.463  0.00  0.00    +0.075 C 
ATOM     12  C   LIG    1       -2.190  -2.608   7.374  0.00  0.00    +0.015 C 
ATOM     13  O   LIG    1       -4.784  -4.809   6.328  0.00  0.00    -0.297 OA
ATOM     14  C   LIG    1       -1.876  -1.826   6.077  0.00  0.00    +0.041 C 
ATOM     15  C   LIG    1       -0.444  -1.207   5.992  0.00  0.00    +0.108 C 
ATOM     16  C   LIG    1       -0.221  -0.182   7.124  0.00  0.00    +0.055 C 
ATOM     17  C   LIG    1        0.682  -2.271   5.922  0.00  0.00    +0.055 C 
ENDROOT
BRANCH   4  18
ATOM     18  C   LIG    1       -0.122  -0.047  -0.048  0.00  0.00    -0.010 C 
ATOM     19  C   LIG    1       -0.585   1.432  -0.023  0.00  0.00    +0.016 C 
ATOM     20  C   LIG    1       -0.625  -0.650  -1.390  0.00  0.00    +0.016 C 
BRANCH  18  21
ATOM     21  C   LIG    1        1.439  -0.079  -0.034  0.00  0.00    +0.011 C 
BRANCH  21  22
ATOM     22  C   LIG    1        2.092  -1.480  -0.028  0.00  0.00    +0.001 C 
BRANCH  22  23
ATOM     23  C   LIG    1        3.628  -1.422   0.052  0.00  0.00    +0.000 C 
BRANCH  23  24
ATOM     24  C   LIG    1        4.284  -2.813   0.018  0.00  0.00    -0.000 C 
BRANCH  24  25
ATOM     25  C   LIG    1        5.819  -2.755   0.101  0.00  0.00    -0.003 C 
ATOM     26  C   LIG    1        6.475  -4.141   0.039  0.00  0.00    +0.004 C 
ENDBRANCH  24  25
ENDBRANCH  23  24
ENDBRANCH  22  23
ENDBRANCH  21  22
ENDBRANCH  18  21
ENDBRANCH   4  18
BRANCH   6  27
ATOM     27  O   LIG    1       -2.844  -3.607   2.050  0.00  0.00    -0.506 OA
ATOM     28  H   LIG    1       -2.981  -3.805   1.121  0.00  0.00    +0.292 HD
ENDBRANCH   6  27
TORSDOF 7
