REMARK  Name = DB00964
REMARK                            x       y       z     vdW  Elec       q    Type
REMARK                         _______ _______ _______ _____ _____    ______ ____
ROOT
ATOM      1 CL   LIG    1        0.740  -1.647  -1.010  0.00  0.00    -0.080 Cl
ATOM      2  C   LIG    1        1.962  -0.629  -0.322  0.00  0.00    +0.080 A 
ATOM      3  C   LIG    1        3.292  -0.862  -0.673  0.00  0.00    +0.046 A 
ATOM      4  C   LIG    1        4.310  -0.071  -0.142  0.00  0.00    +0.028 A 
ATOM      5  C   LIG    1        3.996   0.956   0.746  0.00  0.00    +0.046 A 
ATOM      6  C   LIG    1        2.669   1.197   1.105  0.00  0.00    +0.080 A 
ATOM      7 CL   LIG    1        2.339   2.484   2.216  0.00  0.00    -0.080 Cl
ATOM      8  C   LIG    1        1.636   0.408   0.570  0.00  0.00    +0.128 A 
ENDROOT
BRANCH   4   9
ATOM      9  N   LIG    1        5.637  -0.307  -0.498  0.00  0.00    -0.358 N 
ATOM     10  H   LIG    1        5.823  -0.948  -1.257  0.00  0.00    +0.142 HD
ATOM     11  H   LIG    1        6.336   0.366  -0.219  0.00  0.00    +0.142 HD
ENDBRANCH   4   9
BRANCH   8  12
ATOM     12  N   LIG    1        0.300   0.646   0.927  0.00  0.00    -0.204 N 
ATOM     13  H   LIG    1       -0.031   0.156   1.745  0.00  0.00    +0.251 HD
BRANCH  12  14
ATOM     14  C   LIG    1       -0.627   1.502   0.279  0.00  0.00    +0.369 C 
ATOM     15  N   LIG    1       -0.445   2.249  -0.735  0.00  0.00    -0.114 NA
ATOM     16  C   LIG    1       -1.704   2.868  -1.065  0.00  0.00    +0.277 C 
ATOM     17  C   LIG    1       -2.728   2.327  -0.080  0.00  0.00    +0.225 C 
ATOM     18  N   LIG    1       -1.931   1.545   0.826  0.00  0.00    -0.235 N 
ATOM     19  H   LIG    1       -2.410   0.841   1.368  0.00  0.00    +0.245 HD
ENDBRANCH  12  14
ENDBRANCH   8  12
TORSDOF 3
