REMARK  Name = DB00675
REMARK                            x       y       z     vdW  Elec       q    Type
REMARK                         _______ _______ _______ _____ _____    ______ ____
ROOT
ATOM      1  C   LIG    1        5.769  -0.078  -0.002  0.00  0.00    -0.007 C 
ATOM      2  C   LIG    1        6.415  -0.817   0.950  0.00  0.00    -0.032 C 
ENDROOT
BRANCH   1   6
ATOM      3  C   LIG    1        1.488   0.134  -0.353  0.00  0.00    +0.121 A 
ATOM      4  C   LIG    1        2.253   1.307  -0.262  0.00  0.00    +0.046 A 
ATOM      5  C   LIG    1        3.639   1.233  -0.148  0.00  0.00    +0.012 A 
ATOM      6  C   LIG    1        4.285  -0.007  -0.119  0.00  0.00    -0.017 A 
ATOM      7  C   LIG    1        3.519  -1.175  -0.211  0.00  0.00    +0.012 A 
ATOM      8  C   LIG    1        2.134  -1.102  -0.324  0.00  0.00    +0.046 A 
BRANCH   3   9
ATOM      9  O   LIG    1        0.112   0.107  -0.473  0.00  0.00    -0.491 OA
BRANCH   9  10
ATOM     10  C   LIG    1       -0.609   1.335  -0.536  0.00  0.00    +0.244 C 
BRANCH  10  11
ATOM     11  C   LIG    1       -2.101   1.013  -0.742  0.00  0.00    +0.124 C 
BRANCH  11  12
ATOM     12  N   LIG    1       -2.907   2.197  -1.057  0.00  0.00    -0.305 NA
ATOM     13  C   LIG    1       -2.993   3.124   0.071  0.00  0.00    +0.104 C 
ATOM     14  C   LIG    1       -4.255   1.788  -1.443  0.00  0.00    +0.104 C 
ENDBRANCH  11  12
ENDBRANCH  10  11
ENDBRANCH   9  10
ENDBRANCH   3   9
ENDBRANCH   1   6
BRANCH   1  15
ATOM     15  C   LIG    1        6.485   0.723  -1.030  0.00  0.00    -0.017 A 
ATOM     16  C   LIG    1        6.284   0.456  -2.389  0.00  0.00    +0.008 A 
ATOM     17  C   LIG    1        6.940   1.211  -3.358  0.00  0.00    +0.001 A 
ATOM     18  C   LIG    1        7.795   2.239  -2.969  0.00  0.00    +0.000 A 
ATOM     19  C   LIG    1        7.996   2.521  -1.620  0.00  0.00    +0.001 A 
ATOM     20  C   LIG    1        7.339   1.766  -0.652  0.00  0.00    +0.008 A 
ENDBRANCH   1  15
BRANCH   2  21
ATOM     21  C   LIG    1        5.690  -1.532   2.033  0.00  0.00    -0.021 A 
ATOM     22  C   LIG    1        5.834  -2.916   2.189  0.00  0.00    +0.008 A 
ATOM     23  C   LIG    1        5.155  -3.583   3.204  0.00  0.00    +0.001 A 
ATOM     24  C   LIG    1        4.332  -2.868   4.071  0.00  0.00    +0.000 A 
ATOM     25  C   LIG    1        4.183  -1.491   3.930  0.00  0.00    +0.001 A 
ATOM     26  C   LIG    1        4.863  -0.824   2.914  0.00  0.00    +0.008 A 
ENDBRANCH   2  21
BRANCH   2  27
ATOM     27  C   LIG    1        7.942  -0.962   1.017  0.00  0.00    +0.033 C 
ATOM     28  C   LIG    1        8.583  -0.288   2.241  0.00  0.00    +0.009 C 
ENDBRANCH   2  27
TORSDOF 8
