REMARK  Name = DB00961
REMARK                            x       y       z     vdW  Elec       q    Type
REMARK                         _______ _______ _______ _____ _____    ______ ____
ROOT
ATOM      1  C   LIG    1       -0.758   0.978   0.147  0.00  0.00    +0.234 C 
ATOM      2  O   LIG    1       -0.382   2.090   0.530  0.00  0.00    -0.274 OA
ATOM      3  N   LIG    1        0.086  -0.034  -0.147  0.00  0.00    -0.284 N 
ATOM      4  H   LIG    1       -0.302  -0.859  -0.579  0.00  0.00    +0.155 HD
ENDROOT
BRANCH   3   5
ATOM      5  C   LIG    1        1.490   0.015  -0.057  0.00  0.00    +0.039 A 
ATOM      6  C   LIG    1        2.161   0.258   1.165  0.00  0.00    -0.029 A 
ATOM      7  C   LIG    1        1.428   0.423   2.493  0.00  0.00    +0.045 C 
ATOM      8  C   LIG    1        3.559   0.292   1.183  0.00  0.00    +0.005 A 
ATOM      9  C   LIG    1        4.291   0.076   0.020  0.00  0.00    +0.001 A 
ATOM     10  C   LIG    1        3.633  -0.190  -1.177  0.00  0.00    +0.005 A 
ATOM     11  C   LIG    1        2.237  -0.231  -1.226  0.00  0.00    -0.029 A 
ATOM     12  C   LIG    1        1.562  -0.522  -2.563  0.00  0.00    +0.045 C 
ENDBRANCH   3   5
BRANCH   1  13
ATOM     13  C   LIG    1       -2.270   0.672  -0.034  0.00  0.00    +0.143 C 
ATOM     14  C   LIG    1       -2.820   0.235   1.355  0.00  0.00    +0.028 C 
ATOM     15  C   LIG    1       -4.343   0.047   1.349  0.00  0.00    +0.003 C 
ATOM     16  C   LIG    1       -5.021   1.298   0.780  0.00  0.00    +0.015 C 
ATOM     17  C   LIG    1       -4.452   1.679  -0.600  0.00  0.00    +0.085 C 
ATOM     18  N   LIG    1       -2.991   1.849  -0.584  0.00  0.00    -0.295 NA
ATOM     19  C   LIG    1       -2.556   2.230  -1.933  0.00  0.00    +0.105 C 
ENDBRANCH   1  13
TORSDOF 2
