REMARK  Name = DB00969
REMARK                            x       y       z     vdW  Elec       q    Type
REMARK                         _______ _______ _______ _____ _____    ______ ____
ROOT
ATOM      1  O   LIG    1        0.004  -2.387  -0.275  0.00  0.00    -0.270 OA
ATOM      2  C   LIG    1       -0.627  -1.335  -0.165  0.00  0.00    +0.249 C 
ATOM      3  C   LIG    1       -2.073  -1.240  -0.100  0.00  0.00    +0.065 A 
ATOM      4  C   LIG    1       -3.063  -2.245  -0.381  0.00  0.00    +0.012 A 
ATOM      5  C   LIG    1       -3.005  -3.577  -0.827  0.00  0.00    +0.011 A 
ATOM      6  C   LIG    1       -4.189  -4.284  -1.024  0.00  0.00    +0.001 A 
ATOM      7  C   LIG    1       -5.426  -3.692  -0.789  0.00  0.00    +0.002 A 
ATOM      8  C   LIG    1       -5.537  -2.375  -0.344  0.00  0.00    +0.026 A 
ATOM      9  C   LIG    1       -4.347  -1.663  -0.137  0.00  0.00    +0.050 A 
ATOM     10  N   LIG    1       -4.131  -0.370   0.309  0.00  0.00    -0.346 N 
ATOM     11  C   LIG    1       -5.178   0.593   0.628  0.00  0.00    +0.149 C 
ATOM     12  C   LIG    1       -2.773  -0.134   0.341  0.00  0.00    +0.033 A 
ATOM     13  C   LIG    1       -2.097   1.175   0.665  0.00  0.00    +0.073 C 
ATOM     14  C   LIG    1       -0.719   1.188  -0.040  0.00  0.00    +0.114 C 
ATOM     15  N   LIG    1       -0.006  -0.116   0.002  0.00  0.00    -0.291 N 
ENDROOT
BRANCH  15  16
ATOM     16  C   LIG    1        1.460  -0.035  -0.117  0.00  0.00    +0.165 C 
BRANCH  16  17
ATOM     17  C   LIG    1        1.933   0.134  -1.552  0.00  0.00    +0.079 A 
ATOM     18  C   LIG    1        2.438   1.283  -2.167  0.00  0.00    +0.037 A 
ATOM     19  C   LIG    1        2.678   2.695  -1.686  0.00  0.00    +0.065 C 
ATOM     20  N   LIG    1        2.719   0.889  -3.447  0.00  0.00    -0.348 N 
ATOM     21  H   LIG    1        3.100   1.462  -4.186  0.00  0.00    +0.166 HD
ATOM     22  C   LIG    1        2.380  -0.432  -3.526  0.00  0.00    +0.197 A 
ATOM     23  N   LIG    1        1.912  -0.893  -2.395  0.00  0.00    -0.239 NA
ENDBRANCH  16  17
ENDBRANCH  15  16
TORSDOF 2
