REMARK  Name = DB00710
REMARK                            x       y       z     vdW  Elec       q    Type
REMARK                         _______ _______ _______ _____ _____    ______ ____
ROOT
ATOM      1  C   LIG    1        1.952  -1.359  -0.248  0.00  0.00    +0.268 C 
ENDROOT
BRANCH   1   2
ATOM      2  P   LIG    1        3.807  -1.188  -0.576  0.00  0.00    +0.371 P 
ATOM      3  O   LIG    1        4.189  -0.615  -1.922  0.00  0.00    -0.255 OA
BRANCH   2   4
ATOM      4  O   LIG    1        4.365  -2.792  -0.325  0.00  0.00    -0.322 OA
ATOM      5  H   LIG    1        3.812  -3.517   0.023  0.00  0.00    +0.220 HD
ENDBRANCH   2   4
BRANCH   2   6
ATOM      6  O   LIG    1        4.355  -0.270   0.766  0.00  0.00    -0.322 OA
ATOM      7  H   LIG    1        3.795  -0.032   1.530  0.00  0.00    +0.220 HD
ENDBRANCH   2   6
ENDBRANCH   1   2
BRANCH   1   8
ATOM      8  P   LIG    1        0.872  -2.233  -1.541  0.00  0.00    +0.371 P 
ATOM      9  O   LIG    1       -0.416  -1.546  -1.935  0.00  0.00    -0.255 OA
BRANCH   8  10
ATOM     10  O   LIG    1        0.633  -3.797  -0.872  0.00  0.00    -0.322 OA
ATOM     11  H   LIG    1       -0.105  -4.384  -1.125  0.00  0.00    +0.220 HD
ENDBRANCH   8  10
BRANCH   8  12
ATOM     12  O   LIG    1        1.964  -2.441  -2.845  0.00  0.00    -0.322 OA
ATOM     13  H   LIG    1        2.450  -1.708  -3.272  0.00  0.00    +0.220 HD
ENDBRANCH   8  12
ENDBRANCH   1   8
BRANCH   1  14
ATOM     14  O   LIG    1        1.878  -2.154   0.927  0.00  0.00    -0.367 OA
ATOM     15  H   LIG    1        1.641  -3.050   0.675  0.00  0.00    +0.212 HD
ENDBRANCH   1  14
BRANCH   1  16
ATOM     16  C   LIG    1        1.355   0.041   0.076  0.00  0.00    +0.075 C 
BRANCH  16  17
ATOM     17  C   LIG    1       -0.007   0.054   0.824  0.00  0.00    +0.088 C 
BRANCH  17  18
ATOM     18  N   LIG    1       -0.721   1.329   0.695  0.00  0.00    -0.305 NA
ATOM     19  C   LIG    1       -1.752   1.406   1.731  0.00  0.00    +0.104 C 
BRANCH  18  20
ATOM     20  C   LIG    1       -1.316   1.468  -0.642  0.00  0.00    +0.084 C 
BRANCH  20  21
ATOM     21  C   LIG    1       -1.901   2.873  -0.908  0.00  0.00    +0.015 C 
BRANCH  21  22
ATOM     22  C   LIG    1       -2.202   3.119  -2.397  0.00  0.00    +0.001 C 
BRANCH  22  24
ATOM     23  C   LIG    1       -3.129   4.739  -4.151  0.00  0.00    +0.004 C 
ATOM     24  C   LIG    1       -2.833   4.496  -2.664  0.00  0.00    -0.003 C 
ENDBRANCH  22  24
ENDBRANCH  21  22
ENDBRANCH  20  21
ENDBRANCH  18  20
ENDBRANCH  17  18
ENDBRANCH  16  17
ENDBRANCH   1  16
TORSDOF 14
