REMARK  Name = DB00713
REMARK                            x       y       z     vdW  Elec       q    Type
REMARK                         _______ _______ _______ _____ _____    ______ ____
ROOT
ATOM      1  N   LIG    1       -0.066   0.082   0.298  0.00  0.00    -0.298 N 
ATOM      2  H   LIG    1       -0.509  -0.662   0.816  0.00  0.00    +0.150 HD
ATOM      3  C   LIG    1       -0.855   0.965  -0.340  0.00  0.00    +0.250 C 
ATOM      4  O   LIG    1       -0.441   1.910  -1.012  0.00  0.00    -0.270 OA
ENDROOT
BRANCH   1  12
ATOM      5  S   LIG    1        1.301  -1.627   2.707  0.00  0.00    -0.127 S 
ATOM      6  C   LIG    1        2.609  -2.884   2.570  0.00  0.00    +0.042 C 
ATOM      7  C   LIG    1        2.153  -4.259   3.099  0.00  0.00    +0.025 C 
ATOM      8  C   LIG    1        3.760  -2.388   3.493  0.00  0.00    +0.025 C 
ATOM      9  CA  LIG    1        2.990  -2.871   1.046  0.00  0.00    +0.201 C 
ATOM     10  N   LIG    1        2.791  -1.487   0.590  0.00  0.00    -0.271 N 
ATOM     11  C   LIG    1        1.998  -1.133  -0.508  0.00  0.00    +0.240 C 
ATOM     12  CA  LIG    1        1.399   0.054   0.278  0.00  0.00    +0.190 C 
ATOM     13  O   LIG    1        1.798  -1.650  -1.606  0.00  0.00    -0.273 OA
ATOM     14  C   LIG    1        2.117  -0.536   1.512  0.00  0.00    +0.165 C 
BRANCH   9  15
ATOM     15  C   LIG    1        4.389  -3.439   0.719  0.00  0.00    +0.327 C 
ATOM     16  OXT LIG    1        5.336  -2.762   0.373  0.00  0.00    -0.249 OA
BRANCH  15  17
ATOM     17  O   LIG    1        4.388  -4.798   0.837  0.00  0.00    -0.479 OA
ATOM     18  H   LIG    1        5.241  -5.183   0.622  0.00  0.00    +0.295 HD
ENDBRANCH  15  17
ENDBRANCH   9  15
ENDBRANCH   1  12
BRANCH   3  19
ATOM     19  C   LIG    1       -2.265   0.720  -0.170  0.00  0.00    +0.106 A 
ATOM     20  C   LIG    1       -2.918  -0.509  -0.178  0.00  0.00    +0.147 A 
ATOM     21  C   LIG    1       -2.490  -1.957  -0.287  0.00  0.00    +0.090 C 
ATOM     22  O   LIG    1       -4.251  -0.299  -0.069  0.00  0.00    -0.359 OA
ATOM     23  N   LIG    1       -4.489   1.071  -0.030  0.00  0.00    -0.077 NA
ATOM     24  C   LIG    1       -3.313   1.664  -0.098  0.00  0.00    +0.126 A 
BRANCH  24  25
ATOM     25  C   LIG    1       -3.246   3.161  -0.063  0.00  0.00    +0.004 A 
ATOM     26  C   LIG    1       -2.285   3.807   0.724  0.00  0.00    +0.010 A 
ATOM     27  C   LIG    1       -2.228   5.197   0.764  0.00  0.00    +0.001 A 
ATOM     28  C   LIG    1       -3.136   5.946   0.021  0.00  0.00    +0.000 A 
ATOM     29  C   LIG    1       -4.103   5.317  -0.760  0.00  0.00    +0.001 A 
ATOM     30  C   LIG    1       -4.159   3.927  -0.799  0.00  0.00    +0.010 A 
ENDBRANCH  24  25
ENDBRANCH   3  19
TORSDOF 5
