REMARK  Name = DB00576
REMARK                            x       y       z     vdW  Elec       q    Type
REMARK                         _______ _______ _______ _____ _____    ______ ____
ROOT
ATOM      1  S   LIG    1       -0.097  -0.016   0.000  0.00  0.00    +0.074 S 
ATOM      2  O   LIG    1       -0.555  -0.581   1.275  0.00  0.00    -0.150 OA
ATOM      3  O   LIG    1       -0.555  -0.581  -1.275  0.00  0.00    -0.150 OA
ENDROOT
BRANCH   1   4
ATOM      4  C   LIG    1       -0.458   1.736   0.000  0.00  0.00    +0.109 A 
ATOM      5  C   LIG    1       -0.589   2.418  -1.212  0.00  0.00    +0.030 A 
ATOM      6  C   LIG    1       -0.860   3.784  -1.211  0.00  0.00    +0.024 A 
ATOM      7  C   LIG    1       -0.995   4.463   0.000  0.00  0.00    +0.025 A 
ATOM      8  C   LIG    1       -0.860   3.784   1.211  0.00  0.00    +0.024 A 
ATOM      9  C   LIG    1       -0.589   2.418   1.212  0.00  0.00    +0.030 A 
BRANCH   7  10
ATOM     10  N   LIG    1       -1.266   5.830   0.000  0.00  0.00    -0.358 N 
ATOM     11  H   LIG    1       -1.375   6.316   0.879  0.00  0.00    +0.142 HD
ATOM     12  H   LIG    1       -1.375   6.316  -0.879  0.00  0.00    +0.142 HD
ENDBRANCH   7  10
ENDBRANCH   1   4
BRANCH   1  13
ATOM     13  N   LIG    1        1.671  -0.118   0.000  0.00  0.00    -0.192 N 
ATOM     14  H   LIG    1        2.145   0.773  -0.001  0.00  0.00    +0.176 HD
BRANCH  13  15
ATOM     15  C   LIG    1        2.373  -1.293   0.000  0.00  0.00    +0.201 A 
ATOM     16  N   LIG    1        1.871  -2.503   0.000  0.00  0.00    -0.125 NA
ATOM     17  N   LIG    1        2.854  -3.484   0.000  0.00  0.00    -0.145 NA
ATOM     18  C   LIG    1        4.074  -2.999   0.000  0.00  0.00    +0.101 A 
ATOM     19  C   LIG    1        5.312  -3.866   0.000  0.00  0.00    +0.075 C 
ATOM     20  S   LIG    1        4.109  -1.257   0.000  0.00  0.00    -0.035 S 
ENDBRANCH  13  15
ENDBRANCH   1  13
TORSDOF 4
