REMARK  Name = DB00918
REMARK                            x       y       z     vdW  Elec       q    Type
REMARK                         _______ _______ _______ _____ _____    ______ ____
ROOT
ATOM      1  C   LIG    1       -1.406   3.901  -0.090  0.00  0.00    -0.024 A 
ATOM      2  C   LIG    1       -2.761   3.618   0.088  0.00  0.00    +0.007 A 
ATOM      3  C   LIG    1       -3.233   2.314   0.228  0.00  0.00    +0.026 A 
ATOM      4  C   LIG    1       -2.285   1.287   0.182  0.00  0.00    +0.047 A 
ATOM      5  C   LIG    1       -0.891   1.539  -0.000  0.00  0.00    +0.003 A 
ATOM      6  C   LIG    1       -0.209   0.270   0.008  0.00  0.00    -0.021 A 
ATOM      7  C   LIG    1       -1.199  -0.680   0.185  0.00  0.00    +0.087 A 
ATOM      8  N   LIG    1       -2.426  -0.078   0.289  0.00  0.00    -0.360 N 
ATOM      9  H   LIG    1       -3.279  -0.602   0.426  0.00  0.00    +0.165 HD
ATOM     10  C   LIG    1       -0.466   2.870  -0.141  0.00  0.00    +0.015 A 
ENDROOT
BRANCH   1  11
ATOM     11  C   LIG    1       -0.947   5.343  -0.229  0.00  0.00    +0.220 C 
BRANCH  11  12
ATOM     12  S   LIG    1       -0.394   6.076   1.426  0.00  0.00    +0.036 S 
ATOM     13  O   LIG    1        0.564   5.149   2.040  0.00  0.00    -0.158 OA
ATOM     14  O   LIG    1       -0.028   7.478   1.198  0.00  0.00    -0.158 OA
BRANCH  12  15
ATOM     15  N   LIG    1       -1.880   6.041   2.384  0.00  0.00    -0.181 NA
ATOM     16  C   LIG    1       -2.041   5.078   3.502  0.00  0.00    +0.109 C 
ATOM     17  C   LIG    1       -3.314   5.567   4.177  0.00  0.00    +0.018 C 
ATOM     18  C   LIG    1       -3.252   7.068   3.977  0.00  0.00    +0.018 C 
ATOM     19  C   LIG    1       -2.728   7.254   2.550  0.00  0.00    +0.109 C 
ENDBRANCH  12  15
ENDBRANCH  11  12
ENDBRANCH   1  11
BRANCH   6  20
ATOM     20  C   LIG    1        1.281   0.038  -0.136  0.00  0.00    +0.052 C 
BRANCH  20  21
ATOM     21  C   LIG    1        2.038   0.478   1.136  0.00  0.00    +0.088 C 
BRANCH  21  22
ATOM     22  N   LIG    1        3.457   0.108   1.113  0.00  0.00    -0.308 NA
ATOM     23  C   LIG    1        4.205   0.839   0.091  0.00  0.00    +0.104 C 
ATOM     24  C   LIG    1        4.054   0.368   2.419  0.00  0.00    +0.104 C 
ENDBRANCH  21  22
ENDBRANCH  20  21
ENDBRANCH   6  20
TORSDOF 6
