REMARK  Name = DB00773
REMARK                            x       y       z     vdW  Elec       q    Type
REMARK                         _______ _______ _______ _____ _____    ______ ____
ROOT
ATOM      1  C   LIG    1       -0.956   1.731  -2.507  0.00  0.00    +0.159 C 
ATOM      2  C   LIG    1       -0.918   0.192  -2.497  0.00  0.00    -0.011 A 
ATOM      3  C   LIG    1       -1.435  -0.507  -3.604  0.00  0.00    +0.056 A 
ATOM      4  C   LIG    1       -1.463  -1.893  -3.572  0.00  0.00    +0.167 A 
ATOM      5  C   LIG    1       -1.024  -2.590  -2.491  0.00  0.00    +0.167 A 
ATOM      6  C   LIG    1       -0.524  -1.949  -1.368  0.00  0.00    +0.054 A 
ATOM      7  O   LIG    1       -1.199  -3.920  -2.707  0.00  0.00    -0.453 OA
ATOM      8  C   LIG    1       -1.580  -4.037  -4.052  0.00  0.00    +0.466 C 
ATOM      9  O   LIG    1       -1.936  -2.758  -4.507  0.00  0.00    -0.453 OA
ATOM     10  C   LIG    1       -0.464  -0.543  -1.353  0.00  0.00    -0.030 A 
ATOM     11  C   LIG    1        0.137   0.165  -0.119  0.00  0.00    +0.064 C 
ATOM     12  C   LIG    1       -0.291   1.655  -0.098  0.00  0.00    +0.118 C 
ATOM     13  C   LIG    1        0.346   2.675   0.844  0.00  0.00    +0.312 C 
ATOM     14  O   LIG    1        0.787   2.504   1.979  0.00  0.00    -0.250 OA
ATOM     15  O   LIG    1        0.403   3.878   0.221  0.00  0.00    -0.464 OA
ATOM     16  C   LIG    1       -0.107   3.808  -1.110  0.00  0.00    +0.239 C 
ATOM     17  C   LIG    1       -0.026   2.318  -1.427  0.00  0.00    +0.075 C 
ENDROOT
BRANCH  11  18
ATOM     18  C   LIG    1        1.651  -0.072   0.030  0.00  0.00    -0.032 A 
ATOM     19  C   LIG    1        2.194  -0.292   1.299  0.00  0.00    +0.054 A 
ATOM     20  C   LIG    1        3.568  -0.517   1.475  0.00  0.00    +0.165 A 
ATOM     21  C   LIG    1        4.397  -0.535   0.345  0.00  0.00    +0.201 A 
ATOM     22  C   LIG    1        3.877  -0.328  -0.940  0.00  0.00    +0.165 A 
ATOM     23  C   LIG    1        2.500  -0.099  -1.081  0.00  0.00    +0.054 A 
BRANCH  22  24
ATOM     24  O   LIG    1        4.764  -0.363  -2.003  0.00  0.00    -0.491 OA
ATOM     25  C   LIG    1        4.280  -0.158  -3.326  0.00  0.00    +0.277 C 
ENDBRANCH  22  24
BRANCH  21  26
ATOM     26  O   LIG    1        5.745  -0.757   0.497  0.00  0.00    -0.501 OA
ATOM     27  H   LIG    1        6.217  -0.742  -0.338  0.00  0.00    +0.292 HD
ENDBRANCH  21  26
BRANCH  20  28
ATOM     28  O   LIG    1        4.159  -0.724   2.710  0.00  0.00    -0.491 OA
ATOM     29  C   LIG    1        3.362  -0.658   3.888  0.00  0.00    +0.277 C 
ENDBRANCH  20  28
ENDBRANCH  11  18
BRANCH   1  30
ATOM     30  O   LIG    1       -2.275   2.188  -2.199  0.00  0.00    -0.340 OA
BRANCH  30  31
ATOM     31  C   LIG    1       -3.030   2.686  -3.261  0.00  0.00    +0.282 C 
ATOM     32  C   LIG    1       -4.474   2.868  -2.742  0.00  0.00    +0.201 C 
ATOM     33  C   LIG    1       -5.356   3.589  -3.797  0.00  0.00    +0.179 C 
ATOM     34  C   LIG    1       -4.646   4.850  -4.317  0.00  0.00    +0.183 C 
ATOM     35  C   LIG    1       -3.225   4.482  -4.767  0.00  0.00    +0.178 C 
ATOM     36  C   LIG    1       -2.555   5.758  -5.299  0.00  0.00    +0.197 C 
ATOM     37  O   LIG    1       -3.367   6.301  -6.346  0.00  0.00    -0.349 OA
ATOM     38  C   LIG    1       -4.671   6.574  -5.887  0.00  0.00    +0.248 C 
ATOM     39  C   LIG    1       -5.462   7.136  -7.053  0.00  0.00    +0.070 C 
ATOM     40  O   LIG    1       -5.314   5.396  -5.459  0.00  0.00    -0.343 OA
ATOM     41  O   LIG    1       -2.500   3.926  -3.672  0.00  0.00    -0.340 OA
BRANCH  33  42
ATOM     42  O   LIG    1       -6.631   3.911  -3.271  0.00  0.00    -0.386 OA
ATOM     43  H   LIG    1       -6.522   4.576  -2.588  0.00  0.00    +0.210 HD
ENDBRANCH  33  42
BRANCH  32  44
ATOM     44  O   LIG    1       -5.036   1.623  -2.362  0.00  0.00    -0.384 OA
ATOM     45  H   LIG    1       -5.395   1.198  -3.144  0.00  0.00    +0.210 HD
ENDBRANCH  32  44
ENDBRANCH  30  31
ENDBRANCH   1  30
TORSDOF 8
