REMARK  Name = DB00168
REMARK                            x       y       z     vdW  Elec       q    Type
REMARK                         _______ _______ _______ _____ _____    ______ ____
ROOT
ATOM      1  C   LIG    1       -0.724   1.025   0.023  0.00  0.00    +0.200 C 
ATOM      2  O   LIG    1       -0.299   2.180   0.125  0.00  0.00    -0.278 OA
ATOM      3  N   LIG    1        0.076  -0.055  -0.035  0.00  0.00    -0.303 N 
ATOM      4  H   LIG    1       -0.344  -0.972  -0.086  0.00  0.00    +0.149 HD
ENDROOT
BRANCH   1   5
ATOM      5  C   LIG    1       -2.239   0.712  -0.091  0.00  0.00    +0.023 C 
BRANCH   5   6
ATOM      6  N   LIG    1       -2.967   1.700   0.788  0.00  0.00    +0.386 N 
ATOM      7  H   LIG    1       -2.657   2.633   0.555  0.00  0.00    -0.089 HD
ATOM      8  H   LIG    1       -3.958   1.616   0.615  0.00  0.00    -0.089 HD
ATOM      9  H   LIG    1       -2.766   1.496   1.757  0.00  0.00    -0.089 HD
ENDBRANCH   5   6
BRANCH   5  10
ATOM     10  C   LIG    1       -2.699   0.708  -1.582  0.00  0.00    +0.113 C 
BRANCH  10  11
ATOM     11  C   LIG    1       -4.159   0.302  -1.876  0.00  0.00    +0.304 C 
ATOM     12  O   LIG    1       -4.570   0.521  -3.036  0.00  0.00    -0.251 OA
BRANCH  11  13
ATOM     13  O   LIG    1       -4.807  -0.308  -0.996  0.00  0.00    -0.481 OA
ATOM     14  H   LIG    1       -4.436  -0.437  -0.146  0.00  0.00    +0.295 HD
ENDBRANCH  11  13
ENDBRANCH  10  11
ENDBRANCH   5  10
ENDBRANCH   1   5
BRANCH   3  15
ATOM     15  C   LIG    1        1.542  -0.040   0.082  0.00  0.00    +0.186 C 
BRANCH  15  16
ATOM     16  C   LIG    1        2.057  -0.724  -1.177  0.00  0.00    +0.328 C 
ATOM     17  O   LIG    1        2.711  -1.771  -1.163  0.00  0.00    -0.249 OA
BRANCH  16  18
ATOM     18  O   LIG    1        1.751  -0.019  -2.295  0.00  0.00    -0.467 OA
ATOM     19  C   LIG    1        2.151  -0.482  -3.577  0.00  0.00    +0.280 C 
ENDBRANCH  16  18
ENDBRANCH  15  16
BRANCH  15  20
ATOM     20  C   LIG    1        1.983  -0.748   1.392  0.00  0.00    +0.069 C 
BRANCH  20  21
ATOM     21  C   LIG    1        1.540  -0.053   2.670  0.00  0.00    -0.045 A 
ATOM     22  C   LIG    1        0.313  -0.394   3.280  0.00  0.00    +0.004 A 
ATOM     23  C   LIG    1       -0.131   0.314   4.389  0.00  0.00    +0.000 A 
ATOM     24  C   LIG    1        0.615   1.375   4.887  0.00  0.00    +0.000 A 
ATOM     25  C   LIG    1        1.804   1.748   4.272  0.00  0.00    +0.000 A 
ATOM     26  C   LIG    1        2.265   1.053   3.162  0.00  0.00    +0.004 A 
ENDBRANCH  20  21
ENDBRANCH  15  20
ENDBRANCH   3  15
TORSDOF 10
