REMARK  Name = DB00230
REMARK                            x       y       z     vdW  Elec       q    Type
REMARK                         _______ _______ _______ _____ _____    ______ ____
ROOT
ATOM      1  C   LIG    1       -0.018   0.169  -0.024  0.00  0.00    +0.013 C 
ENDROOT
BRANCH   1   2
ATOM      2  C   LIG    1       -0.671  -0.461   1.243  0.00  0.00    +0.125 C 
BRANCH   2   3
ATOM      3  C   LIG    1       -2.208  -0.507   1.257  0.00  0.00    +0.305 C 
ATOM      4  O   LIG    1       -2.914  -0.330   0.265  0.00  0.00    -0.251 OA
BRANCH   3   5
ATOM      5  O   LIG    1       -2.680  -0.798   2.503  0.00  0.00    -0.481 OA
ATOM      6  H   LIG    1       -3.638  -0.841   2.528  0.00  0.00    +0.295 HD
ENDBRANCH   3   5
ENDBRANCH   2   3
ENDBRANCH   1   2
BRANCH   1   7
ATOM      7  C   LIG    1        1.530  -0.016  -0.030  0.00  0.00    +0.008 C 
BRANCH   7   8
ATOM      8  C   LIG    1        2.078  -1.468   0.006  0.00  0.00    -0.017 C 
ATOM      9  C   LIG    1        1.540  -2.345  -1.141  0.00  0.00    +0.007 C 
ATOM     10  C   LIG    1        3.618  -1.468   0.012  0.00  0.00    +0.007 C 
ENDBRANCH   7   8
ENDBRANCH   1   7
BRANCH   1  11
ATOM     11  C   LIG    1       -0.400   1.668  -0.180  0.00  0.00    +0.081 C 
BRANCH  11  12
ATOM     12  N   LIG    1        0.015   2.212  -1.461  0.00  0.00    -0.330 NA
ATOM     13  H   LIG    1       -0.275   3.178  -1.529  0.00  0.00    +0.118 HD
ATOM     14  H   LIG    1       -0.456   1.720  -2.206  0.00  0.00    +0.118 HD
ENDBRANCH  11  12
ENDBRANCH   1  11
TORSDOF 7
