REMARK  Name = DB00899
REMARK                            x       y       z     vdW  Elec       q    Type
REMARK                         _______ _______ _______ _____ _____    ______ ____
ROOT
ATOM      1  C   LIG    1       -2.853   0.720  -1.275  0.00  0.00    +0.141 C 
ATOM      2  C   LIG    1       -2.281  -0.628  -0.708  0.00  0.00    +0.053 C 
ATOM      3  C   LIG    1       -0.740  -0.801  -0.704  0.00  0.00    +0.087 C 
ATOM      4  N   LIG    1       -0.032   0.349  -0.125  0.00  0.00    -0.302 NA
ATOM      5  C   LIG    1       -0.425   1.606  -0.771  0.00  0.00    +0.087 C 
ATOM      6  C   LIG    1       -1.947   1.841  -0.648  0.00  0.00    +0.053 C 
ENDROOT
BRANCH   1   7
ATOM      7  N   LIG    1       -4.337   0.877  -0.995  0.00  0.00    -0.255 N 
ATOM      8  C   LIG    1       -5.293   0.010  -1.475  0.00  0.00    +0.220 C 
ATOM      9  O   LIG    1       -5.003  -0.997  -2.125  0.00  0.00    -0.275 OA
BRANCH   7  10
ATOM     10  C   LIG    1       -4.721   1.779   0.021  0.00  0.00    +0.037 A 
ATOM     11  C   LIG    1       -4.827   1.341   1.347  0.00  0.00    +0.023 A 
ATOM     12  C   LIG    1       -5.184   2.245   2.344  0.00  0.00    +0.002 A 
ATOM     13  C   LIG    1       -5.428   3.577   2.014  0.00  0.00    +0.000 A 
ATOM     14  C   LIG    1       -5.317   4.017   0.696  0.00  0.00    +0.002 A 
ATOM     15  C   LIG    1       -4.959   3.118  -0.305  0.00  0.00    +0.023 A 
ENDBRANCH   7  10
BRANCH   8  16
ATOM     16  C   LIG    1       -6.794   0.324  -1.250  0.00  0.00    +0.093 C 
ATOM     17  C   LIG    1       -7.767  -0.539  -2.076  0.00  0.00    +0.013 C 
ENDBRANCH   8  16
ENDBRANCH   1   7
BRANCH   1  18
ATOM     18  C   LIG    1       -2.673   0.880  -2.835  0.00  0.00    +0.331 C 
ATOM     19  O   LIG    1       -3.359   1.681  -3.480  0.00  0.00    -0.248 OA
BRANCH  18  20
ATOM     20  O   LIG    1       -1.724   0.086  -3.380  0.00  0.00    -0.466 OA
ATOM     21  C   LIG    1       -1.458   0.121  -4.775  0.00  0.00    +0.280 C 
ENDBRANCH  18  20
ENDBRANCH   1  18
BRANCH   4  22
ATOM     22  C   LIG    1        1.431   0.194  -0.126  0.00  0.00    +0.095 C 
BRANCH  22  23
ATOM     23  C   LIG    1        1.996  -0.567   1.098  0.00  0.00    +0.136 C 
BRANCH  23  24
ATOM     24  C   LIG    1        1.727  -2.074   1.144  0.00  0.00    +0.308 C 
ATOM     25  O   LIG    1        1.911  -2.791   0.158  0.00  0.00    -0.251 OA
BRANCH  24  26
ATOM     26  O   LIG    1        1.259  -2.475   2.343  0.00  0.00    -0.468 OA
ATOM     27  C   LIG    1        0.925  -3.837   2.567  0.00  0.00    +0.280 C 
ENDBRANCH  24  26
ENDBRANCH  23  24
ENDBRANCH  22  23
ENDBRANCH   4  22
TORSDOF 9
