REMARK  Name = DB00247
REMARK                            x       y       z     vdW  Elec       q    Type
REMARK                         _______ _______ _______ _____ _____    ______ ____
ROOT
ATOM      1  C   LIG    1       -3.562   0.705  -4.562  0.00  0.00    +0.009 A 
ATOM      2  C   LIG    1       -4.061   1.505  -3.527  0.00  0.00    -0.011 A 
ATOM      3  C   LIG    1       -3.490   1.645  -2.171  0.00  0.00    -0.025 C 
ATOM      4  C   LIG    1       -2.726   0.709  -1.573  0.00  0.00    -0.007 C 
ATOM      5  C   LIG    1       -2.227   0.832  -0.139  0.00  0.00    +0.112 C 
ATOM      6  C   LIG    1       -2.986   1.969   0.620  0.00  0.00    +0.101 C 
ATOM      7  N   LIG    1       -3.147   3.186  -0.184  0.00  0.00    -0.297 NA
ATOM      8  C   LIG    1       -3.610   4.323   0.605  0.00  0.00    +0.105 C 
ATOM      9  C   LIG    1       -3.852   2.974  -1.464  0.00  0.00    +0.091 C 
ATOM     10  C   LIG    1       -5.417   3.136  -1.441  0.00  0.00    +0.061 C 
ATOM     11  C   LIG    1       -5.958   3.006  -2.869  0.00  0.00    -0.020 A 
ATOM     12  C   LIG    1       -7.039   3.473  -3.596  0.00  0.00    +0.090 A 
ATOM     13  N   LIG    1       -7.016   2.959  -4.886  0.00  0.00    -0.349 N 
ATOM     14  C   LIG    1       -8.011   3.223  -5.911  0.00  0.00    +0.149 C 
ATOM     15  C   LIG    1       -5.906   2.136  -5.030  0.00  0.00    +0.050 A 
ATOM     16  C   LIG    1       -5.386   1.357  -6.073  0.00  0.00    +0.026 A 
ATOM     17  C   LIG    1       -5.249   2.185  -3.789  0.00  0.00    +0.011 A 
ATOM     18  C   LIG    1       -4.208   0.643  -5.803  0.00  0.00    +0.003 A 
ENDROOT
BRANCH   5  19
ATOM     19  C   LIG    1       -0.697   1.029  -0.078  0.00  0.00    +0.221 C 
ATOM     20  O   LIG    1       -0.198   2.140  -0.270  0.00  0.00    -0.275 OA
ATOM     21  N   LIG    1        0.038  -0.073   0.168  0.00  0.00    -0.310 N 
ATOM     22  H   LIG    1       -0.447  -0.952   0.276  0.00  0.00    +0.149 HD
BRANCH  21  23
ATOM     23  CA  LIG    1        1.505  -0.138   0.250  0.00  0.00    +0.098 C 
BRANCH  23  24
ATOM     24  C   LIG    1        2.043  -1.431  -0.406  0.00  0.00    +0.021 C 
ATOM     25  C   LIG    1        1.655  -1.603  -1.885  0.00  0.00    +0.006 C 
ENDBRANCH  23  24
BRANCH  23  26
ATOM     26  C   LIG    1        2.035   0.011   1.698  0.00  0.00    +0.178 C 
BRANCH  26  27
ATOM     27  O   LIG    1        1.550   1.174   2.341  0.00  0.00    -0.393 OA
ATOM     28  H   LIG    1        1.917   1.211   3.228  0.00  0.00    +0.209 HD
ENDBRANCH  26  27
ENDBRANCH  23  26
ENDBRANCH  21  23
ENDBRANCH   5  19
TORSDOF 5
