REMARK  Name = DB00645
REMARK                            x       y       z     vdW  Elec       q    Type
REMARK                         _______ _______ _______ _____ _____    ______ ____
ROOT
ATOM      1  C   LIG    1        4.230   0.010  -0.115  0.00  0.00    +0.018 A 
ATOM      2  C   LIG    1        3.442  -1.145  -0.202  0.00  0.00    +0.015 A 
ATOM      3  C   LIG    1        2.055  -1.062  -0.123  0.00  0.00    +0.046 A 
ATOM      4  C   LIG    1        1.426   0.171   0.046  0.00  0.00    +0.121 A 
ATOM      5  C   LIG    1        2.210   1.329   0.148  0.00  0.00    +0.046 A 
ATOM      6  C   LIG    1        3.598   1.248   0.068  0.00  0.00    +0.015 A 
ENDROOT
BRANCH   1   8
ATOM      7  O   LIG    1        6.308  -1.194  -0.286  0.00  0.00    -0.292 OA
ATOM      8  C   LIG    1        5.723  -0.113  -0.208  0.00  0.00    +0.164 C 
BRANCH   8   9
ATOM      9  C   LIG    1        6.568   1.173  -0.269  0.00  0.00    +0.095 C 
BRANCH   9  10
ATOM     10  C   LIG    1        6.940   1.820   1.089  0.00  0.00    +0.092 C 
BRANCH  10  11
ATOM     11  N   LIG    1        7.596   0.901   2.031  0.00  0.00    -0.302 NA
ATOM     12  C   LIG    1        6.653   0.347   3.017  0.00  0.00    +0.084 C 
ATOM     13  C   LIG    1        7.333  -0.681   3.945  0.00  0.00    +0.015 C 
ATOM     14  C   LIG    1        8.575  -0.099   4.636  0.00  0.00    +0.002 C 
ATOM     15  C   LIG    1        9.510   0.532   3.593  0.00  0.00    +0.015 C 
ATOM     16  C   LIG    1        8.766   1.521   2.670  0.00  0.00    +0.084 C 
ENDBRANCH  10  11
ENDBRANCH   9  10
ENDBRANCH   8   9
ENDBRANCH   1   8
BRANCH   4  17
ATOM     17  O   LIG    1        0.045   0.154   0.101  0.00  0.00    -0.492 OA
BRANCH  17  18
ATOM     18  C   LIG    1       -0.666   1.382   0.240  0.00  0.00    +0.229 C 
BRANCH  18  19
ATOM     19  C   LIG    1       -2.178   1.109   0.178  0.00  0.00    +0.041 C 
BRANCH  19  20
ATOM     20  C   LIG    1       -2.692   0.213   1.321  0.00  0.00    -0.000 C 
ATOM     21  C   LIG    1       -4.201  -0.053   1.238  0.00  0.00    +0.004 C 
ENDBRANCH  19  20
ENDBRANCH  18  19
ENDBRANCH  17  18
ENDBRANCH   4  17
TORSDOF 8
