REMARK  Name = DB00432
REMARK                            x       y       z     vdW  Elec       q    Type
REMARK                         _______ _______ _______ _____ _____    ______ ____
ROOT
ATOM      1  C   LIG    1       -1.846   1.152  -0.093  0.00  0.00    +0.135 A 
ATOM      2  C   LIG    1       -2.628   0.012   0.390  0.00  0.00    +0.266 A 
ATOM      3  N   LIG    1       -1.881  -1.111   0.600  0.00  0.00    -0.274 N 
ATOM      4  H   LIG    1       -2.400  -1.911   0.932  0.00  0.00    +0.173 HD
ATOM      5  C   LIG    1       -0.538  -1.324   0.426  0.00  0.00    +0.331 A 
ATOM      6  N   LIG    1        0.145  -0.212  -0.027  0.00  0.00    -0.273 N 
ATOM      7  O   LIG    1       -0.058  -2.434   0.663  0.00  0.00    -0.246 OA
ATOM      8  O   LIG    1       -3.840   0.020   0.598  0.00  0.00    -0.267 OA
ATOM      9  C   LIG    1       -0.518   0.968  -0.270  0.00  0.00    +0.111 A 
ENDROOT
BRANCH   6  10
ATOM     10  C1* LIG    1        1.579  -0.288  -0.280  0.00  0.00    +0.226 C 
ATOM     11  C2* LIG    1        2.032  -0.149  -1.726  0.00  0.00    +0.088 C 
ATOM     12  C3* LIG    1        3.498   0.198  -1.504  0.00  0.00    +0.150 C 
ATOM     13  C4* LIG    1        3.483   1.063  -0.231  0.00  0.00    +0.175 C 
ATOM     14  O4* LIG    1        2.253   0.722   0.410  0.00  0.00    -0.348 OA
BRANCH  12  15
ATOM     15  O3* LIG    1        4.303  -0.959  -1.361  0.00  0.00    -0.389 OA
ATOM     16  H3* LIG    1        4.013  -1.440  -0.582  0.00  0.00    +0.210 HD
ENDBRANCH  12  15
BRANCH  13  17
ATOM     17  C5* LIG    1        3.478   2.581  -0.508  0.00  0.00    +0.190 C 
BRANCH  17  18
ATOM     18  O5* LIG    1        3.484   3.316   0.698  0.00  0.00    -0.392 OA
ATOM     19  H5* LIG    1        3.478   4.252   0.488  0.00  0.00    +0.210 HD
ENDBRANCH  17  18
ENDBRANCH  13  17
ENDBRANCH   6  10
BRANCH   1  21
ATOM     20  F   LIG    1       -3.509   2.303  -1.297  0.00  0.00    -0.166 F 
ATOM     21  C   LIG    1       -2.574   2.473  -0.361  0.00  0.00    +0.424 C 
ATOM     22  F   LIG    1       -3.148   2.920   0.757  0.00  0.00    -0.166 F 
ATOM     23  F   LIG    1       -1.721   3.406  -0.792  0.00  0.00    -0.166 F 
ENDBRANCH   1  21
TORSDOF 5
