REMARK  Name = DB00266
REMARK                            x       y       z     vdW  Elec       q    Type
REMARK                         _______ _______ _______ _____ _____    ______ ____
ROOT
ATOM      1  C   LIG    1        1.307   0.000   0.273  0.00  0.00    +0.092 C 
ENDROOT
BRANCH   1   2
ATOM      2  C   LIG    1       -0.218   0.170   0.190  0.00  0.00    +0.084 A 
ATOM      3  C   LIG    1       -1.019  -1.005   0.621  0.00  0.00    +0.344 A 
ATOM      4  O   LIG    1       -0.607  -2.092   1.022  0.00  0.00    -0.245 OA
ATOM      5  O   LIG    1       -2.401  -0.883   0.571  0.00  0.00    -0.422 OA
ATOM      6  C   LIG    1       -3.031   0.271   0.129  0.00  0.00    +0.143 A 
ATOM      7  C   LIG    1       -4.426   0.271   0.120  0.00  0.00    +0.047 A 
ATOM      8  C   LIG    1       -5.114   1.404  -0.316  0.00  0.00    +0.004 A 
ATOM      9  C   LIG    1       -4.410   2.531  -0.740  0.00  0.00    +0.001 A 
ATOM     10  C   LIG    1       -3.014   2.531  -0.730  0.00  0.00    +0.015 A 
ATOM     11  C   LIG    1       -2.312   1.398  -0.294  0.00  0.00    +0.059 A 
ATOM     12  C   LIG    1       -0.840   1.291  -0.243  0.00  0.00    +0.138 A 
BRANCH  12  13
ATOM     13  O   LIG    1       -0.169   2.403  -0.656  0.00  0.00    -0.506 OA
ATOM     14  H   LIG    1       -0.800   3.086  -0.896  0.00  0.00    +0.292 HD
ENDBRANCH  12  13
ENDBRANCH   1   2
BRANCH   1  15
ATOM     15  C   LIG    1        1.894  -0.170   1.682  0.00  0.00    +0.084 A 
ATOM     16  C   LIG    1        1.754   1.005   2.582  0.00  0.00    +0.344 A 
ATOM     17  O   LIG    1        1.238   2.092   2.327  0.00  0.00    -0.245 OA
ATOM     18  O   LIG    1        2.262   0.883   3.868  0.00  0.00    -0.422 OA
ATOM     19  C   LIG    1        2.889  -0.271   4.314  0.00  0.00    +0.143 A 
ATOM     20  C   LIG    1        3.363  -0.272   5.627  0.00  0.00    +0.047 A 
ATOM     21  C   LIG    1        4.003  -1.404   6.131  0.00  0.00    +0.004 A 
ATOM     22  C   LIG    1        4.167  -2.531   5.325  0.00  0.00    +0.001 A 
ATOM     23  C   LIG    1        3.694  -2.531   4.012  0.00  0.00    +0.015 A 
ATOM     24  C   LIG    1        3.049  -1.398   3.495  0.00  0.00    +0.059 A 
ATOM     25  C   LIG    1        2.510  -1.291   2.125  0.00  0.00    +0.138 A 
BRANCH  25  26
ATOM     26  O   LIG    1        2.676  -2.403   1.354  0.00  0.00    -0.506 OA
ATOM     27  H   LIG    1        3.110  -3.086   1.869  0.00  0.00    +0.292 HD
ENDBRANCH  25  26
ENDBRANCH   1  15
TORSDOF 4
