REMARK  Name = DB00960
REMARK                            x       y       z     vdW  Elec       q    Type
REMARK                         _______ _______ _______ _____ _____    ______ ____
ROOT
ATOM      1  O   LIG    1       -1.880   1.696   0.033  0.00  0.00    -0.489 OA
ENDROOT
BRANCH   1   2
ATOM      2  C   LIG    1       -2.530   2.906   0.175  0.00  0.00    +0.130 A 
ATOM      3  C   LIG    1       -1.939   4.121   0.550  0.00  0.00    +0.046 A 
ATOM      4  C   LIG    1       -2.695   5.285   0.661  0.00  0.00    +0.006 A 
ATOM      5  C   LIG    1       -4.066   5.302   0.406  0.00  0.00    +0.026 A 
ATOM      6  C   LIG    1       -4.659   4.092   0.032  0.00  0.00    +0.050 A 
ATOM      7  N   LIG    1       -5.968   3.785  -0.281  0.00  0.00    -0.361 N 
ATOM      8  H   LIG    1       -6.759   4.413  -0.294  0.00  0.00    +0.165 HD
ATOM      9  C   LIG    1       -6.080   2.453  -0.591  0.00  0.00    +0.084 A 
ATOM     10  C   LIG    1       -4.840   1.859  -0.487  0.00  0.00    +0.031 A 
ATOM     11  C   LIG    1       -3.911   2.880  -0.090  0.00  0.00    +0.041 A 
ENDBRANCH   1   2
BRANCH   1  12
ATOM     12  C   LIG    1       -0.477   1.636   0.280  0.00  0.00    +0.261 C 
BRANCH  12  13
ATOM     13  C   LIG    1        0.024   0.197   0.034  0.00  0.00    +0.166 C 
BRANCH  13  14
ATOM     14  O   LIG    1       -0.518  -0.675   1.011  0.00  0.00    -0.387 OA
ATOM     15  H   LIG    1       -1.471  -0.561   1.022  0.00  0.00    +0.210 HD
ENDBRANCH  13  14
BRANCH  13  16
ATOM     16  C   LIG    1        1.564   0.058   0.002  0.00  0.00    +0.115 C 
BRANCH  16  17
ATOM     17  N   LIG    1        2.189   0.507   1.245  0.00  0.00    -0.311 NA
ATOM     18  H   LIG    1        1.717   0.094   2.037  0.00  0.00    +0.122 HD
BRANCH  17  19
ATOM     19  C   LIG    1        3.625   0.246   1.318  0.00  0.00    +0.048 C 
ATOM     20  C   LIG    1        4.417   1.085   0.294  0.00  0.00    +0.023 C 
ATOM     21  C   LIG    1        4.079   0.545   2.756  0.00  0.00    +0.023 C 
ENDBRANCH  17  19
ENDBRANCH  16  17
ENDBRANCH  13  16
ENDBRANCH  12  13
ENDBRANCH   1  12
TORSDOF 7
