REMARK  Name = DB00473
REMARK                            x       y       z     vdW  Elec       q    Type
REMARK                         _______ _______ _______ _____ _____    ______ ____
ROOT
ATOM      1  C   LIG    1        1.447  -0.416   0.079  0.00  0.00    +0.187 C 
ATOM      2  C   LIG    1        1.837  -1.890   0.311  0.00  0.00    +0.053 C 
ENDROOT
BRANCH   1   3
ATOM      3  O   LIG    1        2.067   0.423   1.059  0.00  0.00    -0.457 OA
BRANCH   3   4
ATOM      4  C   LIG    1        3.369   0.810   0.971  0.00  0.00    +0.339 C 
ATOM      5  O   LIG    1        4.119   0.473   0.050  0.00  0.00    -0.245 OA
BRANCH   4   6
ATOM      6  C   LIG    1        3.803   1.683   2.113  0.00  0.00    +0.059 A 
ATOM      7  C   LIG    1        5.137   2.114   2.177  0.00  0.00    +0.015 A 
ATOM      8  C   LIG    1        5.568   2.926   3.223  0.00  0.00    +0.001 A 
ATOM      9  C   LIG    1        4.670   3.313   4.213  0.00  0.00    +0.000 A 
ATOM     10  C   LIG    1        3.343   2.896   4.165  0.00  0.00    +0.001 A 
ATOM     11  C   LIG    1        2.910   2.084   3.120  0.00  0.00    +0.015 A 
ENDBRANCH   4   6
ENDBRANCH   3   4
ENDBRANCH   1   3
BRANCH   1  12
ATOM     12  C   LIG    1       -0.081  -0.221   0.158  0.00  0.00    +0.125 C 
BRANCH  12  13
ATOM     13  N   LIG    1       -0.443   1.138  -0.231  0.00  0.00    -0.310 NA
ATOM     14  H   LIG    1       -0.023   1.380  -1.117  0.00  0.00    +0.122 HD
BRANCH  13  15
ATOM     15  C   LIG    1       -1.882   1.380  -0.267  0.00  0.00    +0.054 C 
ATOM     16  C   LIG    1       -2.576   1.355   1.121  0.00  0.00    +0.019 C 
ATOM     17  C   LIG    1       -4.096   1.599   1.021  0.00  0.00    +0.002 C 
ATOM     18  C   LIG    1       -4.422   2.902   0.268  0.00  0.00    +0.000 C 
ATOM     19  C   LIG    1       -3.725   2.959  -1.104  0.00  0.00    +0.002 C 
ATOM     20  C   LIG    1       -2.208   2.709  -0.988  0.00  0.00    +0.019 C 
ENDBRANCH  13  15
ENDBRANCH  12  13
ENDBRANCH   1  12
TORSDOF 6
