REMARK  Name = DB00724
REMARK                            x       y       z     vdW  Elec       q    Type
REMARK                         _______ _______ _______ _____ _____    ______ ____
ROOT
ATOM      1  C   LIG    1       -0.708   2.045  -2.394  0.00  0.00    +0.026 A 
ATOM      2  C   LIG    1       -1.055   3.168  -3.206  0.00  0.00    +0.075 A 
ATOM      3  N   LIG    1       -1.505   4.339  -2.675  0.00  0.00    -0.230 NA
ATOM      4  C   LIG    1       -1.641   4.467  -1.332  0.00  0.00    +0.145 A 
ATOM      5  C   LIG    1       -1.325   3.424  -0.447  0.00  0.00    +0.129 A 
ATOM      6  N   LIG    1       -1.392   3.359   0.920  0.00  0.00    -0.232 NA
ATOM      7  C   LIG    1       -0.972   2.153   1.206  0.00  0.00    +0.200 A 
ATOM      8  N   LIG    1       -0.622   1.384   0.115  0.00  0.00    -0.329 N 
ATOM      9  C   LIG    1       -0.936   3.073  -4.614  0.00  0.00    +0.028 A 
ATOM     10  C   LIG    1       -0.488   1.894  -5.201  0.00  0.00    +0.002 A 
ATOM     11  C   LIG    1       -0.153   0.796  -4.416  0.00  0.00    +0.001 A 
ATOM     12  C   LIG    1       -0.850   2.204  -0.983  0.00  0.00    +0.081 A 
ATOM     13  C   LIG    1       -0.256   0.855  -3.028  0.00  0.00    +0.012 A 
ENDROOT
BRANCH   4  14
ATOM     14  N   LIG    1       -2.114   5.691  -0.862  0.00  0.00    -0.341 N 
ATOM     15  H   LIG    1       -2.334   6.421  -1.524  0.00  0.00    +0.144 HD
ATOM     16  H   LIG    1       -2.234   5.828   0.131  0.00  0.00    +0.144 HD
ENDBRANCH   4  14
BRANCH   8  17
ATOM     17  C   LIG    1       -0.097   0.022   0.191  0.00  0.00    +0.126 C 
BRANCH  17  18
ATOM     18  C   LIG    1        1.438  -0.027  -0.026  0.00  0.00    +0.003 C 
ATOM     19  C   LIG    1        2.221   0.743   1.058  0.00  0.00    +0.009 C 
ATOM     20  C   LIG    1        1.927  -1.482  -0.128  0.00  0.00    +0.009 C 
ENDBRANCH  17  18
ENDBRANCH   8  17
TORSDOF 3
