REMARK  Name = DB00611
REMARK                            x       y       z     vdW  Elec       q    Type
REMARK                         _______ _______ _______ _____ _____    ______ ____
ROOT
ATOM      1  C   LIG    1        0.251   2.561   1.636  0.00  0.00    +0.091 C 
ATOM      2  C   LIG    1        1.771   2.803   1.909  0.00  0.00    +0.037 C 
ATOM      3  C   LIG    1        2.073   3.336   3.325  0.00  0.00    +0.003 C 
ATOM      4  C   LIG    1        1.420   2.466   4.413  0.00  0.00    +0.001 C 
ATOM      5  C   LIG    1       -0.081   2.222   4.137  0.00  0.00    +0.014 C 
ATOM      6  C   LIG    1       -0.055   1.942   0.230  0.00  0.00    +0.093 C 
ATOM      7  C   LIG    1       -1.567   2.072  -0.078  0.00  0.00    +0.057 C 
ATOM      8  C   LIG    1       -2.461   1.691   1.110  0.00  0.00    -0.042 A 
ATOM      9  C   LIG    1       -3.834   1.527   0.887  0.00  0.00    +0.007 A 
ATOM     10  C   LIG    1       -4.706   1.211   1.921  0.00  0.00    +0.045 A 
ATOM     11  C   LIG    1       -4.212   1.048   3.208  0.00  0.00    +0.117 A 
ATOM     12  C   LIG    1       -2.850   1.202   3.450  0.00  0.00    +0.050 A 
ATOM     13  C   LIG    1       -1.943   1.527   2.426  0.00  0.00    -0.032 A 
ATOM     14  N   LIG    1        0.400   0.542   0.051  0.00  0.00    -0.296 NA
ATOM     15  C   LIG    1        0.061  -0.380   1.147  0.00  0.00    +0.086 C 
ATOM     16  C   LIG    1        0.251   0.228   2.552  0.00  0.00    +0.030 C 
ATOM     17  C   LIG    1       -0.413   1.630   2.721  0.00  0.00    +0.027 C 
ENDROOT
BRANCH   1  18
ATOM     18  O   LIG    1       -0.324   3.867   1.723  0.00  0.00    -0.386 OA
ATOM     19  H   LIG    1        0.087   4.426   1.060  0.00  0.00    +0.210 HD
ENDBRANCH   1  18
BRANCH  11  20
ATOM     20  O   LIG    1       -5.062   0.730   4.234  0.00  0.00    -0.507 OA
ATOM     21  H   LIG    1       -5.975   0.648   3.949  0.00  0.00    +0.292 HD
ENDBRANCH  11  20
BRANCH  14  22
ATOM     22  C   LIG    1        1.766   0.392  -0.466  0.00  0.00    +0.088 C 
BRANCH  22  23
ATOM     23  C   LIG    1        1.901  -0.853  -1.368  0.00  0.00    +0.003 C 
ATOM     24  C   LIG    1        1.006  -0.944  -2.613  0.00  0.00    +0.005 C 
ATOM     25  C   LIG    1        2.200  -1.613  -3.315  0.00  0.00    +0.001 C 
ATOM     26  C   LIG    1        3.123  -0.926  -2.293  0.00  0.00    +0.005 C 
ENDBRANCH  22  23
ENDBRANCH  14  22
TORSDOF 4
