REMARK  Name = DB00380
REMARK                            x       y       z     vdW  Elec       q    Type
REMARK                         _______ _______ _______ _____ _____    ______ ____
ROOT
ATOM      1  C   LIG    1       -0.101  -0.106  -0.074  0.00  0.00    +0.069 C 
ATOM      2  C   LIG    1       -0.588   1.368  -0.172  0.00  0.00    +0.025 C 
ENDROOT
BRANCH   1   6
ATOM      3  O   LIG    1       -0.189  -3.953   2.958  0.00  0.00    -0.274 OA
ATOM      4  C   LIG    1       -0.612  -2.860   2.587  0.00  0.00    +0.233 C 
ATOM      5  C   LIG    1       -0.084  -2.162   1.309  0.00  0.00    +0.181 C 
ATOM      6  N   LIG    1       -0.585  -0.774   1.165  0.00  0.00    -0.282 NA
ATOM      7  C   LIG    1       -2.047  -0.639   1.371  0.00  0.00    +0.181 C 
ATOM      8  C   LIG    1       -2.543  -1.365   2.647  0.00  0.00    +0.233 C 
ATOM      9  O   LIG    1       -3.692  -1.245   3.065  0.00  0.00    -0.274 OA
ATOM     10  N   LIG    1       -1.716  -2.313   3.127  0.00  0.00    -0.254 N 
ATOM     11  H   LIG    1       -2.030  -2.753   3.979  0.00  0.00    +0.158 HD
ENDBRANCH   1   6
BRANCH   1  12
ATOM     12  C   LIG    1        1.456  -0.196  -0.202  0.00  0.00    +0.104 C 
BRANCH  12  13
ATOM     13  N   LIG    1        2.041   0.561  -1.318  0.00  0.00    -0.284 NA
ATOM     14  C   LIG    1        3.501   0.689  -1.159  0.00  0.00    +0.181 C 
ATOM     15  C   LIG    1        4.136   1.473  -2.337  0.00  0.00    +0.233 C 
ATOM     16  N   LIG    1        3.396   1.518  -3.464  0.00  0.00    -0.254 N 
ATOM     17  H   LIG    1        3.801   2.060  -4.213  0.00  0.00    +0.158 HD
ATOM     18  C   LIG    1        2.268   0.856  -3.794  0.00  0.00    +0.233 C 
ATOM     19  O   LIG    1        1.923   0.717  -4.966  0.00  0.00    -0.274 OA
ATOM     20  O   LIG    1        5.308   1.842  -2.322  0.00  0.00    -0.274 OA
ATOM     21  C   LIG    1        1.599   0.069  -2.638  0.00  0.00    +0.181 C 
ENDBRANCH  12  13
ENDBRANCH   1  12
TORSDOF 3
