REMARK  Name = DB00294
REMARK                            x       y       z     vdW  Elec       q    Type
REMARK                         _______ _______ _______ _____ _____    ______ ____
ROOT
ATOM      1  C   LIG    1       -0.248   0.611  -2.373  0.00  0.00    +0.008 C 
ATOM      2  C   LIG    1       -0.387   1.922  -1.572  0.00  0.00    +0.049 C 
ATOM      3  C   LIG    1       -0.595   1.544  -0.072  0.00  0.00    +0.132 C 
ATOM      4  C   LIG    1        0.050   0.098   0.019  0.00  0.00    +0.017 C 
ATOM      5  C   LIG    1       -0.480  -0.872   1.131  0.00  0.00    +0.041 C 
ATOM      6  C   LIG    1        0.060  -2.288   0.879  0.00  0.00    -0.072 C 
ATOM      7  C   LIG    1        0.892  -2.888   1.753  0.00  0.00    +0.008 C 
ATOM      8  C   LIG    1       -0.422  -2.891  -0.464  0.00  0.00    +0.025 C 
ATOM      9  C   LIG    1        0.030  -1.942  -1.622  0.00  0.00    +0.001 C 
ATOM     10  C   LIG    1       -0.492  -2.472  -2.969  0.00  0.00    +0.009 C 
ATOM     11  C   LIG    1        0.070  -3.866  -3.262  0.00  0.00    +0.031 C 
ATOM     12  C   LIG    1       -0.394  -4.834  -2.177  0.00  0.00    -0.063 C 
ATOM     13  C   LIG    1       -1.004  -6.000  -2.491  0.00  0.00    +0.045 C 
ATOM     14  C   LIG    1       -1.419  -7.003  -1.523  0.00  0.00    +0.156 C 
ATOM     15  O   LIG    1       -2.080  -7.987  -1.849  0.00  0.00    -0.293 OA
ATOM     16  C   LIG    1       -0.859  -6.827  -0.109  0.00  0.00    +0.079 C 
ATOM     17  C   LIG    1       -0.821  -5.340   0.289  0.00  0.00    +0.016 C 
ATOM     18  C   LIG    1       -0.079  -4.405  -0.719  0.00  0.00    +0.023 C 
ATOM     19  C   LIG    1       -0.455  -0.494  -1.332  0.00  0.00    +0.003 C 
ENDROOT
BRANCH   3  20
ATOM     20  O   LIG    1        0.012   2.518   0.754  0.00  0.00    -0.376 OA
ATOM     21  H   LIG    1       -0.031   2.212   1.662  0.00  0.00    +0.211 HD
ENDBRANCH   3  20
BRANCH   3  22
ATOM     22  C   LIG    1       -2.039   1.607   0.280  0.00  0.00    -0.070 C 
ATOM     23  C   LIG    1       -3.229   1.650   0.553  0.00  0.00    +0.007 C 
ENDBRANCH   3  22
BRANCH   4  24
ATOM     24  C   LIG    1        1.632   0.178   0.065  0.00  0.00    +0.008 C 
ATOM     25  C   LIG    1        2.296   0.523   1.416  0.00  0.00    +0.004 C 
ENDBRANCH   4  24
TORSDOF 3
