REMARK  Name = DB00217
REMARK                            x       y       z     vdW  Elec       q    Type
REMARK                         _______ _______ _______ _____ _____    ______ ____
ROOT
ATOM      1  N   LIG    1        0.075  -0.044   0.002  0.00  0.00    -0.272 N 
ATOM      2  H   LIG    1       -0.443   0.823  -0.002  0.00  0.00    +0.258 HD
ENDROOT
BRANCH   1   3
ATOM      3  C   LIG    1        1.504  -0.024   0.000  0.00  0.00    +0.381 C 
ATOM      4  N   LIG    1        2.198  -1.100  -0.002  0.00  0.00    -0.117 NA
ATOM      5  C   LIG    1        3.644  -1.019   0.000  0.00  0.00    +0.291 C 
BRANCH   3   6
ATOM      6  N   LIG    1        2.060   1.297   0.000  0.00  0.00    -0.279 N 
ATOM      7  H   LIG    1        3.063   1.413  -0.001  0.00  0.00    +0.258 HD
ATOM      8  C   LIG    1        1.258   2.515   0.000  0.00  0.00    +0.239 C 
ENDBRANCH   3   6
ENDBRANCH   1   3
BRANCH   1   9
ATOM      9  C   LIG    1       -0.694  -1.282   0.000  0.00  0.00    +0.231 C 
BRANCH   9  10
ATOM     10  C   LIG    1       -2.180  -0.965   0.000  0.00  0.00    -0.014 A 
ATOM     11  C   LIG    1       -2.863  -0.830   1.211  0.00  0.00    +0.007 A 
ATOM     12  C   LIG    1       -4.228  -0.551   1.211  0.00  0.00    +0.000 A 
ATOM     13  C   LIG    1       -4.903  -0.411   0.000  0.00  0.00    +0.000 A 
ATOM     14  C   LIG    1       -4.228  -0.550  -1.211  0.00  0.00    +0.000 A 
ATOM     15  C   LIG    1       -2.863  -0.829  -1.211  0.00  0.00    +0.007 A 
ENDBRANCH   9  10
ENDBRANCH   1   9
TORSDOF 4
