REMARK  Name = DB00454
REMARK                            x       y       z     vdW  Elec       q    Type
REMARK                         _______ _______ _______ _____ _____    ______ ____
ROOT
ATOM      1  C   LIG    1       -0.026   0.158  -0.002  0.00  0.00    +0.095 C 
ATOM      2  C   LIG    1       -0.465  -0.599  -1.302  0.00  0.00    +0.038 C 
ATOM      3  C   LIG    1       -0.073  -2.096  -1.317  0.00  0.00    +0.085 C 
ATOM      4  N   LIG    1       -0.626  -2.808  -0.157  0.00  0.00    -0.305 NA
ATOM      5  C   LIG    1       -0.203  -4.204  -0.156  0.00  0.00    +0.104 C 
ATOM      6  C   LIG    1       -0.331  -2.173   1.135  0.00  0.00    +0.085 C 
ATOM      7  C   LIG    1       -0.690  -0.666   1.145  0.00  0.00    +0.038 C 
ENDROOT
BRANCH   1   8
ATOM      8  C   LIG    1       -0.549   1.624   0.077  0.00  0.00    -0.031 A 
ATOM      9  C   LIG    1       -0.155   2.460   1.138  0.00  0.00    +0.005 A 
ATOM     10  C   LIG    1       -0.632   3.763   1.245  0.00  0.00    +0.000 A 
ATOM     11  C   LIG    1       -1.527   4.248   0.298  0.00  0.00    +0.000 A 
ATOM     12  C   LIG    1       -1.952   3.436  -0.748  0.00  0.00    +0.000 A 
ATOM     13  C   LIG    1       -1.473   2.133  -0.853  0.00  0.00    +0.005 A 
ENDBRANCH   1   8
BRANCH   1  14
ATOM     14  C   LIG    1        1.533   0.182   0.135  0.00  0.00    +0.318 C 
ATOM     15  O   LIG    1        2.092   0.083   1.232  0.00  0.00    -0.250 OA
BRANCH  14  16
ATOM     16  O   LIG    1        2.177   0.334  -1.048  0.00  0.00    -0.464 OA
BRANCH  16  17
ATOM     17  C   LIG    1        3.596   0.377  -1.104  0.00  0.00    +0.229 C 
ATOM     18  C   LIG    1        4.039   0.568  -2.558  0.00  0.00    +0.048 C 
ENDBRANCH  16  17
ENDBRANCH  14  16
ENDBRANCH   1  14
TORSDOF 4
