REMARK  Name = DB00224
REMARK                            x       y       z     vdW  Elec       q    Type
REMARK                         _______ _______ _______ _____ _____    ______ ____
ROOT
ATOM      1  C   LIG    1       -0.774  -0.686  -0.270  0.00  0.00    +0.129 C 
ENDROOT
BRANCH   1   2
ATOM      2  O   LIG    1       -1.344   0.609  -0.234  0.00  0.00    -0.391 OA
ATOM      3  H   LIG    1       -0.938   1.139  -0.924  0.00  0.00    +0.210 HD
ENDBRANCH   1   2
BRANCH   1   4
ATOM      4  C   LIG    1        0.763  -0.590  -0.058  0.00  0.00    +0.045 C 
BRANCH   4   5
ATOM      5  C   LIG    1        1.562   0.363  -0.995  0.00  0.00    +0.082 C 
BRANCH   5   6
ATOM      6  C   LIG    1        1.257   0.098  -2.484  0.00  0.00    +0.217 C 
ATOM      7  N   LIG    1        0.678   1.103  -3.171  0.00  0.00    -0.306 N 
ATOM      8  H   LIG    1        0.519   1.968  -2.676  0.00  0.00    +0.149 HD
ATOM      9  O   LIG    1        1.528  -0.996  -2.982  0.00  0.00    -0.275 OA
BRANCH   7  10
ATOM     10  C   LIG    1        0.268   1.112  -4.587  0.00  0.00    +0.132 C 
ATOM     11  C   LIG    1        1.286   0.616  -5.602  0.00  0.00    -0.022 A 
ATOM     12  C   LIG    1        2.677   0.751  -5.630  0.00  0.00    +0.006 A 
ATOM     13  C   LIG    1        3.399   0.266  -6.721  0.00  0.00    +0.000 A 
ATOM     14  C   LIG    1        2.732  -0.335  -7.790  0.00  0.00    +0.000 A 
ATOM     15  C   LIG    1        1.343  -0.465  -7.766  0.00  0.00    +0.004 A 
ATOM     16  C   LIG    1        0.623  -0.018  -6.656  0.00  0.00    -0.040 A 
ATOM     17  C   LIG    1       -0.874  -0.002  -6.423  0.00  0.00    +0.069 C 
ATOM     18  C   LIG    1       -1.027   0.333  -4.930  0.00  0.00    +0.143 C 
BRANCH  18  19
ATOM     19  O   LIG    1       -1.212  -0.862  -4.189  0.00  0.00    -0.389 OA
ATOM     20  H   LIG    1       -0.353  -1.160  -3.877  0.00  0.00    +0.210 HD
ENDBRANCH  18  19
ENDBRANCH   7  10
ENDBRANCH   5   6
BRANCH   5  21
ATOM     21  C   LIG    1        3.096   0.297  -0.748  0.00  0.00    +0.048 C 
BRANCH  21  22
ATOM     22  C   LIG    1        3.511   0.514   0.704  0.00  0.00    -0.047 A 
ATOM     23  C   LIG    1        3.528   1.806   1.238  0.00  0.00    +0.003 A 
ATOM     24  C   LIG    1        3.905   2.004   2.564  0.00  0.00    +0.000 A 
ATOM     25  C   LIG    1        4.264   0.911   3.351  0.00  0.00    +0.000 A 
ATOM     26  C   LIG    1        4.248  -0.379   2.825  0.00  0.00    +0.000 A 
ATOM     27  C   LIG    1        3.870  -0.578   1.500  0.00  0.00    +0.003 A 
ENDBRANCH  21  22
ENDBRANCH   5  21
ENDBRANCH   4   5
ENDBRANCH   1   4
BRANCH   1  28
ATOM     28  C   LIG    1       -1.478  -1.532   0.816  0.00  0.00    +0.116 C 
BRANCH  28  29
ATOM     29  N   LIG    1       -0.958  -2.913   0.838  0.00  0.00    -0.287 NA
ATOM     30  C   LIG    1       -1.733  -3.750  -0.090  0.00  0.00    +0.100 C 
ATOM     31  C   LIG    1       -1.202  -5.198  -0.125  0.00  0.00    +0.100 C 
ATOM     32  N   LIG    1       -1.316  -5.794   1.209  0.00  0.00    -0.295 NA
ATOM     33  C   LIG    1       -0.459  -5.023   2.119  0.00  0.00    +0.113 C 
ATOM     34  C   LIG    1       -0.893  -3.528   2.186  0.00  0.00    +0.157 C 
BRANCH  34  35
ATOM     35  C   LIG    1        0.171  -2.775   3.027  0.00  0.00    +0.232 C 
ATOM     36  N   LIG    1       -0.257  -2.234   4.186  0.00  0.00    -0.309 N 
ATOM     37  H   LIG    1       -1.225  -2.384   4.431  0.00  0.00    +0.149 HD
ATOM     38  O   LIG    1        1.331  -2.674   2.619  0.00  0.00    -0.274 OA
BRANCH  36  39
ATOM     39  C   LIG    1        0.495  -1.397   5.136  0.00  0.00    +0.026 C 
ATOM     40  C   LIG    1        1.770  -2.108   5.655  0.00  0.00    +0.031 C 
ATOM     41  C   LIG    1        0.869  -0.043   4.486  0.00  0.00    +0.031 C 
ATOM     42  C   LIG    1       -0.428  -1.121   6.341  0.00  0.00    +0.031 C 
ENDBRANCH  36  39
ENDBRANCH  34  35
BRANCH  32  43
ATOM     43  C   LIG    1       -0.908  -7.202   1.161  0.00  0.00    +0.121 C 
BRANCH  43  44
ATOM     44  C   LIG    1       -1.260  -7.954   2.437  0.00  0.00    -0.015 A 
ATOM     45  C   LIG    1       -2.585  -8.297   2.728  0.00  0.00    +0.115 A 
ATOM     46  N   LIG    1       -2.946  -8.971   3.850  0.00  0.00    -0.263 NA
ATOM     47  C   LIG    1       -1.964  -9.323   4.720  0.00  0.00    +0.111 A 
ATOM     48  C   LIG    1       -0.617  -9.025   4.505  0.00  0.00    +0.020 A 
ATOM     49  C   LIG    1       -0.264  -8.333   3.345  0.00  0.00    +0.008 A 
ENDBRANCH  43  44
ENDBRANCH  32  43
ENDBRANCH  28  29
ENDBRANCH   1  28
TORSDOF 14
