REMARK  Name = DB00550
REMARK                            x       y       z     vdW  Elec       q    Type
REMARK                         _______ _______ _______ _____ _____    ______ ____
ROOT
ATOM      1  S   LIG    1       -1.087   3.918  -2.974  0.00  0.00    -0.013 S 
ATOM      2  C   LIG    1       -1.039   3.270  -1.451  0.00  0.00    +0.158 A 
ATOM      3  N   LIG    1       -1.451   3.973  -0.338  0.00  0.00    -0.303 N 
ATOM      4  H   LIG    1       -1.788   4.904  -0.533  0.00  0.00    +0.171 HD
ATOM      5  C   LIG    1       -1.439   3.541   0.962  0.00  0.00    +0.252 A 
ATOM      6  C   LIG    1       -0.926   2.181   1.120  0.00  0.00    +0.091 A 
ATOM      7  C   LIG    1       -0.510   1.464   0.046  0.00  0.00    +0.023 A 
ATOM      8  O   LIG    1       -1.823   4.240   1.897  0.00  0.00    -0.268 OA
ATOM      9  N   LIG    1       -0.579   2.001  -1.212  0.00  0.00    -0.339 N 
ATOM     10  H   LIG    1       -0.285   1.500  -2.038  0.00  0.00    +0.167 HD
ENDROOT
BRANCH   7  11
ATOM     11  C   LIG    1        0.024   0.042   0.121  0.00  0.00    +0.053 C 
BRANCH  11  12
ATOM     12  C   LIG    1        1.538  -0.072  -0.141  0.00  0.00    +0.003 C 
ATOM     13  C   LIG    1        2.053  -1.514  -0.043  0.00  0.00    +0.004 C 
ENDBRANCH  11  12
ENDBRANCH   7  11
TORSDOF 2
