REMARK  Name = DB00335
REMARK                            x       y       z     vdW  Elec       q    Type
REMARK                         _______ _______ _______ _____ _____    ______ ____
ROOT
ATOM      1  C   LIG    1        2.066  -3.434  -1.210  0.00  0.00    +0.121 A 
ATOM      2  C   LIG    1        2.853  -4.090  -0.249  0.00  0.00    +0.046 A 
ATOM      3  C   LIG    1        3.228  -5.417  -0.436  0.00  0.00    +0.007 A 
ATOM      4  C   LIG    1        2.825  -6.103  -1.584  0.00  0.00    -0.038 A 
ATOM      5  C   LIG    1        2.036  -5.458  -2.538  0.00  0.00    +0.007 A 
ATOM      6  C   LIG    1        1.662  -4.131  -2.349  0.00  0.00    +0.046 A 
ENDROOT
BRANCH   1   7
ATOM      7  O   LIG    1        1.650  -2.120  -1.112  0.00  0.00    -0.489 OA
BRANCH   7   8
ATOM      8  C   LIG    1        2.036  -1.345   0.021  0.00  0.00    +0.261 C 
BRANCH   8   9
ATOM      9  C   LIG    1        1.473   0.082  -0.120  0.00  0.00    +0.166 C 
BRANCH   9  10
ATOM     10  O   LIG    1        2.033   0.880   0.909  0.00  0.00    -0.387 OA
ATOM     11  H   LIG    1        1.696   0.570   1.753  0.00  0.00    +0.210 HD
ENDBRANCH   9  10
BRANCH   9  12
ATOM     12  C   LIG    1       -0.070   0.114  -0.032  0.00  0.00    +0.115 C 
BRANCH  12  13
ATOM     13  N   LIG    1       -0.588   1.454  -0.295  0.00  0.00    -0.311 NA
ATOM     14  H   LIG    1       -0.190   1.826  -1.147  0.00  0.00    +0.122 HD
BRANCH  13  15
ATOM     15  C   LIG    1       -2.046   1.537  -0.340  0.00  0.00    +0.048 C 
ATOM     16  C   LIG    1       -2.678   1.276   1.043  0.00  0.00    +0.023 C 
ATOM     17  C   LIG    1       -2.415   2.935  -0.866  0.00  0.00    +0.023 C 
ENDBRANCH  13  15
ENDBRANCH  12  13
ENDBRANCH   9  12
ENDBRANCH   8   9
ENDBRANCH   7   8
ENDBRANCH   1   7
BRANCH   4  18
ATOM     18  C   LIG    1        3.224  -7.563  -1.785  0.00  0.00    +0.130 C 
BRANCH  18  19
ATOM     19  C   LIG    1        2.167  -8.549  -1.261  0.00  0.00    +0.215 C 
ATOM     20  N   LIG    1        1.975  -9.664  -1.970  0.00  0.00    -0.329 N 
ATOM     21  H   LIG    1        1.298 -10.347  -1.663  0.00  0.00    +0.145 HD
ATOM     22  H   LIG    1        2.503  -9.833  -2.814  0.00  0.00    +0.145 HD
ATOM     23  O   LIG    1        1.549  -8.330  -0.221  0.00  0.00    -0.276 OA
ENDBRANCH  18  19
ENDBRANCH   4  18
TORSDOF 9
