REMARK  Name = DB00527
REMARK                            x       y       z     vdW  Elec       q    Type
REMARK                         _______ _______ _______ _____ _____    ______ ____
ROOT
ATOM      1  C   LIG    1       -4.104  -0.455  -0.725  0.00  0.00    +0.216 A 
ATOM      2  C   LIG    1       -2.722  -0.307  -0.694  0.00  0.00    +0.081 A 
ATOM      3  C   LIG    1       -2.124   0.587   0.204  0.00  0.00    +0.051 A 
ATOM      4  C   LIG    1       -2.979   1.327   1.096  0.00  0.00    +0.013 A 
ATOM      5  C   LIG    1       -2.522   2.247   2.088  0.00  0.00    +0.011 A 
ATOM      6  C   LIG    1       -3.422   2.919   2.910  0.00  0.00    +0.001 A 
ATOM      7  C   LIG    1       -4.789   2.708   2.785  0.00  0.00    +0.002 A 
ATOM      8  C   LIG    1       -5.281   1.816   1.839  0.00  0.00    +0.028 A 
ATOM      9  C   LIG    1       -4.392   1.113   0.989  0.00  0.00    +0.076 A 
ATOM     10  N   LIG    1       -4.931   0.245   0.093  0.00  0.00    -0.213 NA
ENDROOT
BRANCH   3  11
ATOM     11  C   LIG    1       -0.622   0.755   0.191  0.00  0.00    +0.245 C 
ATOM     12  N   LIG    1        0.089  -0.388   0.124  0.00  0.00    -0.310 N 
ATOM     13  H   LIG    1       -0.408  -1.266   0.134  0.00  0.00    +0.149 HD
ATOM     14  O   LIG    1       -0.107   1.874   0.219  0.00  0.00    -0.270 OA
BRANCH  12  15
ATOM     15  C   LIG    1        1.547  -0.467   0.054  0.00  0.00    +0.120 C 
BRANCH  15  16
ATOM     16  C   LIG    1        2.106  -0.155  -1.354  0.00  0.00    +0.103 C 
BRANCH  16  17
ATOM     17  N   LIG    1        3.574  -0.090  -1.404  0.00  0.00    -0.301 NA
BRANCH  17  18
ATOM     18  C   LIG    1        3.998   0.434  -2.709  0.00  0.00    +0.081 C 
ATOM     19  C   LIG    1        5.473   0.878  -2.712  0.00  0.00    +0.020 C 
ENDBRANCH  17  18
BRANCH  17  20
ATOM     20  C   LIG    1        4.205  -1.384  -1.094  0.00  0.00    +0.081 C 
ATOM     21  C   LIG    1        4.846  -1.342   0.302  0.00  0.00    +0.020 C 
ENDBRANCH  17  20
ENDBRANCH  16  17
ENDBRANCH  15  16
ENDBRANCH  12  15
ENDBRANCH   3  11
BRANCH   1  22
ATOM     22  O   LIG    1       -4.642  -1.341  -1.643  0.00  0.00    -0.476 OA
BRANCH  22  23
ATOM     23  C   LIG    1       -6.053  -1.572  -1.702  0.00  0.00    +0.231 C 
BRANCH  23  24
ATOM     24  C   LIG    1       -6.535  -2.490  -0.562  0.00  0.00    +0.041 C 
BRANCH  24  25
ATOM     25  C   LIG    1       -8.039  -2.804  -0.646  0.00  0.00    -0.000 C 
ATOM     26  C   LIG    1       -8.523  -3.723   0.483  0.00  0.00    +0.004 C 
ENDBRANCH  24  25
ENDBRANCH  23  24
ENDBRANCH  22  23
ENDBRANCH   1  22
TORSDOF 10
