REMARK  Name = DB00284
REMARK                            x       y       z     vdW  Elec       q    Type
REMARK                         _______ _______ _______ _____ _____    ______ ____
ROOT
ATOM      1  O   LIG    1        0.221   0.306   0.474  0.00  0.00    -0.340 OA
ENDROOT
BRANCH   1   6
ATOM      2  C   LIG    1       -3.129   0.387  -0.380  0.00  0.00    +0.114 C 
ATOM      3  C   LIG    1       -1.921   0.477  -1.358  0.00  0.00    +0.138 C 
ATOM      4  C   LIG    1       -2.344   0.706  -2.821  0.00  0.00    +0.039 C 
ATOM      5  O   LIG    1       -1.043   1.563  -1.020  0.00  0.00    -0.344 OA
ATOM      6  C   LIG    1       -0.496   1.498   0.272  0.00  0.00    +0.282 C 
ATOM      7  C   LIG    1       -1.628   1.576   1.306  0.00  0.00    +0.200 C 
ATOM      8  C   LIG    1       -2.644   0.432   1.092  0.00  0.00    +0.167 C 
BRANCH   2   9
ATOM      9  N   LIG    1       -4.109  -0.658  -0.715  0.00  0.00    -0.300 NA
ATOM     10  H   LIG    1       -4.348  -0.566  -1.692  0.00  0.00    +0.123 HD
BRANCH   9  11
ATOM     11  C   LIG    1       -3.696  -2.044  -0.470  0.00  0.00    +0.109 C 
ATOM     12  C   LIG    1       -4.153  -3.048  -1.561  0.00  0.00    +0.166 C 
ATOM     13  C   LIG    1       -5.676  -3.313  -1.498  0.00  0.00    +0.177 C 
ATOM     14  C   LIG    1       -6.099  -3.920  -0.128  0.00  0.00    +0.173 C 
ATOM     15  C   LIG    1       -5.308  -3.332   1.057  0.00  0.00    -0.016 C 
ATOM     16  C   LIG    1       -4.252  -2.507   0.875  0.00  0.00    -0.002 C 
BRANCH  12  17
ATOM     17  O   LIG    1       -3.687  -2.674  -2.847  0.00  0.00    -0.387 OA
ATOM     18  H   LIG    1       -4.207  -3.144  -3.504  0.00  0.00    +0.210 HD
ENDBRANCH  12  17
BRANCH  13  19
ATOM     19  O   LIG    1       -6.118  -4.131  -2.570  0.00  0.00    -0.386 OA
ATOM     20  H   LIG    1       -5.710  -4.996  -2.484  0.00  0.00    +0.210 HD
ENDBRANCH  13  19
BRANCH  14  21
ATOM     21  O   LIG    1       -7.494  -3.782   0.074  0.00  0.00    -0.385 OA
ATOM     22  H   LIG    1       -7.778  -4.455   0.697  0.00  0.00    +0.210 HD
ENDBRANCH  14  21
BRANCH  15  23
ATOM     23  C   LIG    1       -5.741  -3.722   2.470  0.00  0.00    +0.189 C 
BRANCH  23  24
ATOM     24  O   LIG    1       -5.762  -5.130   2.590  0.00  0.00    -0.391 OA
ATOM     25  H   LIG    1       -6.051  -5.355   3.478  0.00  0.00    +0.210 HD
ENDBRANCH  23  24
ENDBRANCH  15  23
ENDBRANCH   9  11
ENDBRANCH   2   9
BRANCH   7  26
ATOM     26  O   LIG    1       -1.113   1.631   2.625  0.00  0.00    -0.384 OA
ATOM     27  H   LIG    1       -0.862   0.743   2.892  0.00  0.00    +0.210 HD
ENDBRANCH   7  26
BRANCH   8  28
ATOM     28  O   LIG    1       -3.732   0.543   1.996  0.00  0.00    -0.387 OA
ATOM     29  H   LIG    1       -4.202   1.359   1.810  0.00  0.00    +0.210 HD
ENDBRANCH   8  28
ENDBRANCH   1   6
BRANCH   1  30
ATOM     30  C   LIG    1        1.650   0.339   0.384  0.00  0.00    +0.183 C 
ATOM     31  C   LIG    1        2.154  -0.421  -0.872  0.00  0.00    +0.178 C 
ATOM     32  O   LIG    1        3.579  -0.603  -0.830  0.00  0.00    -0.341 OA
ATOM     33  C   LIG    1        4.060  -1.326   0.275  0.00  0.00    +0.282 C 
ATOM     34  C   LIG    1        3.711  -0.580   1.570  0.00  0.00    +0.201 C 
ATOM     35  C   LIG    1        2.191  -0.329   1.667  0.00  0.00    +0.179 C 
BRANCH  34  36
ATOM     36  O   LIG    1        4.238  -1.240   2.706  0.00  0.00    -0.384 OA
ATOM     37  H   LIG    1        3.628  -1.934   2.966  0.00  0.00    +0.210 HD
ENDBRANCH  34  36
BRANCH  35  38
ATOM     38  O   LIG    1        1.874   0.441   2.814  0.00  0.00    -0.386 OA
ATOM     39  H   LIG    1        2.312   1.292   2.744  0.00  0.00    +0.210 HD
ENDBRANCH  35  38
BRANCH  31  40
ATOM     40  C   LIG    1        1.830   0.313  -2.189  0.00  0.00    +0.190 C 
BRANCH  40  41
ATOM     41  O   LIG    1        2.221  -0.452  -3.312  0.00  0.00    -0.392 OA
ATOM     42  H   LIG    1        1.645  -1.217  -3.382  0.00  0.00    +0.210 HD
ENDBRANCH  40  41
ENDBRANCH  31  40
BRANCH  33  43
ATOM     43  O   LIG    1        3.522  -2.621   0.340  0.00  0.00    -0.340 OA
BRANCH  43  44
ATOM     44  C   LIG    1        4.175  -3.659  -0.406  0.00  0.00    +0.183 C 
BRANCH  44  45
ATOM     45  C   LIG    1        4.037  -3.487  -1.952  0.00  0.00    +0.171 C 
BRANCH  45  46
ATOM     46  O   LIG    1        2.680  -3.511  -2.356  0.00  0.00    -0.387 OA
ATOM     47  H   LIG    1        2.203  -2.854  -1.845  0.00  0.00    +0.210 HD
ENDBRANCH  45  46
BRANCH  45  48
ATOM     48  C   LIG    1        4.820  -4.553  -2.753  0.00  0.00    +0.189 C 
BRANCH  48  49
ATOM     49  O   LIG    1        4.932  -4.190  -4.116  0.00  0.00    -0.392 OA
ATOM     50  H   LIG    1        4.054  -4.202  -4.505  0.00  0.00    +0.210 HD
ENDBRANCH  48  49
ENDBRANCH  45  48
ENDBRANCH  44  45
BRANCH  44  51
ATOM     51  C   LIG    1        3.720  -5.030   0.192  0.00  0.00    +0.181 C 
BRANCH  51  52
ATOM     52  O   LIG    1        2.336  -5.221  -0.058  0.00  0.00    -0.386 OA
ATOM     53  H   LIG    1        1.846  -4.535   0.402  0.00  0.00    +0.210 HD
ENDBRANCH  51  52
BRANCH  51  54
ATOM     54  C   LIG    1        3.973  -5.196   1.723  0.00  0.00    +0.208 C 
BRANCH  54  55
ATOM     55  O   LIG    1        3.564  -6.485   2.149  0.00  0.00    -0.382 OA
ATOM     56  H   LIG    1        3.638  -6.531   3.106  0.00  0.00    +0.210 HD
ENDBRANCH  54  55
BRANCH  54  57
ATOM     57  C   LIG    1        5.449  -5.065   2.118  0.00  0.00    +0.257 C 
ATOM     58  O   LIG    1        5.947  -3.964   2.346  0.00  0.00    -0.298 OA
ENDBRANCH  54  57
ENDBRANCH  51  54
ENDBRANCH  44  51
ENDBRANCH  43  44
ENDBRANCH  33  43
ENDBRANCH   1  30
TORSDOF 26
