REMARK  Name = DB00661
REMARK                            x       y       z     vdW  Elec       q    Type
REMARK                         _______ _______ _______ _____ _____    ______ ____
ROOT
ATOM      1  C   LIG    1        0.125  -0.160  -0.380  0.00  0.00    +0.028 C 
ENDROOT
BRANCH   1   2
ATOM      2  C   LIG    1       -0.345   1.228   0.161  0.00  0.00    +0.085 C 
BRANCH   2   7
ATOM      3  C   LIG    1        2.337   2.910   2.419  0.00  0.00    +0.162 A 
ATOM      4  C   LIG    1        2.208   2.166   3.600  0.00  0.00    +0.162 A 
ATOM      5  C   LIG    1        1.244   1.148   3.665  0.00  0.00    +0.050 A 
ATOM      6  C   LIG    1        0.432   0.869   2.570  0.00  0.00    +0.009 A 
ATOM      7  C   LIG    1        0.543   1.599   1.381  0.00  0.00    -0.024 A 
ATOM      8  C   LIG    1        1.501   2.622   1.326  0.00  0.00    +0.054 A 
BRANCH   3   9
ATOM      9  O   LIG    1        3.308   3.897   2.404  0.00  0.00    -0.491 OA
ATOM     10  C   LIG    1        3.502   4.675   1.228  0.00  0.00    +0.277 C 
ENDBRANCH   3   9
BRANCH   4  11
ATOM     11  O   LIG    1        3.059   2.483   4.644  0.00  0.00    -0.491 OA
ATOM     12  C   LIG    1        2.959   1.769   5.871  0.00  0.00    +0.277 C 
ENDBRANCH   4  11
ENDBRANCH   2   7
BRANCH   2  13
ATOM     13  C   LIG    1       -1.870   1.207   0.561  0.00  0.00    +0.007 C 
ATOM     14  C   LIG    1       -2.344   2.535   1.198  0.00  0.00    +0.009 C 
ATOM     15  C   LIG    1       -2.829   0.835  -0.595  0.00  0.00    +0.009 C 
ENDBRANCH   2  13
BRANCH   2  16
ATOM     16  C   LIG    1       -0.183   2.213  -0.936  0.00  0.00    +0.074 C 
ATOM     17  N   LIG    1       -0.058   2.980  -1.794  0.00  0.00    -0.196 NA
ENDBRANCH   2  16
ENDBRANCH   1   2
BRANCH   1  18
ATOM     18  C   LIG    1        1.583  -0.198  -0.898  0.00  0.00    +0.017 C 
BRANCH  18  19
ATOM     19  C   LIG    1        2.156  -1.626  -1.044  0.00  0.00    +0.084 C 
BRANCH  19  20
ATOM     20  N   LIG    1        3.617  -1.661  -0.871  0.00  0.00    -0.305 NA
ATOM     21  C   LIG    1        4.186  -2.717  -1.707  0.00  0.00    +0.104 C 
BRANCH  20  22
ATOM     22  C   LIG    1        4.037  -1.904   0.520  0.00  0.00    +0.088 C 
BRANCH  22  23
ATOM     23  C   LIG    1        3.615  -0.808   1.520  0.00  0.00    +0.050 C 
BRANCH  23  24
ATOM     24  C   LIG    1        4.120  -1.068   2.930  0.00  0.00    -0.042 A 
ATOM     25  C   LIG    1        5.296  -0.470   3.380  0.00  0.00    +0.007 A 
ATOM     26  C   LIG    1        5.743  -0.697   4.679  0.00  0.00    +0.049 A 
ATOM     27  C   LIG    1        5.019  -1.526   5.554  0.00  0.00    +0.161 A 
ATOM     28  C   LIG    1        3.834  -2.131   5.105  0.00  0.00    +0.162 A 
ATOM     29  C   LIG    1        3.396  -1.895   3.791  0.00  0.00    +0.053 A 
BRANCH  28  30
ATOM     30  O   LIG    1        3.155  -2.932   6.007  0.00  0.00    -0.491 OA
ATOM     31  C   LIG    1        1.939  -3.557   5.611  0.00  0.00    +0.277 C 
ENDBRANCH  28  30
BRANCH  27  32
ATOM     32  O   LIG    1        5.404  -1.786   6.857  0.00  0.00    -0.491 OA
ATOM     33  C   LIG    1        6.590  -1.188   7.369  0.00  0.00    +0.277 C 
ENDBRANCH  27  32
ENDBRANCH  23  24
ENDBRANCH  22  23
ENDBRANCH  20  22
ENDBRANCH  19  20
ENDBRANCH  18  19
ENDBRANCH   1  18
TORSDOF 14
