REMARK  Name = DB00808
REMARK                            x       y       z     vdW  Elec       q    Type
REMARK                         _______ _______ _______ _____ _____    ______ ____
ROOT
ATOM      1  C   LIG    1        0.224  -0.295  -0.525  0.00  0.00    +0.260 C 
ATOM      2  N   LIG    1       -0.617  -1.165   0.073  0.00  0.00    -0.230 N 
ATOM      3  H   LIG    1       -0.364  -1.767   0.842  0.00  0.00    +0.173 HD
ATOM      4  O   LIG    1       -0.099   0.423  -1.476  0.00  0.00    -0.269 OA
ENDROOT
BRANCH   2   5
ATOM      5  N   LIG    1       -1.933  -1.347  -0.394  0.00  0.00    -0.247 N 
ATOM      6  C   LIG    1       -2.998  -0.748   0.277  0.00  0.00    +0.051 A 
ATOM      7  C   LIG    1       -3.095   0.391   1.079  0.00  0.00    +0.025 A 
ATOM      8  C   LIG    1       -4.347   0.797   1.545  0.00  0.00    +0.002 A 
ATOM      9  C   LIG    1       -5.492   0.078   1.197  0.00  0.00    +0.000 A 
ATOM     10  C   LIG    1       -5.391  -1.058   0.391  0.00  0.00    +0.005 A 
ATOM     11  C   LIG    1       -4.138  -1.488  -0.052  0.00  0.00    -0.023 A 
ATOM     12  C   LIG    1       -3.784  -2.665  -0.932  0.00  0.00    +0.061 C 
ATOM     13  C   LIG    1       -2.252  -2.686  -0.877  0.00  0.00    +0.096 C 
ATOM     14  C   LIG    1       -1.709  -3.850  -0.013  0.00  0.00    +0.030 C 
ENDBRANCH   2   5
BRANCH   1  19
ATOM     15 CL   LIG    1        5.815   0.029   1.794  0.00  0.00    -0.082 Cl
ATOM     16  C   LIG    1        4.224  -0.021   1.116  0.00  0.00    +0.067 A 
ATOM     17  C   LIG    1        3.442  -1.148   1.363  0.00  0.00    +0.023 A 
ATOM     18  C   LIG    1        2.154  -1.246   0.841  0.00  0.00    +0.014 A 
ATOM     19  C   LIG    1        1.618  -0.210   0.059  0.00  0.00    +0.040 A 
ATOM     20  C   LIG    1        2.413   0.919  -0.188  0.00  0.00    +0.043 A 
ATOM     21  C   LIG    1        3.708   1.026   0.333  0.00  0.00    +0.124 A 
BRANCH  21  22
ATOM     22  S   LIG    1        4.673   2.503  -0.023  0.00  0.00    +0.057 S 
ATOM     23  O   LIG    1        5.939   2.055  -0.613  0.00  0.00    -0.153 OA
ATOM     24  O   LIG    1        3.808   3.447  -0.741  0.00  0.00    -0.153 OA
BRANCH  22  25
ATOM     25  N   LIG    1        5.029   3.210   1.543  0.00  0.00    -0.203 NA
ATOM     26  H   LIG    1        4.212   3.580   2.036  0.00  0.00    +0.144 HD
ATOM     27  H   LIG    1        5.634   2.637   2.137  0.00  0.00    +0.144 HD
ENDBRANCH  22  25
ENDBRANCH  21  22
ENDBRANCH   1  19
TORSDOF 4
