REMARK  Name = DB00418
REMARK                            x       y       z     vdW  Elec       q    Type
REMARK                         _______ _______ _______ _____ _____    ______ ____
ROOT
ATOM      1  C   LIG    1        1.869  -1.562  -0.086  0.00  0.00    +0.129 C 
ATOM      2  C   LIG    1        3.404  -1.522   0.275  0.00  0.00    +0.236 C 
ATOM      3  O   LIG    1        3.855  -1.079   1.331  0.00  0.00    -0.274 OA
ATOM      4  N   LIG    1        4.217  -2.008  -0.689  0.00  0.00    -0.239 N 
ATOM      5  H   LIG    1        5.202  -1.963  -0.474  0.00  0.00    +0.159 HD
ATOM      6  C   LIG    1        3.922  -2.564  -1.888  0.00  0.00    +0.312 C 
ATOM      7  O   LIG    1        4.789  -2.960  -2.663  0.00  0.00    -0.252 OA
ATOM      8  N   LIG    1        2.599  -2.663  -2.166  0.00  0.00    -0.239 N 
ATOM      9  H   LIG    1        2.384  -3.109  -3.045  0.00  0.00    +0.159 HD
ATOM     10  C   LIG    1        1.521  -2.297  -1.437  0.00  0.00    +0.236 C 
ATOM     11  O   LIG    1        0.378  -2.530  -1.829  0.00  0.00    -0.274 OA
ENDROOT
BRANCH   1  12
ATOM     12  C   LIG    1        1.396  -0.046  -0.196  0.00  0.00    +0.010 C 
ATOM     13  C   LIG    1        2.010   0.740  -1.391  0.00  0.00    +0.009 C 
BRANCH  12  14
ATOM     14  C   LIG    1       -0.149   0.157  -0.125  0.00  0.00    +0.004 C 
BRANCH  14  16
ATOM     15  C   LIG    1       -2.130   1.749   0.220  0.00  0.00    +0.004 C 
ATOM     16  C   LIG    1       -0.616   1.622  -0.000  0.00  0.00    -0.003 C 
ENDBRANCH  14  16
ENDBRANCH  12  14
ENDBRANCH   1  12
BRANCH   1  17
ATOM     17  C   LIG    1        1.186  -2.396   1.062  0.00  0.00    +0.052 C 
BRANCH  17  18
ATOM     18  C   LIG    1        1.667  -3.829   1.282  0.00  0.00    -0.033 C 
ATOM     19  C   LIG    1        2.288  -4.268   2.388  0.00  0.00    +0.004 C 
ENDBRANCH  17  18
ENDBRANCH   1  17
TORSDOF 5
