REMARK  Name = DB00603
REMARK                            x       y       z     vdW  Elec       q    Type
REMARK                         _______ _______ _______ _____ _____    ______ ____
ROOT
ATOM      1  C   LIG    1       -1.124  -2.146   0.750  0.00  0.00    +0.009 C 
ATOM      2  C   LIG    1       -0.812  -0.741   1.304  0.00  0.00    +0.057 C 
ATOM      3  C   LIG    1       -0.163   0.069   0.129  0.00  0.00    +0.176 C 
ATOM      4  C   LIG    1       -0.790  -0.617  -1.146  0.00  0.00    +0.018 C 
ATOM      5  C   LIG    1       -2.278  -0.168  -1.364  0.00  0.00    +0.016 C 
ATOM      6  C   LIG    1        0.004  -0.483  -2.481  0.00  0.00    +0.011 C 
ATOM      7  C   LIG    1       -0.541  -1.433  -3.575  0.00  0.00    +0.005 C 
ATOM      8  C   LIG    1       -0.577  -2.931  -3.124  0.00  0.00    +0.002 C 
ATOM      9  C   LIG    1       -1.293  -3.090  -1.746  0.00  0.00    -0.003 C 
ATOM     10  C   LIG    1       -1.174  -4.551  -1.279  0.00  0.00    +0.011 C 
ATOM     11  C   LIG    1       -1.829  -5.525  -2.274  0.00  0.00    +0.013 C 
ATOM     12  C   LIG    1       -1.847  -6.963  -1.706  0.00  0.00    +0.012 C 
ATOM     13  C   LIG    1       -1.150  -5.373  -3.658  0.00  0.00    -0.057 C 
ATOM     14  C   LIG    1       -0.658  -6.430  -4.358  0.00  0.00    +0.046 C 
ATOM     15  C   LIG    1       -0.073  -6.363  -5.688  0.00  0.00    +0.156 C 
ATOM     16  O   LIG    1        0.458  -7.339  -6.213  0.00  0.00    -0.293 OA
ATOM     17  C   LIG    1       -0.283  -5.049  -6.439  0.00  0.00    +0.080 C 
ATOM     18  C   LIG    1       -0.183  -3.853  -5.477  0.00  0.00    +0.019 C 
ATOM     19  C   LIG    1       -1.128  -3.917  -4.228  0.00  0.00    -0.007 C 
ATOM     20  C   LIG    1       -2.571  -3.560  -4.679  0.00  0.00    +0.016 C 
ATOM     21  C   LIG    1       -0.669  -2.105  -0.716  0.00  0.00    +0.003 C 
ENDROOT
BRANCH   3  22
ATOM     22  C   LIG    1       -0.421   1.613   0.204  0.00  0.00    +0.174 C 
ATOM     23  O   LIG    1       -1.124   2.114   1.081  0.00  0.00    -0.293 OA
ATOM     24  C   LIG    1        0.222   2.515  -0.850  0.00  0.00    +0.090 C 
ENDBRANCH   3  22
BRANCH   3  25
ATOM     25  O   LIG    1        1.280  -0.115   0.099  0.00  0.00    -0.450 OA
BRANCH  25  26
ATOM     26  C   LIG    1        2.167   0.223   1.086  0.00  0.00    +0.305 C 
ATOM     27  O   LIG    1        1.899   0.755   2.164  0.00  0.00    -0.251 OA
ATOM     28  C   LIG    1        3.601  -0.130   0.712  0.00  0.00    +0.136 C 
ENDBRANCH  25  26
ENDBRANCH   3  25
TORSDOF 3
