REMARK  Name = DB00980
REMARK                            x       y       z     vdW  Elec       q    Type
REMARK                         _______ _______ _______ _____ _____    ______ ____
ROOT
ATOM      1  O   LIG    1        4.062  -0.977  -6.288  0.00  0.00    -0.491 OA
ATOM      2  C   LIG    1        2.817  -1.580  -5.938  0.00  0.00    +0.234 C 
ATOM      3  C   LIG    1        2.652  -1.447  -4.418  0.00  0.00    +0.080 C 
ATOM      4  C   LIG    1        3.711  -0.449  -4.071  0.00  0.00    +0.001 A 
ATOM      5  C   LIG    1        4.070   0.183  -2.873  0.00  0.00    -0.034 A 
ATOM      6  C   LIG    1        5.199   1.017  -2.854  0.00  0.00    -0.043 A 
ATOM      7  C   LIG    1        5.979   1.185  -4.004  0.00  0.00    +0.007 A 
ATOM      8  C   LIG    1        5.621   0.550  -5.195  0.00  0.00    +0.046 A 
ATOM      9  C   LIG    1        5.455   1.534  -1.457  0.00  0.00    +0.036 C 
ATOM     10  C   LIG    1        4.156   1.218  -0.722  0.00  0.00    +0.013 C 
ATOM     11  C   LIG    1        3.481   0.062  -1.474  0.00  0.00    +0.021 C 
ATOM     12  C   LIG    1        4.486  -0.256  -5.202  0.00  0.00    +0.124 A 
ENDROOT
BRANCH  11  13
ATOM     13  C   LIG    1        1.937   0.086  -1.379  0.00  0.00    +0.027 C 
BRANCH  13  14
ATOM     14  C   LIG    1        1.397  -0.018   0.063  0.00  0.00    +0.105 C 
BRANCH  14  15
ATOM     15  N   LIG    1       -0.063  -0.048   0.145  0.00  0.00    -0.315 N 
ATOM     16  H   LIG    1       -0.483  -0.948   0.328  0.00  0.00    +0.149 HD
ATOM     17  C   LIG    1       -0.865   1.021   0.002  0.00  0.00    +0.213 C 
ATOM     18  O   LIG    1       -0.442   2.158  -0.219  0.00  0.00    -0.276 OA
BRANCH  17  19
ATOM     19  C   LIG    1       -2.371   0.744   0.128  0.00  0.00    +0.092 C 
ATOM     20  C   LIG    1       -3.260   2.002   0.082  0.00  0.00    +0.013 C 
ENDBRANCH  17  19
ENDBRANCH  14  15
ENDBRANCH  13  14
ENDBRANCH  11  13
TORSDOF 4
