REMARK  Name = DB00680
REMARK                            x       y       z     vdW  Elec       q    Type
REMARK                         _______ _______ _______ _____ _____    ______ ____
ROOT
ATOM      1  S   LIG    1        6.173  -0.374  -0.119  0.00  0.00    -0.086 S 
ATOM      2  C   LIG    1        6.369  -1.371   1.337  0.00  0.00    +0.035 A 
ATOM      3  C   LIG    1        7.527  -1.263   2.110  0.00  0.00    +0.017 A 
ATOM      4  C   LIG    1        7.656  -2.003   3.285  0.00  0.00    +0.001 A 
ATOM      5  C   LIG    1        6.628  -2.850   3.694  0.00  0.00    +0.002 A 
ATOM      6  C   LIG    1        5.479  -2.982   2.914  0.00  0.00    +0.025 A 
ATOM      7  C   LIG    1        5.357  -2.278   1.706  0.00  0.00    +0.055 A 
ATOM      8  N   LIG    1        4.219  -2.412   0.873  0.00  0.00    -0.238 N 
ATOM      9  C   LIG    1        3.597  -1.219   0.420  0.00  0.00    +0.057 A 
ATOM     10  C   LIG    1        2.209  -1.023   0.497  0.00  0.00    +0.048 A 
ATOM     11  C   LIG    1        1.624   0.150   0.012  0.00  0.00    +0.038 A 
ATOM     12  C   LIG    1        2.436   1.136  -0.567  0.00  0.00    +0.024 A 
ATOM     13  C   LIG    1        3.818   0.965  -0.617  0.00  0.00    +0.019 A 
ATOM     14  C   LIG    1        3.838  -3.626   0.349  0.00  0.00    +0.225 C 
ATOM     15  O   LIG    1        2.852  -3.752  -0.385  0.00  0.00    -0.275 OA
ATOM     16  C   LIG    1        4.405  -0.188  -0.097  0.00  0.00    +0.035 A 
ENDROOT
BRANCH  11  17
ATOM     17  N   LIG    1        0.227   0.249   0.099  0.00  0.00    -0.251 N 
ATOM     18  H   LIG    1       -0.266  -0.624   0.216  0.00  0.00    +0.158 HD
ATOM     19  C   LIG    1       -0.553   1.401   0.123  0.00  0.00    +0.405 C 
ATOM     20  O   LIG    1       -0.155   2.568   0.096  0.00  0.00    -0.226 OA
BRANCH  19  21
ATOM     21  O   LIG    1       -1.849   1.038   0.195  0.00  0.00    -0.450 OA
BRANCH  21  22
ATOM     22  C   LIG    1       -2.882   2.016   0.229  0.00  0.00    +0.230 C 
ATOM     23  C   LIG    1       -4.243   1.318   0.302  0.00  0.00    +0.048 C 
ENDBRANCH  21  22
ENDBRANCH  19  21
ENDBRANCH  11  17
BRANCH  14  24
ATOM     24  C   LIG    1        4.664  -4.911   0.632  0.00  0.00    +0.112 C 
BRANCH  24  25
ATOM     25  C   LIG    1        4.655  -5.968  -0.506  0.00  0.00    +0.094 C 
BRANCH  25  26
ATOM     26  N   LIG    1        5.004  -5.468  -1.844  0.00  0.00    -0.298 NA
ATOM     27  C   LIG    1        4.760  -6.499  -2.860  0.00  0.00    +0.112 C 
ATOM     28  C   LIG    1        5.157  -6.012  -4.270  0.00  0.00    +0.175 C 
ATOM     29  O   LIG    1        6.508  -5.564  -4.269  0.00  0.00    -0.377 OA
ATOM     30  C   LIG    1        6.718  -4.485  -3.365  0.00  0.00    +0.175 C 
ATOM     31  C   LIG    1        6.366  -4.919  -1.925  0.00  0.00    +0.112 C 
ENDBRANCH  25  26
ENDBRANCH  24  25
ENDBRANCH  14  24
TORSDOF 6
