REMARK  Name = DB00889
REMARK                            x       y       z     vdW  Elec       q    Type
REMARK                         _______ _______ _______ _____ _____    ______ ____
ROOT
ATOM      1  C   LIG    1        0.879   0.117   0.228  0.00  0.00    +0.265 C 
ATOM      2  O   LIG    1        1.690  -0.769   0.500  0.00  0.00    -0.268 OA
ATOM      3  N   LIG    1        1.193   1.429   0.200  0.00  0.00    -0.307 N 
ATOM      4  H   LIG    1        0.445   2.088   0.037  0.00  0.00    +0.149 HD
ENDROOT
BRANCH   1   5
ATOM      5  C   LIG    1       -0.495  -0.208  -0.104  0.00  0.00    +0.155 A 
ATOM      6  C   LIG    1       -1.114  -1.510  -0.170  0.00  0.00    +0.032 A 
ATOM      7  C   LIG    1       -0.692  -2.835   0.038  0.00  0.00    +0.012 A 
ATOM      8  C   LIG    1       -1.609  -3.872  -0.128  0.00  0.00    +0.001 A 
ATOM      9  C   LIG    1       -2.928  -3.615  -0.495  0.00  0.00    +0.002 A 
ATOM     10  C   LIG    1       -3.390  -2.316  -0.711  0.00  0.00    +0.028 A 
ATOM     11  C   LIG    1       -2.465  -1.279  -0.541  0.00  0.00    +0.069 A 
ATOM     12  N   LIG    1       -2.570   0.088  -0.667  0.00  0.00    -0.266 N 
ATOM     13  C   LIG    1       -3.734   0.878  -1.037  0.00  0.00    +0.173 C 
ATOM     14  N   LIG    1       -1.403   0.701  -0.408  0.00  0.00    -0.166 NA
ENDBRANCH   1   5
BRANCH   3  15
ATOM     15  C   LIG    1        2.504   2.010   0.497  0.00  0.00    +0.076 C 
ATOM     16  C   LIG    1        2.702   3.436  -0.077  0.00  0.00    +0.041 C 
ATOM     17  C   LIG    1        3.835   4.316   0.541  0.00  0.00    +0.058 C 
ATOM     18  N   LIG    1        4.775   3.519   1.354  0.00  0.00    -0.299 NA
ATOM     19  C   LIG    1        5.747   2.764   0.566  0.00  0.00    +0.105 C 
ATOM     20  C   LIG    1        4.161   2.745   2.450  0.00  0.00    +0.058 C 
ATOM     21  C   LIG    1        3.577   3.802   3.433  0.00  0.00    +0.019 C 
ATOM     22  C   LIG    1        2.598   4.782   2.765  0.00  0.00    +0.003 C 
ATOM     23  C   LIG    1        3.244   5.385   1.507  0.00  0.00    +0.019 C 
ATOM     24  C   LIG    1        3.043   1.782   1.937  0.00  0.00    +0.041 C 
ENDBRANCH   3  15
TORSDOF 2
