REMARK  Name = DB00483
REMARK                            x       y       z     vdW  Elec       q    Type
REMARK                         _______ _______ _______ _____ _____    ______ ____
ROOT
ATOM      1  C   LIG    1        2.162   0.230  -0.297  0.00  0.00    +0.204 A 
ATOM      2  C   LIG    1        2.795   0.065   0.944  0.00  0.00    +0.165 A 
ATOM      3  C   LIG    1        4.195   0.144   1.005  0.00  0.00    +0.049 A 
ATOM      4  C   LIG    1        4.942   0.366  -0.149  0.00  0.00    +0.007 A 
ATOM      5  C   LIG    1        4.305   0.510  -1.378  0.00  0.00    +0.049 A 
ATOM      6  C   LIG    1        2.906   0.440  -1.467  0.00  0.00    +0.165 A 
ENDROOT
BRANCH   1   7
ATOM      7  O   LIG    1        0.791   0.151  -0.367  0.00  0.00    -0.487 OA
BRANCH   7   8
ATOM      8  C   LIG    1        0.128   1.408  -0.340  0.00  0.00    +0.211 C 
BRANCH   8   9
ATOM      9  C   LIG    1       -1.410   1.260  -0.246  0.00  0.00    -0.034 C 
BRANCH   9  10
ATOM     10  N   LIG    1       -1.965   0.563   1.046  0.00  0.00    +0.382 N 
BRANCH  10  11
ATOM     11  C   LIG    1       -1.440   1.279   2.336  0.00  0.00    -0.078 C 
ATOM     12  C   LIG    1       -1.827   2.769   2.452  0.00  0.00    -0.016 C 
ENDBRANCH  10  11
BRANCH  10  13
ATOM     13  C   LIG    1       -1.514  -0.934   1.162  0.00  0.00    -0.078 C 
ATOM     14  C   LIG    1       -1.855  -1.810  -0.062  0.00  0.00    -0.016 C 
ENDBRANCH  10  13
BRANCH  10  15
ATOM     15  C   LIG    1       -3.527   0.656   0.944  0.00  0.00    -0.078 C 
ATOM     16  C   LIG    1       -4.298   0.058   2.142  0.00  0.00    -0.016 C 
ENDBRANCH  10  15
ENDBRANCH   9  10
ENDBRANCH   8   9
ENDBRANCH   7   8
ENDBRANCH   1   7
BRANCH   2  17
ATOM     17  O   LIG    1        1.984  -0.168   2.041  0.00  0.00    -0.490 OA
BRANCH  17  18
ATOM     18  C   LIG    1        2.568  -0.319   3.331  0.00  0.00    +0.211 C 
BRANCH  18  19
ATOM     19  C   LIG    1        1.440  -0.683   4.319  0.00  0.00    -0.034 C 
BRANCH  19  20
ATOM     20  N   LIG    1        1.733  -0.383   5.831  0.00  0.00    +0.382 N 
BRANCH  20  21
ATOM     21  C   LIG    1        0.450  -0.878   6.591  0.00  0.00    -0.078 C 
ATOM     22  C   LIG    1        0.367  -0.483   8.085  0.00  0.00    -0.016 C 
ENDBRANCH  20  21
BRANCH  20  23
ATOM     23  C   LIG    1        1.979   1.143   6.091  0.00  0.00    -0.078 C 
ATOM     24  C   LIG    1        0.810   2.059   5.665  0.00  0.00    -0.016 C 
ENDBRANCH  20  23
BRANCH  20  25
ATOM     25  C   LIG    1        2.939  -1.260   6.326  0.00  0.00    -0.078 C 
ATOM     26  C   LIG    1        4.348  -0.665   6.099  0.00  0.00    -0.016 C 
ENDBRANCH  20  25
ENDBRANCH  19  20
ENDBRANCH  18  19
ENDBRANCH  17  18
ENDBRANCH   2  17
BRANCH   6  27
ATOM     27  O   LIG    1        2.192   0.567  -2.647  0.00  0.00    -0.490 OA
BRANCH  27  28
ATOM     28  C   LIG    1        2.865   0.638  -3.902  0.00  0.00    +0.211 C 
BRANCH  28  29
ATOM     29  C   LIG    1        3.468  -0.702  -4.417  0.00  0.00    -0.034 C 
BRANCH  29  30
ATOM     30  N   LIG    1        2.464  -1.897  -4.614  0.00  0.00    +0.382 N 
BRANCH  30  31
ATOM     31  C   LIG    1        1.853  -2.273  -3.215  0.00  0.00    -0.078 C 
ATOM     32  C   LIG    1        1.388  -3.737  -3.029  0.00  0.00    -0.016 C 
ENDBRANCH  30  31
BRANCH  30  33
ATOM     33  C   LIG    1        3.289  -3.106  -5.179  0.00  0.00    -0.078 C 
ATOM     34  C   LIG    1        3.953  -2.873  -6.556  0.00  0.00    -0.016 C 
ENDBRANCH  30  33
BRANCH  30  35
ATOM     35  C   LIG    1        1.347  -1.429  -5.609  0.00  0.00    -0.078 C 
ATOM     36  C   LIG    1        0.373  -2.526  -6.080  0.00  0.00    -0.016 C 
ENDBRANCH  30  35
ENDBRANCH  29  30
ENDBRANCH  28  29
ENDBRANCH  27  28
ENDBRANCH   6  27
TORSDOF 21
