REMARK  Name = DB00136
REMARK                            x       y       z     vdW  Elec       q    Type
REMARK                         _______ _______ _______ _____ _____    ______ ____
ROOT
ATOM      1  C   LIG    1       -2.974   1.407   1.413  0.00  0.00    +0.008 C 
ATOM      2  C   LIG    1       -4.462   1.808   1.292  0.00  0.00    +0.005 C 
ATOM      3  C   LIG    1       -4.670   3.087   0.442  0.00  0.00    +0.031 C 
ATOM      4  C   LIG    1       -3.924   3.000  -0.900  0.00  0.00    -0.066 C 
ATOM      5  C   LIG    1       -4.467   3.207  -2.122  0.00  0.00    -0.000 C 
ATOM      6  C   LIG    1       -2.447   2.636  -0.679  0.00  0.00    +0.021 C 
ATOM      7  C   LIG    1       -1.458   2.591  -1.845  0.00  0.00    +0.009 C 
ATOM      8  C   LIG    1       -0.275   1.792  -1.283  0.00  0.00    +0.005 C 
ATOM      9  C   LIG    1       -0.739   1.125   0.046  0.00  0.00    -0.002 C 
ATOM     10  C   LIG    1       -2.304   1.254   0.016  0.00  0.00    -0.022 C 
ATOM     11  C   LIG    1       -2.955   0.099  -0.810  0.00  0.00    +0.012 C 
ENDROOT
BRANCH   5  12
ATOM     12  C   LIG    1       -5.857   3.543  -2.408  0.00  0.00    +0.004 C 
ATOM     13  C   LIG    1       -6.383   3.790  -3.633  0.00  0.00    -0.040 C 
ATOM     14  C   LIG    1       -7.873   4.077  -3.803  0.00  0.00    +0.067 C 
ATOM     15  C   LIG    1       -8.461   3.154  -4.900  0.00  0.00    +0.122 C 
ATOM     16  C   LIG    1       -7.644   3.198  -6.215  0.00  0.00    +0.067 C 
ATOM     17  C   LIG    1       -6.135   2.915  -6.008  0.00  0.00    +0.147 C 
ATOM     18  C   LIG    1       -5.612   3.802  -4.880  0.00  0.00    -0.023 C 
ATOM     19  C   LIG    1       -4.534   4.593  -5.043  0.00  0.00    +0.015 C 
BRANCH  17  20
ATOM     20  O   LIG    1       -5.912   1.552  -5.702  0.00  0.00    -0.387 OA
ATOM     21  H   LIG    1       -4.967   1.385  -5.725  0.00  0.00    +0.210 HD
ENDBRANCH  17  20
BRANCH  15  22
ATOM     22  O   LIG    1       -9.818   3.467  -5.141  0.00  0.00    -0.391 OA
ATOM     23  H   LIG    1       -9.870   4.367  -5.472  0.00  0.00    +0.210 HD
ENDBRANCH  15  22
ENDBRANCH   5  12
BRANCH   9  24
ATOM     24  C   LIG    1       -0.103  -0.289   0.282  0.00  0.00    -0.010 C 
ATOM     25  C   LIG    1       -0.604  -0.972   1.576  0.00  0.00    +0.008 C 
BRANCH  24  26
ATOM     26  C   LIG    1        1.452  -0.228   0.272  0.00  0.00    +0.003 C 
BRANCH  26  27
ATOM     27  C   LIG    1        2.160  -1.594   0.140  0.00  0.00    +0.003 C 
BRANCH  27  28
ATOM     28  C   LIG    1        3.690  -1.458  -0.043  0.00  0.00    +0.034 C 
BRANCH  28  29
ATOM     29  C   LIG    1        4.493  -2.782  -0.169  0.00  0.00    +0.061 C 
ATOM     30  C   LIG    1        6.009  -2.505  -0.218  0.00  0.00    +0.041 C 
ATOM     31  C   LIG    1        4.042  -3.641  -1.370  0.00  0.00    +0.041 C 
BRANCH  29  32
ATOM     32  O   LIG    1        4.251  -3.567   0.984  0.00  0.00    -0.389 OA
ATOM     33  H   LIG    1        3.312  -3.763   1.026  0.00  0.00    +0.210 HD
ENDBRANCH  29  32
ENDBRANCH  28  29
ENDBRANCH  27  28
ENDBRANCH  26  27
ENDBRANCH  24  26
ENDBRANCH   9  24
TORSDOF 9
