REMARK  Name = DB00988
REMARK                            x       y       z     vdW  Elec       q    Type
REMARK                         _______ _______ _______ _____ _____    ______ ____
ROOT
ATOM      1  C   LIG    1        3.626  -0.012  -1.218  0.00  0.00    +0.158 A 
ATOM      2  C   LIG    1        4.329  -0.018  -0.006  0.00  0.00    +0.158 A 
ATOM      3  C   LIG    1        3.629  -0.015   1.202  0.00  0.00    +0.049 A 
ATOM      4  C   LIG    1        2.234  -0.005   1.205  0.00  0.00    +0.007 A 
ATOM      5  C   LIG    1        1.528   0.001  -0.002  0.00  0.00    -0.042 A 
ATOM      6  C   LIG    1        2.230  -0.002  -1.211  0.00  0.00    +0.052 A 
ENDROOT
BRANCH   1   7
ATOM      7  O   LIG    1        4.288  -0.016  -2.421  0.00  0.00    -0.503 OA
ATOM      8  H   LIG    1        3.696  -0.015  -3.176  0.00  0.00    +0.292 HD
ENDBRANCH   1   7
BRANCH   2   9
ATOM      9  O   LIG    1        5.701  -0.025   0.019  0.00  0.00    -0.503 OA
ATOM     10  H   LIG    1        6.061  -0.027   0.909  0.00  0.00    +0.292 HD
ENDBRANCH   2   9
BRANCH   5  11
ATOM     11  C   LIG    1        0.007   0.016   0.002  0.00  0.00    +0.050 C 
BRANCH  11  12
ATOM     12  C   LIG    1       -0.563   1.444  -0.000  0.00  0.00    +0.082 C 
BRANCH  12  13
ATOM     13  N   LIG    1       -2.013   1.410   0.003  0.00  0.00    -0.330 NA
ATOM     14  H   LIG    1       -2.345   0.975  -0.846  0.00  0.00    +0.118 HD
ATOM     15  H   LIG    1       -2.374   2.353   0.000  0.00  0.00    +0.118 HD
ENDBRANCH  12  13
ENDBRANCH  11  12
ENDBRANCH   5  11
TORSDOF 5
