REMARK  Name = DB00941
REMARK                            x       y       z     vdW  Elec       q    Type
REMARK                         _______ _______ _______ _____ _____    ______ ____
ROOT
ATOM      1  C   LIG    1       -0.015   0.087   0.190  0.00  0.00    -0.002 C 
ENDROOT
BRANCH   1   2
ATOM      2  C   LIG    1       -0.452   1.562   0.167  0.00  0.00    -0.018 C 
BRANCH   2   3
ATOM      3  C   LIG    1       -1.994   1.707   0.156  0.00  0.00    -0.075 C 
BRANCH   3   4
ATOM      4  N   LIG    1       -2.547   3.167   0.289  0.00  0.00    +0.384 N 
ATOM      5  C   LIG    1       -2.306   3.678   1.737  0.00  0.00    -0.091 C 
ATOM      6  C   LIG    1       -1.771   4.110  -0.672  0.00  0.00    -0.091 C 
BRANCH   4   7
ATOM      7  C   LIG    1       -4.086   3.174  -0.080  0.00  0.00    -0.003 C 
ATOM      8  C   LIG    1       -4.930   2.333   0.879  0.00  0.00    -0.049 A 
ATOM      9  C   LIG    1       -5.000   0.946   1.055  0.00  0.00    +0.003 A 
ATOM     10  C   LIG    1       -5.832   0.404   2.036  0.00  0.00    +0.000 A 
ATOM     11  C   LIG    1       -6.617   1.242   2.829  0.00  0.00    +0.001 A 
ATOM     12  C   LIG    1       -6.595   2.620   2.621  0.00  0.00    +0.009 A 
ATOM     13  C   LIG    1       -5.771   3.157   1.629  0.00  0.00    -0.016 A 
ATOM     14  C   LIG    1       -5.655   4.534   1.124  0.00  0.00    -0.016 A 
ATOM     15  C   LIG    1       -6.340   5.695   1.488  0.00  0.00    +0.009 A 
ATOM     16  C   LIG    1       -6.151   6.867   0.755  0.00  0.00    +0.001 A 
ATOM     17  C   LIG    1       -5.297   6.869  -0.349  0.00  0.00    +0.000 A 
ATOM     18  C   LIG    1       -4.606   5.709  -0.702  0.00  0.00    +0.003 A 
ATOM     19  C   LIG    1       -4.743   4.547   0.066  0.00  0.00    -0.049 A 
ENDBRANCH   4   7
ENDBRANCH   3   4
ENDBRANCH   2   3
ENDBRANCH   1   2
BRANCH   1  20
ATOM     20  C   LIG    1        1.515  -0.087   0.190  0.00  0.00    -0.002 C 
BRANCH  20  21
ATOM     21  C   LIG    1        1.952  -1.562   0.167  0.00  0.00    -0.018 C 
BRANCH  21  22
ATOM     22  C   LIG    1        3.494  -1.707   0.156  0.00  0.00    -0.075 C 
BRANCH  22  23
ATOM     23  N   LIG    1        4.047  -3.167   0.289  0.00  0.00    +0.384 N 
ATOM     24  C   LIG    1        3.805  -3.678   1.737  0.00  0.00    -0.091 C 
ATOM     25  C   LIG    1        3.271  -4.110  -0.671  0.00  0.00    -0.091 C 
BRANCH  23  26
ATOM     26  C   LIG    1        5.586  -3.174  -0.080  0.00  0.00    -0.003 C 
ATOM     27  C   LIG    1        6.430  -2.333   0.879  0.00  0.00    -0.049 A 
ATOM     28  C   LIG    1        6.500  -0.946   1.055  0.00  0.00    +0.003 A 
ATOM     29  C   LIG    1        7.332  -0.404   2.036  0.00  0.00    +0.000 A 
ATOM     30  C   LIG    1        8.117  -1.242   2.829  0.00  0.00    +0.001 A 
ATOM     31  C   LIG    1        8.095  -2.620   2.621  0.00  0.00    +0.009 A 
ATOM     32  C   LIG    1        7.271  -3.157   1.629  0.00  0.00    -0.016 A 
ATOM     33  C   LIG    1        7.154  -4.534   1.124  0.00  0.00    -0.016 A 
ATOM     34  C   LIG    1        7.840  -5.696   1.488  0.00  0.00    +0.009 A 
ATOM     35  C   LIG    1        7.651  -6.867   0.755  0.00  0.00    +0.001 A 
ATOM     36  C   LIG    1        6.798  -6.869  -0.349  0.00  0.00    +0.000 A 
ATOM     37  C   LIG    1        6.106  -5.709  -0.702  0.00  0.00    +0.003 A 
ATOM     38  C   LIG    1        6.243  -4.547   0.066  0.00  0.00    -0.049 A 
ENDBRANCH  23  26
ENDBRANCH  22  23
ENDBRANCH  21  22
ENDBRANCH  20  21
ENDBRANCH   1  20
TORSDOF 9
