REMARK  Name = DB00683
REMARK                            x       y       z     vdW  Elec       q    Type
REMARK                         _______ _______ _______ _____ _____    ______ ____
ROOT
ATOM      1 CL   LIG    1        0.285  -4.463  -2.505  0.00  0.00    -0.084 Cl
ATOM      2  C   LIG    1       -0.530  -3.408  -1.408  0.00  0.00    +0.042 A 
ATOM      3  C   LIG    1       -1.730  -3.800  -0.829  0.00  0.00    +0.022 A 
ATOM      4  C   LIG    1       -2.383  -2.946   0.053  0.00  0.00    +0.028 A 
ATOM      5  C   LIG    1       -1.841  -1.694   0.381  0.00  0.00    +0.057 A 
ATOM      6  C   LIG    1       -0.627  -1.268  -0.224  0.00  0.00    +0.026 A 
ATOM      7  C   LIG    1        0.011   0.065   0.015  0.00  0.00    +0.078 C 
ATOM      8  N   LIG    1       -0.588   1.195   0.133  0.00  0.00    -0.276 NA
ATOM      9  C   LIG    1       -2.037   1.274   0.056  0.00  0.00    +0.197 C 
ATOM     10  C   LIG    1       -2.702   0.499   1.179  0.00  0.00    +0.065 A 
ATOM     11  C   LIG    1       -3.502   0.862   2.250  0.00  0.00    +0.136 A 
ATOM     12  N   LIG    1       -3.801  -0.160   3.023  0.00  0.00    -0.240 NA
ATOM     13  C   LIG    1       -3.222  -1.194   2.462  0.00  0.00    +0.111 A 
ATOM     14  C   LIG    1       -3.275  -2.580   3.076  0.00  0.00    +0.086 C 
ATOM     15  N   LIG    1       -2.555  -0.867   1.290  0.00  0.00    -0.298 N 
ATOM     16  C   LIG    1        0.008  -2.158  -1.111  0.00  0.00    +0.032 A 
ENDROOT
BRANCH   7  17
ATOM     17  C   LIG    1        1.478   0.068   0.122  0.00  0.00    +0.036 A 
ATOM     18  C   LIG    1        2.084  -0.519   1.241  0.00  0.00    +0.013 A 
ATOM     19  C   LIG    1        3.474  -0.547   1.356  0.00  0.00    +0.001 A 
ATOM     20  C   LIG    1        4.269   0.007   0.354  0.00  0.00    +0.003 A 
ATOM     21  C   LIG    1        3.675   0.589  -0.765  0.00  0.00    +0.039 A 
ATOM     22  C   LIG    1        2.285   0.620  -0.888  0.00  0.00    +0.133 A 
ATOM     23  F   LIG    1        1.737   1.181  -1.993  0.00  0.00    -0.205 F 
ENDBRANCH   7  17
TORSDOF 1
