REMARK  Name = DB00897
REMARK                            x       y       z     vdW  Elec       q    Type
REMARK                         _______ _______ _______ _____ _____    ______ ____
ROOT
ATOM      1 CL   LIG    1        0.308  -4.361  -2.640  0.00  0.00    -0.084 Cl
ATOM      2  C   LIG    1       -0.519  -3.350  -1.512  0.00  0.00    +0.042 A 
ATOM      3  C   LIG    1       -1.715  -3.773  -0.945  0.00  0.00    +0.022 A 
ATOM      4  C   LIG    1       -2.378  -2.953  -0.039  0.00  0.00    +0.028 A 
ATOM      5  C   LIG    1       -1.851  -1.705   0.323  0.00  0.00    +0.059 A 
ATOM      6  C   LIG    1       -0.637  -1.250  -0.261  0.00  0.00    +0.026 A 
ATOM      7  C   LIG    1       -0.006   0.077   0.034  0.00  0.00    +0.077 C 
ATOM      8  N   LIG    1       -0.607   1.202   0.195  0.00  0.00    -0.275 NA
ATOM      9  C   LIG    1       -2.056   1.279   0.108  0.00  0.00    +0.218 C 
ATOM     10  C   LIG    1       -2.727   0.457   1.193  0.00  0.00    +0.159 A 
ATOM     11  N   LIG    1       -3.448   0.901   2.192  0.00  0.00    -0.132 NA
ATOM     12  N   LIG    1       -3.783  -0.198   2.973  0.00  0.00    -0.134 NA
ATOM     13  C   LIG    1       -3.246  -1.253   2.411  0.00  0.00    +0.135 A 
ATOM     14  C   LIG    1       -3.338  -2.645   3.003  0.00  0.00    +0.088 C 
ATOM     15  N   LIG    1       -2.574  -0.911   1.249  0.00  0.00    -0.281 N 
ATOM     16  C   LIG    1        0.006  -2.106  -1.175  0.00  0.00    +0.032 A 
ENDROOT
BRANCH   7  17
ATOM     17  C   LIG    1        1.461   0.080   0.150  0.00  0.00    +0.019 A 
ATOM     18  C   LIG    1        2.035  -0.439   1.319  0.00  0.00    +0.011 A 
ATOM     19  C   LIG    1        3.420  -0.469   1.474  0.00  0.00    +0.001 A 
ATOM     20  C   LIG    1        4.246   0.016   0.462  0.00  0.00    +0.001 A 
ATOM     21  C   LIG    1        3.687   0.529  -0.707  0.00  0.00    +0.020 A 
ATOM     22  C   LIG    1        2.301   0.564  -0.874  0.00  0.00    +0.050 A 
ATOM     23 CL   LIG    1        1.675   1.200  -2.362  0.00  0.00    -0.083 Cl
ENDBRANCH   7  17
TORSDOF 1
