REMARK  Name = DB00263
REMARK                            x       y       z     vdW  Elec       q    Type
REMARK                         _______ _______ _______ _____ _____    ______ ____
ROOT
ATOM      1  S   LIG    1       -0.047  -0.021   0.000  0.00  0.00    +0.075 S 
ATOM      2  O   LIG    1       -0.500  -0.590   1.274  0.00  0.00    -0.150 OA
ATOM      3  O   LIG    1       -0.500  -0.590  -1.274  0.00  0.00    -0.150 OA
ENDROOT
BRANCH   1   4
ATOM      4  C   LIG    1       -0.424   1.729   0.000  0.00  0.00    +0.109 A 
ATOM      5  C   LIG    1       -0.564   2.409  -1.212  0.00  0.00    +0.030 A 
ATOM      6  C   LIG    1       -0.853   3.771  -1.211  0.00  0.00    +0.024 A 
ATOM      7  C   LIG    1       -0.997   4.449   0.000  0.00  0.00    +0.025 A 
ATOM      8  C   LIG    1       -0.853   3.771   1.211  0.00  0.00    +0.024 A 
ATOM      9  C   LIG    1       -0.564   2.409   1.212  0.00  0.00    +0.030 A 
BRANCH   7  10
ATOM     10  N   LIG    1       -1.288   5.812   0.000  0.00  0.00    -0.358 N 
ATOM     11  H   LIG    1       -1.399   6.297   0.879  0.00  0.00    +0.142 HD
ATOM     12  H   LIG    1       -1.399   6.297  -0.879  0.00  0.00    +0.142 HD
ENDBRANCH   7  10
ENDBRANCH   1   4
BRANCH   1  13
ATOM     13  N   LIG    1        1.719  -0.110   0.000  0.00  0.00    -0.183 N 
ATOM     14  H   LIG    1        2.189   0.784   0.000  0.00  0.00    +0.177 HD
BRANCH  13  15
ATOM     15  C   LIG    1        2.429  -1.281   0.000  0.00  0.00    +0.240 A 
ATOM     16  C   LIG    1        3.783  -1.563   0.000  0.00  0.00    +0.035 A 
ATOM     17  C   LIG    1        4.932  -0.578   0.000  0.00  0.00    +0.051 C 
ATOM     18  C   LIG    1        3.819  -2.966   0.000  0.00  0.00    +0.085 A 
ATOM     19  C   LIG    1        5.017  -3.891   0.000  0.00  0.00    +0.069 C 
ATOM     20  N   LIG    1        2.616  -3.498   0.000  0.00  0.00    -0.081 NA
ATOM     21  O   LIG    1        1.719  -2.435   0.000  0.00  0.00    -0.338 OA
ENDBRANCH  13  15
ENDBRANCH   1  13
TORSDOF 4
