REMARK  Name = DB00588
REMARK                            x       y       z     vdW  Elec       q    Type
REMARK                         _______ _______ _______ _____ _____    ______ ____
ROOT
ATOM      1  C   LIG    1       -0.179  -4.911  -6.402  0.00  0.00    +0.047 C 
ATOM      2  C   LIG    1       -0.887  -3.972  -5.745  0.00  0.00    -0.009 C 
ATOM      3  C   LIG    1       -1.430  -4.100  -4.311  0.00  0.00    +0.047 C 
ATOM      4  C   LIG    1       -2.981  -4.107  -4.436  0.00  0.00    +0.023 C 
ATOM      5  C   LIG    1       -0.845  -2.970  -3.363  0.00  0.00    +0.153 C 
ATOM      6  F   LIG    1        0.488  -3.118  -3.415  0.00  0.00    -0.238 F 
ATOM      7  C   LIG    1       -1.062  -1.479  -3.829  0.00  0.00    +0.154 C 
ATOM      8  C   LIG    1       -0.481  -0.457  -2.809  0.00  0.00    +0.046 C 
ATOM      9  C   LIG    1       -1.003  -0.644  -1.349  0.00  0.00    +0.022 C 
ATOM     10  C   LIG    1       -2.558  -0.411  -1.308  0.00  0.00    +0.016 C 
ATOM     11  C   LIG    1       -0.247   0.143  -0.180  0.00  0.00    +0.189 C 
ATOM     12  C   LIG    1       -0.655  -0.707   1.085  0.00  0.00    +0.039 C 
ATOM     13  C   LIG    1        0.271  -0.653   2.325  0.00  0.00    +0.012 C 
ATOM     14  C   LIG    1       -0.863  -2.155   0.572  0.00  0.00    +0.012 C 
ATOM     15  C   LIG    1       -0.625  -2.093  -0.943  0.00  0.00    +0.006 C 
ATOM     16  C   LIG    1       -1.237  -3.198  -1.856  0.00  0.00    +0.037 C 
ATOM     17  C   LIG    1       -0.831  -4.617  -1.393  0.00  0.00    +0.048 C 
ATOM     18  C   LIG    1       -1.428  -5.721  -2.281  0.00  0.00    +0.194 C 
ATOM     19  F   LIG    1       -0.996  -6.909  -1.852  0.00  0.00    -0.241 F 
ATOM     20  C   LIG    1       -0.994  -5.484  -3.737  0.00  0.00    -0.020 C 
ATOM     21  C   LIG    1       -0.279  -6.387  -4.455  0.00  0.00    +0.054 C 
ATOM     22  C   LIG    1        0.181  -6.205  -5.832  0.00  0.00    +0.179 C 
ATOM     23  O   LIG    1        0.814  -7.059  -6.449  0.00  0.00    -0.288 OA
ENDROOT
BRANCH   7  24
ATOM     24  O   LIG    1       -2.393  -1.155  -4.177  0.00  0.00    -0.389 OA
ATOM     25  H   LIG    1       -2.672  -1.733  -4.890  0.00  0.00    +0.210 HD
ENDBRANCH   7  24
BRANCH  11  26
ATOM     26  C   LIG    1       -0.628   1.661   0.032  0.00  0.00    +0.236 C 
ATOM     27  O   LIG    1       -1.578   2.174  -0.558  0.00  0.00    -0.281 OA
BRANCH  26  28
ATOM     28  S   LIG    1        0.465   2.653   1.157  0.00  0.00    -0.051 S 
BRANCH  28  29
ATOM     29  C   LIG    1       -0.322   4.282   0.978  0.00  0.00    +0.290 C 
ATOM     30  F   LIG    1       -1.470   4.348   1.651  0.00  0.00    -0.237 F 
ENDBRANCH  28  29
ENDBRANCH  26  28
ENDBRANCH  11  26
BRANCH  11  31
ATOM     31  O   LIG    1        1.210   0.039  -0.252  0.00  0.00    -0.449 OA
BRANCH  31  32
ATOM     32  C   LIG    1        2.067   0.714  -1.086  0.00  0.00    +0.308 C 
ATOM     33  O   LIG    1        1.749   1.557  -1.927  0.00  0.00    -0.251 OA
BRANCH  32  34
ATOM     34  C   LIG    1        3.524   0.305  -0.840  0.00  0.00    +0.117 C 
ATOM     35  C   LIG    1        4.556   1.096  -1.665  0.00  0.00    +0.015 C 
ENDBRANCH  32  34
ENDBRANCH  31  32
ENDBRANCH  11  31
TORSDOF 7
