REMARK  Name = DB00191
REMARK                            x       y       z     vdW  Elec       q    Type
REMARK                         _______ _______ _______ _____ _____    ______ ____
ROOT
ATOM      1  C   LIG    1        1.478   0.041   0.079  0.00  0.00    +0.056 C 
ENDROOT
BRANCH   1   2
ATOM      2  C   LIG    1        2.048   0.755   1.304  0.00  0.00    -0.046 A 
ATOM      3  C   LIG    1        2.342   0.029   2.462  0.00  0.00    +0.004 A 
ATOM      4  C   LIG    1        2.866   0.678   3.577  0.00  0.00    +0.000 A 
ATOM      5  C   LIG    1        3.099   2.051   3.530  0.00  0.00    +0.000 A 
ATOM      6  C   LIG    1        2.814   2.781   2.378  0.00  0.00    +0.000 A 
ATOM      7  C   LIG    1        2.289   2.132   1.263  0.00  0.00    +0.004 A 
ENDBRANCH   1   2
BRANCH   1   8
ATOM      8  C   LIG    1       -0.075  -0.028  -0.012  0.00  0.00    +0.015 C 
ATOM      9  C   LIG    1       -0.498  -0.724  -1.322  0.00  0.00    +0.027 C 
ATOM     10  C   LIG    1       -0.705  -0.750   1.199  0.00  0.00    +0.027 C 
BRANCH   8  11
ATOM     11  N   LIG    1       -0.625   1.318  -0.055  0.00  0.00    -0.325 NA
ATOM     12  H   LIG    1       -1.629   1.269  -0.150  0.00  0.00    +0.119 HD
ATOM     13  H   LIG    1       -0.280   1.798  -0.873  0.00  0.00    +0.119 HD
ENDBRANCH   8  11
ENDBRANCH   1   8
TORSDOF 3
