REMARK  Name = DB00474
REMARK                            x       y       z     vdW  Elec       q    Type
REMARK                         _______ _______ _______ _____ _____    ______ ____
ROOT
ATOM      1  N   LIG    1       -1.355  -1.859  -1.057  0.00  0.00    -0.228 N 
ATOM      2  C   LIG    1       -1.971  -2.543  -2.217  0.00  0.00    +0.143 C 
ATOM      3  C   LIG    1       -1.581  -2.443   0.164  0.00  0.00    +0.315 C 
ATOM      4  O   LIG    1       -2.152  -3.519   0.353  0.00  0.00    -0.252 OA
ATOM      5  N   LIG    1       -1.122  -1.761   1.236  0.00  0.00    -0.239 N 
ATOM      6  H   LIG    1       -1.338  -2.185   2.127  0.00  0.00    +0.159 HD
ATOM      7  C   LIG    1       -0.445  -0.599   1.318  0.00  0.00    +0.237 C 
ATOM      8  O   LIG    1       -0.153  -0.102   2.406  0.00  0.00    -0.274 OA
ATOM      9  C   LIG    1       -0.044   0.012  -0.070  0.00  0.00    +0.140 C 
ATOM     10  C   LIG    1       -0.706  -0.680  -1.327  0.00  0.00    +0.239 C 
ATOM     11  O   LIG    1       -0.614  -0.191  -2.458  0.00  0.00    -0.274 OA
ENDROOT
BRANCH   9  12
ATOM     12  C   LIG    1        1.539  -0.127  -0.174  0.00  0.00    +0.085 C 
ATOM     13  C   LIG    1        2.090  -1.580  -0.198  0.00  0.00    +0.023 C 
BRANCH  12  14
ATOM     14  C   LIG    1        2.185   0.671  -1.245  0.00  0.00    -0.098 C 
ATOM     15  C   LIG    1        2.700   1.325  -2.139  0.00  0.00    -0.102 C 
BRANCH  15  16
ATOM     16  C   LIG    1        3.303   2.106  -3.232  0.00  0.00    +0.085 C 
ATOM     17  C   LIG    1        3.558   1.286  -4.506  0.00  0.00    +0.017 C 
ENDBRANCH  15  16
ENDBRANCH  12  14
ENDBRANCH   9  12
BRANCH   9  18
ATOM     18  C   LIG    1       -0.574   1.499  -0.057  0.00  0.00    +0.053 C 
BRANCH  18  19
ATOM     19  C   LIG    1       -2.079   1.713   0.106  0.00  0.00    -0.033 C 
ATOM     20  C   LIG    1       -2.887   2.224  -0.836  0.00  0.00    +0.004 C 
ENDBRANCH  18  19
ENDBRANCH   9  18
TORSDOF 5
