REMARK  Name = DB00228
REMARK                            x       y       z     vdW  Elec       q    Type
REMARK                         _______ _______ _______ _____ _____    ______ ____
ROOT
ATOM      1  C   LIG    1        1.428   0.012   0.002  0.00  0.00    +0.406 C 
ATOM      2  F   LIG    1        1.867   0.644   1.093  0.00  0.00    -0.170 F 
ATOM      3  F   LIG    1        1.895   0.665  -1.066  0.00  0.00    -0.170 F 
ENDROOT
BRANCH   1   5
ATOM      4 CL   LIG    1        1.320  -2.322  -1.439  0.00  0.00    -0.076 Cl
ATOM      5  C   LIG    1        1.909  -1.451   0.004  0.00  0.00    +0.355 C 
ATOM      6  F   LIG    1        1.540  -2.121   1.096  0.00  0.00    -0.219 F 
ENDBRANCH   1   5
BRANCH   1   7
ATOM      7  O   LIG    1        0.002   0.015  -0.009  0.00  0.00    -0.255 OA
BRANCH   7   8
ATOM      8  C   LIG    1       -0.627   1.293  -0.005  0.00  0.00    +0.487 C 
ATOM      9  F   LIG    1       -1.389   1.414  -1.091  0.00  0.00    -0.178 F 
ATOM     10  F   LIG    1       -1.390   1.408   1.080  0.00  0.00    -0.178 F 
ENDBRANCH   7   8
ENDBRANCH   1   7
TORSDOF 3
