REMARK  Name = DB00398
REMARK                            x       y       z     vdW  Elec       q    Type
REMARK                         _______ _______ _______ _____ _____    ______ ____
ROOT
ATOM      1  C   LIG    1        4.106   0.111   0.617  0.00  0.00    +0.035 A 
ATOM      2  C   LIG    1        3.339   0.781   1.583  0.00  0.00    +0.027 A 
ATOM      3  C   LIG    1        1.950   0.778   1.491  0.00  0.00    +0.048 A 
ATOM      4  C   LIG    1        1.322   0.121   0.432  0.00  0.00    +0.129 A 
ATOM      5  C   LIG    1        2.080  -0.539  -0.533  0.00  0.00    +0.048 A 
ATOM      6  C   LIG    1        3.470  -0.538  -0.444  0.00  0.00    +0.027 A 
ENDROOT
BRANCH   1  10
ATOM      7  N   LIG    1        7.640   0.156   1.206  0.00  0.00    -0.269 N 
ATOM      8  H   LIG    1        7.764  -0.143   0.250  0.00  0.00    +0.156 HD
ATOM      9  C   LIG    1        6.368   0.270   1.640  0.00  0.00    +0.308 C 
ATOM     10  N   LIG    1        5.514   0.065   0.617  0.00  0.00    -0.269 N 
ATOM     11  H   LIG    1        5.923  -0.226  -0.259  0.00  0.00    +0.156 HD
ATOM     12  O   LIG    1        6.036   0.505   2.803  0.00  0.00    -0.252 OA
BRANCH   7  17
ATOM     13 CL   LIG    1       12.832   0.813   4.024  0.00  0.00    -0.083 Cl
ATOM     14  C   LIG    1       11.329   0.607   3.190  0.00  0.00    +0.053 A 
ATOM     15  C   LIG    1       10.182   1.156   3.763  0.00  0.00    +0.022 A 
ATOM     16  C   LIG    1        8.945   1.025   3.137  0.00  0.00    +0.025 A 
ATOM     17  C   LIG    1        8.840   0.330   1.923  0.00  0.00    +0.035 A 
ATOM     18  C   LIG    1        9.994  -0.208   1.347  0.00  0.00    +0.037 A 
ATOM     19  C   LIG    1       11.246  -0.084   1.967  0.00  0.00    +0.075 A 
BRANCH  19  20
ATOM     20  C   LIG    1       12.490  -0.696   1.312  0.00  0.00    +0.419 C 
ATOM     21  F   LIG    1       13.049  -1.582   2.138  0.00  0.00    -0.166 F 
ATOM     22  F   LIG    1       12.215  -1.324   0.167  0.00  0.00    -0.166 F 
ATOM     23  F   LIG    1       13.379   0.262   1.049  0.00  0.00    -0.166 F 
ENDBRANCH  19  20
ENDBRANCH   7  17
ENDBRANCH   1  10
BRANCH   4  24
ATOM     24  O   LIG    1       -0.049   0.110   0.338  0.00  0.00    -0.456 OA
BRANCH  24  25
ATOM     25  C   LIG    1       -0.741   1.222  -0.101  0.00  0.00    +0.132 A 
ATOM     26  C   LIG    1       -2.135   1.180  -0.027  0.00  0.00    +0.066 A 
ATOM     27  C   LIG    1       -2.871   2.279  -0.465  0.00  0.00    +0.115 A 
ATOM     28  N   LIG    1       -2.293   3.398  -0.968  0.00  0.00    -0.250 NA
ATOM     29  C   LIG    1       -0.931   3.450  -1.053  0.00  0.00    +0.129 A 
ATOM     30  C   LIG    1       -0.133   2.376  -0.628  0.00  0.00    +0.079 A 
BRANCH  29  31
ATOM     31  C   LIG    1       -0.291   4.702  -1.623  0.00  0.00    +0.262 C 
ATOM     32  N   LIG    1       -1.124   5.696  -1.990  0.00  0.00    -0.313 N 
ATOM     33  H   LIG    1       -2.116   5.561  -1.855  0.00  0.00    +0.149 HD
ATOM     34  C   LIG    1       -0.717   6.974  -2.562  0.00  0.00    +0.128 C 
ATOM     35  O   LIG    1        0.935   4.783  -1.734  0.00  0.00    -0.269 OA
ENDBRANCH  29  31
ENDBRANCH  24  25
ENDBRANCH   4  24
TORSDOF 6
