REMARK  Name = DB00575
REMARK                            x       y       z     vdW  Elec       q    Type
REMARK                         _______ _______ _______ _____ _____    ______ ____
ROOT
ATOM      1 CL   LIG    1       -1.760   0.270  -1.143  0.00  0.00    -0.080 Cl
ATOM      2  C   LIG    1       -1.533  -1.313  -0.477  0.00  0.00    +0.079 A 
ATOM      3  C   LIG    1       -2.399  -2.331  -0.881  0.00  0.00    +0.023 A 
ATOM      4  C   LIG    1       -2.257  -3.619  -0.369  0.00  0.00    +0.003 A 
ATOM      5  C   LIG    1       -1.249  -3.892   0.552  0.00  0.00    +0.023 A 
ATOM      6  C   LIG    1       -0.377  -2.883   0.964  0.00  0.00    +0.079 A 
ATOM      7 CL   LIG    1        0.855  -3.280   2.115  0.00  0.00    -0.080 Cl
ATOM      8  C   LIG    1       -0.508  -1.581   0.448  0.00  0.00    +0.128 A 
ENDROOT
BRANCH   8   9
ATOM      9  N   LIG    1        0.365  -0.562   0.857  0.00  0.00    -0.204 N 
ATOM     10  H   LIG    1        0.073  -0.027   1.661  0.00  0.00    +0.251 HD
BRANCH   9  11
ATOM     11  C   LIG    1        1.602  -0.198   0.266  0.00  0.00    +0.369 C 
ATOM     12  N   LIG    1        2.190  -0.718  -0.736  0.00  0.00    -0.114 NA
ATOM     13  C   LIG    1        3.381   0.047  -1.002  0.00  0.00    +0.277 C 
ATOM     14  C   LIG    1        3.408   1.179   0.011  0.00  0.00    +0.225 C 
ATOM     15  N   LIG    1        2.288   0.886   0.862  0.00  0.00    -0.235 N 
ATOM     16  H   LIG    1        1.910   1.650   1.403  0.00  0.00    +0.245 HD
ENDBRANCH   9  11
ENDBRANCH   8   9
TORSDOF 2
