REMARK  Name = DB00442
REMARK                            x       y       z     vdW  Elec       q    Type
REMARK                         _______ _______ _______ _____ _____    ______ ____
ROOT
ATOM      1  N   LIG    1       -0.015  -0.069   0.114  0.00  0.00    -0.309 N 
ATOM      2  C   LIG    1       -0.935  -1.096   0.156  0.00  0.00    +0.202 A 
ATOM      3  N   LIG    1       -2.188  -0.696   0.137  0.00  0.00    -0.229 NA
ATOM      4  C   LIG    1       -2.118   0.625   0.078  0.00  0.00    +0.172 A 
ATOM      5  C   LIG    1       -3.228   1.585   0.029  0.00  0.00    +0.302 A 
ATOM      6  N   LIG    1       -2.801   2.936  -0.038  0.00  0.00    -0.176 NA
ATOM      7  C   LIG    1       -1.564   3.317  -0.053  0.00  0.00    +0.195 A 
ATOM      8  N   LIG    1       -0.470   2.396  -0.001  0.00  0.00    -0.312 N 
ATOM      9  H   LIG    1        0.459   2.790  -0.034  0.00  0.00    +0.170 HD
ATOM     10  O   LIG    1       -4.403   1.220   0.044  0.00  0.00    -0.263 OA
ATOM     11  C   LIG    1       -0.796   1.059   0.063  0.00  0.00    +0.147 A 
ENDROOT
BRANCH   1  14
ATOM     12  C   LIG    1        3.464  -1.304   0.802  0.00  0.00    +0.126 C 
ATOM     13  C   LIG    1        2.019  -1.035   1.223  0.00  0.00    +0.061 C 
ATOM     14  C   LIG    1        1.451  -0.152   0.113  0.00  0.00    +0.118 C 
ATOM     15  C   LIG    1        2.055  -0.798  -1.130  0.00  0.00    -0.046 C 
ATOM     16  C   LIG    1        1.450  -1.143  -2.283  0.00  0.00    +0.010 C 
ATOM     17  C   LIG    1        3.521  -0.990  -0.721  0.00  0.00    +0.070 C 
BRANCH  12  18
ATOM     18  O   LIG    1        4.363  -0.453   1.491  0.00  0.00    -0.391 OA
ATOM     19  H   LIG    1        4.553  -0.839   2.349  0.00  0.00    +0.210 HD
ENDBRANCH  12  18
BRANCH  17  20
ATOM     20  C   LIG    1        4.287  -2.043  -1.556  0.00  0.00    +0.166 C 
BRANCH  20  21
ATOM     21  O   LIG    1        5.637  -2.134  -1.147  0.00  0.00    -0.394 OA
ATOM     22  H   LIG    1        6.082  -2.780  -1.701  0.00  0.00    +0.209 HD
ENDBRANCH  20  21
ENDBRANCH  17  20
ENDBRANCH   1  14
BRANCH   7  23
ATOM     23  N   LIG    1       -1.285   4.699  -0.118  0.00  0.00    -0.329 N 
ATOM     24  H   LIG    1       -0.441   5.041   0.318  0.00  0.00    +0.145 HD
ATOM     25  H   LIG    1       -2.052   5.347  -0.014  0.00  0.00    +0.145 HD
ENDBRANCH   7  23
TORSDOF 5
