REMARK  Name = DB00254
REMARK                            x       y       z     vdW  Elec       q    Type
REMARK                         _______ _______ _______ _____ _____    ______ ____
ROOT
ATOM      1  C   LIG    1       -0.444   2.180  -1.563  0.00  0.00    +0.192 C 
ATOM      2  C   LIG    1       -1.122   1.293  -2.653  0.00  0.00    +0.211 C 
ATOM      3  O   LIG    1       -1.531   1.794  -3.705  0.00  0.00    -0.288 OA
ATOM      4  C   LIG    1       -1.263  -0.169  -2.376  0.00  0.00    +0.121 C 
ATOM      5  C   LIG    1       -0.697  -0.715  -1.258  0.00  0.00    +0.127 C 
ATOM      6  C   LIG    1        0.119   0.049  -0.193  0.00  0.00    +0.132 C 
ATOM      7  C   LIG    1       -1.118   3.574  -1.454  0.00  0.00    +0.141 C 
ATOM      8  C   LIG    1       -1.969   3.971  -0.460  0.00  0.00    +0.047 C 
ATOM      9  C   LIG    1       -2.445   3.022   0.665  0.00  0.00    +0.062 C 
ATOM     10  C   LIG    1       -1.900   1.571   0.471  0.00  0.00    +0.131 C 
ATOM     11  C   LIG    1       -4.003   3.115   0.723  0.00  0.00    +0.027 C 
ATOM     12  C   LIG    1       -4.699   2.040   1.600  0.00  0.00    +0.013 C 
ATOM     13  C   LIG    1       -4.405   4.564   1.058  0.00  0.00    -0.030 A 
ATOM     14  C   LIG    1       -5.500   4.856   1.890  0.00  0.00    +0.005 A 
ATOM     15  C   LIG    1       -5.880   6.158   2.175  0.00  0.00    +0.004 A 
ATOM     16  C   LIG    1       -5.167   7.211   1.632  0.00  0.00    +0.046 A 
ATOM     17  C   LIG    1       -4.069   6.968   0.812  0.00  0.00    +0.128 A 
ATOM     18  C   LIG    1       -3.656   5.641   0.513  0.00  0.00    +0.067 A 
ATOM     19  C   LIG    1       -2.449   5.385  -0.379  0.00  0.00    +0.197 C 
ATOM     20  O   LIG    1       -1.879   6.312  -0.958  0.00  0.00    -0.287 OA
ATOM     21  C   LIG    1       -0.475   1.503  -0.154  0.00  0.00    +0.090 C 
ENDROOT
BRANCH   4  22
ATOM     22  C   LIG    1       -2.024  -1.034  -3.272  0.00  0.00    +0.248 C 
ATOM     23  O   LIG    1       -2.943  -1.754  -2.885  0.00  0.00    -0.270 OA
ATOM     24  N   LIG    1       -1.648  -1.018  -4.556  0.00  0.00    -0.325 N 
ATOM     25  H   LIG    1       -0.898  -0.415  -4.860  0.00  0.00    +0.145 HD
ATOM     26  H   LIG    1       -2.124  -1.599  -5.230  0.00  0.00    +0.145 HD
ENDBRANCH   4  22
BRANCH   6  27
ATOM     27  N   LIG    1        1.587  -0.041  -0.394  0.00  0.00    -0.298 NA
ATOM     28  C   LIG    1        2.093  -1.399  -0.614  0.00  0.00    +0.105 C 
ATOM     29  C   LIG    1        2.324   0.511   0.746  0.00  0.00    +0.105 C 
ENDBRANCH   6  27
BRANCH   1  30
ATOM     30  O   LIG    1        0.913   2.343  -1.963  0.00  0.00    -0.373 OA
ATOM     31  H   LIG    1        1.369   1.506  -1.837  0.00  0.00    +0.211 HD
ENDBRANCH   1  30
BRANCH   5  32
ATOM     32  O   LIG    1       -0.824  -2.019  -0.867  0.00  0.00    -0.509 OA
ATOM     33  H   LIG    1       -0.358  -2.153  -0.038  0.00  0.00    +0.292 HD
ENDBRANCH   5  32
BRANCH   7  34
ATOM     34  O   LIG    1       -0.740   4.364  -2.508  0.00  0.00    -0.507 OA
ATOM     35  H   LIG    1       -0.135   3.875  -3.071  0.00  0.00    +0.292 HD
ENDBRANCH   7  34
BRANCH  10  36
ATOM     36  O   LIG    1       -1.942   0.856   1.696  0.00  0.00    -0.391 OA
ATOM     37  H   LIG    1       -1.388   1.311   2.335  0.00  0.00    +0.210 HD
ENDBRANCH  10  36
BRANCH  17  38
ATOM     38  O   LIG    1       -3.427   8.088   0.340  0.00  0.00    -0.506 OA
ATOM     39  H   LIG    1       -3.833   8.905   0.637  0.00  0.00    +0.292 HD
ENDBRANCH  17  38
TORSDOF 7
