REMARK  Name = DB00978
REMARK                            x       y       z     vdW  Elec       q    Type
REMARK                         _______ _______ _______ _____ _____    ______ ____
ROOT
ATOM      1  F   LIG    1        1.448  -1.639   1.479  0.00  0.00    -0.201 F 
ATOM      2  C   LIG    1        2.239  -0.792   0.776  0.00  0.00    +0.171 A 
ATOM      3  C   LIG    1        3.638  -0.810   0.940  0.00  0.00    +0.090 A 
ATOM      4  C   LIG    1        4.448   0.023   0.131  0.00  0.00    +0.052 A 
ATOM      5  C   LIG    1        5.960  -0.018   0.183  0.00  0.00    +0.204 A 
ATOM      6  C   LIG    1        6.513  -1.133   1.006  0.00  0.00    +0.122 A 
ATOM      7  C   LIG    1        5.653  -1.875   1.754  0.00  0.00    +0.105 A 
ATOM      8  O   LIG    1        6.634   0.794  -0.458  0.00  0.00    -0.286 OA
ATOM      9  C   LIG    1        3.822   0.915  -0.751  0.00  0.00    +0.054 A 
ATOM     10  C   LIG    1        2.438   0.958  -0.877  0.00  0.00    +0.148 A 
ATOM     11  F   LIG    1        1.888   1.835  -1.751  0.00  0.00    -0.203 F 
ATOM     12  N   LIG    1        4.289  -1.665   1.871  0.00  0.00    -0.344 N 
ATOM     13  C   LIG    1        1.634   0.095  -0.124  0.00  0.00    +0.103 A 
ENDROOT
BRANCH  13  14
ATOM     14  N   LIG    1        0.254   0.105  -0.252  0.00  0.00    -0.323 N 
ATOM     15  C   LIG    1       -0.510   1.232   0.302  0.00  0.00    +0.120 C 
ATOM     16  C   LIG    1       -2.025   0.947   0.392  0.00  0.00    +0.100 C 
ATOM     17  N   LIG    1       -2.565   0.530  -0.895  0.00  0.00    -0.311 NA
ATOM     18  H   LIG    1       -3.551   0.340  -0.787  0.00  0.00    +0.122 HD
ATOM     19  C   LIG    1       -1.888  -0.685  -1.336  0.00  0.00    +0.068 C 
ATOM     20  C   LIG    1       -2.477  -1.234  -2.644  0.00  0.00    +0.025 C 
ATOM     21  C   LIG    1       -0.363  -0.433  -1.474  0.00  0.00    +0.123 C 
ENDBRANCH  13  14
BRANCH   6  22
ATOM     22  C   LIG    1        7.947  -1.445   0.994  0.00  0.00    +0.342 C 
ATOM     23  O   LIG    1        8.778  -0.869   0.292  0.00  0.00    -0.245 OA
BRANCH  22  24
ATOM     24  O   LIG    1        8.314  -2.453   1.843  0.00  0.00    -0.477 OA
ATOM     25  H   LIG    1        9.257  -2.626   1.810  0.00  0.00    +0.295 HD
ENDBRANCH  22  24
ENDBRANCH   6  22
BRANCH  12  26
ATOM     26  C   LIG    1        3.713  -1.946   3.195  0.00  0.00    +0.118 C 
ATOM     27  C   LIG    1        3.487  -0.690   4.052  0.00  0.00    +0.027 C 
ENDBRANCH  12  26
TORSDOF 4
