REMARK  Name = DB00408
REMARK                            x       y       z     vdW  Elec       q    Type
REMARK                         _______ _______ _______ _____ _____    ______ ____
ROOT
ATOM      1 CL   LIG    1        0.541  -4.536  -1.243  0.00  0.00    -0.084 Cl
ATOM      2  C   LIG    1        1.578  -3.368  -0.509  0.00  0.00    +0.042 A 
ATOM      3  C   LIG    1        2.841  -3.741  -0.058  0.00  0.00    +0.023 A 
ATOM      4  C   LIG    1        3.678  -2.790   0.521  0.00  0.00    +0.048 A 
ATOM      5  C   LIG    1        3.257  -1.465   0.662  0.00  0.00    +0.144 A 
ATOM      6  C   LIG    1        1.972  -1.079   0.236  0.00  0.00    +0.109 A 
ATOM      7  C   LIG    1        1.516   0.330   0.381  0.00  0.00    +0.325 C 
ATOM      8  N   LIG    1        2.202   1.384   0.127  0.00  0.00    -0.038 NA
ATOM      9  C   LIG    1        3.579   1.385  -0.178  0.00  0.00    +0.218 A 
ATOM     10  C   LIG    1        4.095   2.441  -0.942  0.00  0.00    +0.059 A 
ATOM     11  C   LIG    1        5.455   2.561  -1.221  0.00  0.00    +0.004 A 
ATOM     12  C   LIG    1        6.350   1.630  -0.707  0.00  0.00    +0.004 A 
ATOM     13  C   LIG    1        5.880   0.595   0.094  0.00  0.00    +0.051 A 
ATOM     14  C   LIG    1        4.516   0.472   0.373  0.00  0.00    +0.179 A 
ATOM     15  O   LIG    1        4.117  -0.544   1.208  0.00  0.00    -0.451 OA
ATOM     16  C   LIG    1        1.153  -2.047  -0.370  0.00  0.00    +0.039 A 
ENDROOT
BRANCH   7  17
ATOM     17  N   LIG    1        0.185   0.494   0.803  0.00  0.00    -0.218 N 
ATOM     18  C   LIG    1       -0.628   1.684   0.478  0.00  0.00    +0.241 C 
ATOM     19  C   LIG    1       -2.076   1.303   0.091  0.00  0.00    +0.128 C 
ATOM     20  N   LIG    1       -2.703   0.506   1.145  0.00  0.00    -0.298 NA
ATOM     21  C   LIG    1       -4.079   0.181   0.783  0.00  0.00    +0.105 C 
ATOM     22  C   LIG    1       -1.935  -0.720   1.360  0.00  0.00    +0.128 C 
ATOM     23  C   LIG    1       -0.488  -0.382   1.784  0.00  0.00    +0.241 C 
ENDBRANCH   7  17
TORSDOF 1
