REMARK  Name = DB00776
REMARK                            x       y       z     vdW  Elec       q    Type
REMARK                         _______ _______ _______ _____ _____    ______ ____
ROOT
ATOM      1  C   LIG    1       -1.553  -2.988  -2.777  0.00  0.00    +0.000 A 
ATOM      2  C   LIG    1       -0.292  -2.472  -3.064  0.00  0.00    +0.002 A 
ATOM      3  C   LIG    1        0.304  -1.569  -2.187  0.00  0.00    +0.024 A 
ATOM      4  C   LIG    1       -0.350  -1.171  -1.013  0.00  0.00    +0.046 A 
ATOM      5  N   LIG    1        0.193  -0.277  -0.071  0.00  0.00    -0.224 N 
ATOM      6  C   LIG    1        1.244  -0.672   0.718  0.00  0.00    +0.308 C 
ATOM      7  O   LIG    1        1.800  -1.767   0.620  0.00  0.00    -0.252 OA
ATOM      8  N   LIG    1        1.630   0.175   1.682  0.00  0.00    -0.313 N 
ATOM      9  H   LIG    1        1.173   1.068   1.791  0.00  0.00    +0.147 HD
ATOM     10  H   LIG    1        2.383  -0.079   2.306  0.00  0.00    +0.147 HD
ATOM     11  C   LIG    1       -0.284   1.055  -0.141  0.00  0.00    +0.053 A 
ATOM     12  C   LIG    1        0.546   2.132  -0.491  0.00  0.00    +0.024 A 
ATOM     13  C   LIG    1        0.069   3.438  -0.520  0.00  0.00    +0.002 A 
ATOM     14  C   LIG    1       -1.257   3.698  -0.194  0.00  0.00    +0.001 A 
ATOM     15  C   LIG    1       -2.106   2.652   0.158  0.00  0.00    +0.013 A 
ATOM     16  C   LIG    1       -1.640   1.324   0.192  0.00  0.00    +0.039 A 
ATOM     17  C   LIG    1       -2.667   0.266   0.570  0.00  0.00    +0.169 C 
ATOM     18  O   LIG    1       -3.808   0.618   0.877  0.00  0.00    -0.292 OA
ATOM     19  C   LIG    1       -2.361  -1.244   0.543  0.00  0.00    +0.116 C 
ATOM     20  C   LIG    1       -1.632  -1.688  -0.727  0.00  0.00    -0.018 A 
ATOM     21  C   LIG    1       -2.216  -2.597  -1.615  0.00  0.00    +0.006 A 
ENDROOT
TORSDOF 0
