REMARK  Name = DB00523
REMARK                            x       y       z     vdW  Elec       q    Type
REMARK                         _______ _______ _______ _____ _____    ______ ____
ROOT
ATOM      1  C   LIG    1        1.381  -0.095  -0.439  0.00  0.00    -0.050 C 
ATOM      2  C   LIG    1        2.203   1.155  -0.740  0.00  0.00    +0.044 C 
ATOM      3  C   LIG    1        2.041  -1.261  -0.237  0.00  0.00    +0.003 C 
ENDROOT
BRANCH   1   5
ATOM      4  C   LIG    1       -0.809   1.103  -0.598  0.00  0.00    +0.004 C 
ATOM      5  C   LIG    1       -0.081  -0.012  -0.376  0.00  0.00    +0.003 C 
BRANCH   4   6
ATOM      6  C   LIG    1       -2.270   1.165  -0.519  0.00  0.00    -0.043 C 
ATOM      7  C   LIG    1       -3.060   0.373  -1.310  0.00  0.00    -0.069 C 
ATOM      8  C   LIG    1       -2.522  -0.631  -2.330  0.00  0.00    +0.039 C 
ATOM      9  C   LIG    1       -4.588   0.369  -1.229  0.00  0.00    +0.031 C 
ATOM     10  C   LIG    1       -5.147   1.644  -0.590  0.00  0.00    +0.005 C 
ATOM     11  C   LIG    1       -4.393   1.956   0.702  0.00  0.00    +0.011 C 
ATOM     12  C   LIG    1       -2.868   2.195   0.484  0.00  0.00    -0.010 C 
ATOM     13  C   LIG    1       -2.658   3.610  -0.109  0.00  0.00    +0.016 C 
ATOM     14  C   LIG    1       -2.186   2.026   1.867  0.00  0.00    +0.016 C 
ENDBRANCH   4   6
ENDBRANCH   1   5
BRANCH   3  15
ATOM     15  C   LIG    1        1.463  -2.567   0.056  0.00  0.00    +0.001 C 
ATOM     16  C   LIG    1        2.214  -3.669   0.250  0.00  0.00    +0.003 C 
BRANCH  16  17
ATOM     17  C   LIG    1        1.697  -5.000   0.547  0.00  0.00    -0.044 C 
ATOM     18  C   LIG    1        2.338  -6.164  -0.206  0.00  0.00    +0.044 C 
ATOM     19  C   LIG    1        0.652  -5.126   1.409  0.00  0.00    +0.094 C 
BRANCH  19  20
ATOM     20  C   LIG    1        0.018  -6.355   1.833  0.00  0.00    +0.330 C 
ATOM     21  O   LIG    1        0.516  -7.478   1.781  0.00  0.00    -0.246 OA
BRANCH  20  22
ATOM     22  O   LIG    1       -1.214  -6.114   2.367  0.00  0.00    -0.478 OA
ATOM     23  H   LIG    1       -1.641  -6.917   2.671  0.00  0.00    +0.295 HD
ENDBRANCH  20  22
ENDBRANCH  19  20
ENDBRANCH  16  17
ENDBRANCH   3  15
TORSDOF 6
