REMARK  Name = DB00143
REMARK                            x       y       z     vdW  Elec       q    Type
REMARK                         _______ _______ _______ _____ _____    ______ ____
ROOT
ATOM      1  C   UNK A  1       -0.934   1.202  -0.487  0.00  0.00    +0.214 C 
ATOM      2  N   UNK A  1       -0.020   0.358   0.023  0.00  0.00    -0.303 N 
ATOM      3  H   UNK A  1       -0.331  -0.454   0.536  0.00  0.00    +0.149 HD
ATOM      4  O   UNK A  1       -0.634   2.217  -1.117  0.00  0.00    -0.276 OA
ENDROOT
BRANCH   1   5
ATOM      5  C   UNK A  1       -2.407   0.847  -0.235  0.00  0.00    +0.098 C 
BRANCH   5   6
ATOM      6  C   UNK A  1       -3.365   1.230  -1.395  0.00  0.00    +0.039 C 
BRANCH   6   7
ATOM      7  C   UNK A  1       -4.616   0.324  -1.521  0.00  0.00    +0.161 C 
BRANCH   7   8
ATOM      8  N   UNK A  1       -5.456   0.711  -2.665  0.00  0.00    -0.318 NA
ATOM      9  H   UNK A  1       -6.148   0.003  -2.864  0.00  0.00    +0.119 HD
ATOM     10  H   UNK A  1       -4.902   0.825  -3.502  0.00  0.00    +0.119 HD
ENDBRANCH   7   8
BRANCH   7  11
ATOM     11  C   UNK A  1       -5.527   0.380  -0.279  0.00  0.00    +0.322 C 
ATOM     12  O   UNK A  1       -5.775   1.422   0.327  0.00  0.00    -0.249 OA
BRANCH  11  13
ATOM     13  O   UNK A  1       -6.017  -0.855   0.034  0.00  0.00    -0.480 OA
ATOM     14  H   UNK A  1       -6.593  -0.833   0.802  0.00  0.00    +0.295 HD
ENDBRANCH  11  13
ENDBRANCH   7  11
ENDBRANCH   6   7
ENDBRANCH   5   6
ENDBRANCH   1   5
BRANCH   2  15
ATOM     15  C   UNK A  1        1.432   0.493  -0.128  0.00  0.00    +0.168 C 
BRANCH  15  16
ATOM     16  C   UNK A  1        1.881   0.189  -1.569  0.00  0.00    +0.235 C 
ATOM     17  N   GLY A  2        2.908   0.924  -2.029  0.00  0.00    -0.303 N 
ATOM     18  H   GLY A  2        3.302   1.636  -1.431  0.00  0.00    +0.149 HD
ATOM     19  O   UNK A  1        1.324  -0.703  -2.211  0.00  0.00    -0.274 OA
BRANCH  17  20
ATOM     20  CA  GLY A  2        3.511   0.780  -3.362  0.00  0.00    +0.224 C 
BRANCH  20  21
ATOM     21  C   GLY A  2        4.551  -0.364  -3.447  0.00  0.00    +0.322 C 
ATOM     22  O   GLY A  2        5.024  -0.717  -4.507  0.00  0.00    -0.249 OA
BRANCH  21  23
ATOM     23  OXT GLY A  2        4.888  -0.899  -2.234  0.00  0.00    -0.480 OA
ATOM     24  HXT GLY A  2        5.537  -1.602  -2.313  0.00  0.00    +0.295 HD
ENDBRANCH  21  23
ENDBRANCH  20  21
ENDBRANCH  17  20
ENDBRANCH  15  16
BRANCH  15  25
ATOM     25  C   UNK A  1        2.184  -0.435   0.848  0.00  0.00    +0.097 C 
BRANCH  25  26
ATOM     26  S   UNK A  1        1.937   0.120   2.558  0.00  0.00    -0.176 S 
ATOM     27  H   UNK A  1        2.686  -0.831   3.123  0.00  0.00    +0.102 HD
ENDBRANCH  25  26
ENDBRANCH  15  25
ENDBRANCH   2  15
TORSDOF 13
