REMARK  Name = DB00850
REMARK                            x       y       z     vdW  Elec       q    Type
REMARK                         _______ _______ _______ _____ _____    ______ ____
ROOT
ATOM      1 CL   LIG    1        1.658   5.057   0.123  0.00  0.00    -0.083 Cl
ATOM      2  C   LIG    1        2.837   4.432   1.218  0.00  0.00    +0.043 A 
ATOM      3  C   LIG    1        3.573   5.298   2.018  0.00  0.00    +0.021 A 
ATOM      4  C   LIG    1        4.508   4.783   2.909  0.00  0.00    +0.018 A 
ATOM      5  C   LIG    1        4.707   3.404   3.012  0.00  0.00    +0.034 A 
ATOM      6  C   LIG    1        4.019   2.505   2.166  0.00  0.00    +0.049 A 
ATOM      7  N   LIG    1        4.181   1.108   2.323  0.00  0.00    -0.298 N 
ATOM      8  C   LIG    1        4.484   0.537   3.580  0.00  0.00    +0.048 A 
ATOM      9  C   LIG    1        3.935  -0.691   4.001  0.00  0.00    +0.024 A 
ATOM     10  C   LIG    1        4.172  -1.204   5.275  0.00  0.00    +0.002 A 
ATOM     11  C   LIG    1        4.947  -0.489   6.178  0.00  0.00    +0.001 A 
ATOM     12  C   LIG    1        5.468   0.746   5.810  0.00  0.00    +0.017 A 
ATOM     13  C   LIG    1        5.212   1.274   4.542  0.00  0.00    +0.034 A 
ATOM     14  S   LIG    1        5.925   2.830   4.141  0.00  0.00    -0.086 S 
ATOM     15  C   LIG    1        3.051   3.058   1.302  0.00  0.00    +0.044 A 
ENDROOT
BRANCH   7  16
ATOM     16  C   LIG    1        3.674   0.233   1.245  0.00  0.00    +0.112 C 
BRANCH  16  17
ATOM     17  C   LIG    1        2.141  -0.009   1.269  0.00  0.00    +0.035 C 
BRANCH  17  18
ATOM     18  C   LIG    1        1.534  -0.274  -0.126  0.00  0.00    +0.086 C 
BRANCH  18  19
ATOM     19  N   LIG    1        0.077  -0.115  -0.151  0.00  0.00    -0.300 NA
ATOM     20  C   LIG    1       -0.465  -0.687  -1.390  0.00  0.00    +0.100 C 
ATOM     21  C   LIG    1       -2.008  -0.560  -1.415  0.00  0.00    +0.100 C 
ATOM     22  N   LIG    1       -2.407   0.856  -1.340  0.00  0.00    -0.298 NA
ATOM     23  C   LIG    1       -1.857   1.430  -0.104  0.00  0.00    +0.100 C 
ATOM     24  C   LIG    1       -0.315   1.302  -0.087  0.00  0.00    +0.100 C 
BRANCH  22  25
ATOM     25  C   LIG    1       -3.864   1.038  -1.368  0.00  0.00    +0.112 C 
BRANCH  25  26
ATOM     26  C   LIG    1       -4.460   0.692  -2.748  0.00  0.00    +0.171 C 
BRANCH  26  27
ATOM     27  O   LIG    1       -5.844   0.970  -2.749  0.00  0.00    -0.394 OA
ATOM     28  H   LIG    1       -6.196   0.764  -3.618  0.00  0.00    +0.209 HD
ENDBRANCH  26  27
ENDBRANCH  25  26
ENDBRANCH  22  25
ENDBRANCH  18  19
ENDBRANCH  17  18
ENDBRANCH  16  17
ENDBRANCH   7  16
TORSDOF 7
