REMARK  Name = DB00561
REMARK                            x       y       z     vdW  Elec       q    Type
REMARK                         _______ _______ _______ _____ _____    ______ ____
ROOT
ATOM      1  O   LIG    1       -3.031  -0.351  -1.909  0.00  0.00    -0.274 OA
ATOM      2  C   LIG    1       -2.009   0.016  -1.325  0.00  0.00    +0.231 C 
ATOM      3  C   LIG    1       -0.630  -0.731  -1.307  0.00  0.00    +0.101 C 
ATOM      4  C   LIG    1        0.017  -0.069  -0.055  0.00  0.00    +0.031 C 
ATOM      5  C   LIG    1       -0.517   1.351  -0.069  0.00  0.00    +0.113 C 
ATOM      6  N   LIG    1       -1.836   1.179  -0.651  0.00  0.00    -0.300 N 
ENDROOT
BRANCH   3   7
ATOM      7  C   LIG    1       -0.896  -2.267  -1.187  0.00  0.00    -0.028 A 
ATOM      8  C   LIG    1       -0.459  -3.021  -0.084  0.00  0.00    +0.005 A 
ATOM      9  C   LIG    1       -0.698  -4.391  -0.016  0.00  0.00    +0.000 A 
ATOM     10  C   LIG    1       -1.369  -5.030  -1.053  0.00  0.00    +0.000 A 
ATOM     11  C   LIG    1       -1.797  -4.310  -2.163  0.00  0.00    +0.000 A 
ATOM     12  C   LIG    1       -1.557  -2.941  -2.230  0.00  0.00    +0.005 A 
ENDBRANCH   3   7
BRANCH   3  13
ATOM     13  C   LIG    1        0.201  -0.439  -2.605  0.00  0.00    -0.028 A 
ATOM     14  C   LIG    1       -0.039   0.671  -3.441  0.00  0.00    +0.005 A 
ATOM     15  C   LIG    1        0.741   0.901  -4.570  0.00  0.00    +0.000 A 
ATOM     16  C   LIG    1        1.781   0.032  -4.881  0.00  0.00    +0.000 A 
ATOM     17  C   LIG    1        2.048  -1.064  -4.068  0.00  0.00    +0.000 A 
ATOM     18  C   LIG    1        1.266  -1.293  -2.940  0.00  0.00    +0.005 A 
ENDBRANCH   3  13
BRANCH   6  19
ATOM     19  C   LIG    1       -2.827   2.254  -0.655  0.00  0.00    +0.104 C 
ATOM     20  C   LIG    1       -3.949   2.043   0.373  0.00  0.00    +0.024 C 
ENDBRANCH   6  19
BRANCH   4  21
ATOM     21  C   LIG    1        1.559  -0.136   0.083  0.00  0.00    +0.022 C 
BRANCH  21  22
ATOM     22  C   LIG    1        2.071   0.299   1.475  0.00  0.00    +0.085 C 
BRANCH  22  23
ATOM     23  N   LIG    1        3.527   0.460   1.537  0.00  0.00    -0.298 NA
ATOM     24  C   LIG    1        3.995   1.655   0.816  0.00  0.00    +0.112 C 
ATOM     25  C   LIG    1        5.514   1.870   0.990  0.00  0.00    +0.175 C 
ATOM     26  O   LIG    1        5.852   1.903   2.372  0.00  0.00    -0.377 OA
ATOM     27  C   LIG    1        5.502   0.697   3.041  0.00  0.00    +0.175 C 
ATOM     28  C   LIG    1        3.981   0.459   2.935  0.00  0.00    +0.112 C 
ENDBRANCH  22  23
ENDBRANCH  21  22
ENDBRANCH   4  21
TORSDOF 6
