REMARK  Name = DB00806
REMARK                            x       y       z     vdW  Elec       q    Type
REMARK                         _______ _______ _______ _____ _____    ______ ____
ROOT
ATOM      1  O   LIG    1       -0.366   1.319   2.309  0.00  0.00    -0.265 OA
ATOM      2  C   LIG    1       -0.646   1.809   1.212  0.00  0.00    +0.282 A 
ATOM      3  C   LIG    1       -0.941   3.204   0.966  0.00  0.00    +0.151 A 
ATOM      4  C   LIG    1       -1.256   3.725  -0.277  0.00  0.00    +0.168 A 
ATOM      5  N   LIG    1       -1.482   5.029  -0.236  0.00  0.00    -0.218 NA
ATOM      6  C   LIG    1       -1.316   5.347   1.027  0.00  0.00    +0.202 A 
ATOM      7  N   LIG    1       -1.298   2.874  -1.374  0.00  0.00    -0.280 N 
ATOM      8  C   LIG    1       -1.628   3.413  -2.703  0.00  0.00    +0.155 C 
ATOM      9  C   LIG    1       -1.051   1.525  -1.259  0.00  0.00    +0.333 A 
ATOM     10  O   LIG    1       -1.127   0.770  -2.236  0.00  0.00    -0.246 OA
ATOM     11  N   LIG    1       -0.985   4.278   1.826  0.00  0.00    -0.328 N 
ATOM     12  C   LIG    1       -0.736   4.298   3.259  0.00  0.00    +0.150 C 
ATOM     13  N   LIG    1       -0.713   1.094   0.023  0.00  0.00    -0.259 N 
ENDROOT
BRANCH  13  14
ATOM     14  C   LIG    1       -0.412  -0.360   0.161  0.00  0.00    +0.130 C 
BRANCH  14  15
ATOM     15  C   LIG    1        1.095  -0.709   0.175  0.00  0.00    +0.022 C 
BRANCH  15  16
ATOM     16  C   LIG    1        1.852  -0.339  -1.114  0.00  0.00    +0.009 C 
BRANCH  16  17
ATOM     17  C   LIG    1        3.329  -0.784  -1.080  0.00  0.00    +0.074 C 
BRANCH  17  18
ATOM     18  C   LIG    1        4.132  -0.430  -2.339  0.00  0.00    +0.130 C 
ATOM     19  C   LIG    1        5.598  -0.846  -2.352  0.00  0.00    +0.086 C 
ATOM     20  O   LIG    1        3.636   0.161  -3.298  0.00  0.00    -0.298 OA
ENDBRANCH  17  18
ENDBRANCH  16  17
ENDBRANCH  15  16
ENDBRANCH  14  15
ENDBRANCH  13  14
TORSDOF 5
