REMARK  Name = DB00544
REMARK                            x       y       z     vdW  Elec       q    Type
REMARK                         _______ _______ _______ _____ _____    ______ ____
ROOT
ATOM      1  F   LIG    1        3.530  -7.701  -2.116  0.00  0.00    -0.198 F 
ATOM      2  C   LIG    1        3.514  -7.330  -0.817  0.00  0.00    +0.203 A 
ATOM      3  C   LIG    1        4.623  -7.366  -0.050  0.00  0.00    +0.131 A 
ATOM      4  N   LIG    1        4.639  -6.997   1.265  0.00  0.00    -0.312 N 
ATOM      5  H   LIG    1        5.487  -7.037   1.812  0.00  0.00    +0.170 HD
ATOM      6  C   LIG    1        3.512  -6.559   1.901  0.00  0.00    +0.327 A 
ATOM      7  N   LIG    1        2.397  -6.532   1.099  0.00  0.00    -0.273 N 
ATOM      8  H   LIG    1        1.552  -6.211   1.548  0.00  0.00    +0.174 HD
ATOM      9  O   LIG    1        3.497  -6.222   3.082  0.00  0.00    -0.247 OA
ATOM     10  C   LIG    1        2.264  -6.874  -0.220  0.00  0.00    +0.289 A 
ATOM     11  O   LIG    1        1.192  -6.798  -0.818  0.00  0.00    -0.265 OA
ENDROOT
TORSDOF 0
