REMARK  Name = DB00598
REMARK                            x       y       z     vdW  Elec       q    Type
REMARK                         _______ _______ _______ _____ _____    ______ ____
ROOT
ATOM      1  C   LIG    1        2.456  -1.228   0.281  0.00  0.00    +0.158 C 
ENDROOT
BRANCH   1   2
ATOM      2  C   LIG    1        3.926  -1.324  -0.125  0.00  0.00    -0.017 A 
ATOM      3  C   LIG    1        4.915  -1.415   0.856  0.00  0.00    +0.010 A 
ATOM      4  C   LIG    1        6.257  -1.499   0.496  0.00  0.00    +0.046 A 
ATOM      5  C   LIG    1        6.634  -1.490  -0.848  0.00  0.00    +0.129 A 
ATOM      6  C   LIG    1        5.653  -1.393  -1.859  0.00  0.00    +0.078 A 
ATOM      7  C   LIG    1        4.304  -1.310  -1.473  0.00  0.00    +0.023 A 
BRANCH   6   8
ATOM      8  C   LIG    1        6.019  -1.390  -3.329  0.00  0.00    +0.245 C 
ATOM      9  N   LIG    1        5.253  -0.647  -4.136  0.00  0.00    -0.325 N 
ATOM     10  H   LIG    1        5.456  -0.602  -5.124  0.00  0.00    +0.145 HD
ATOM     11  H   LIG    1        4.475  -0.125  -3.762  0.00  0.00    +0.145 HD
ATOM     12  O   LIG    1        6.980  -2.025  -3.762  0.00  0.00    -0.270 OA
ENDBRANCH   6   8
BRANCH   5  13
ATOM     13  O   LIG    1        7.977  -1.559  -1.126  0.00  0.00    -0.506 OA
ATOM     14  H   LIG    1        8.520  -1.621  -0.337  0.00  0.00    +0.292 HD
ENDBRANCH   5  13
ENDBRANCH   1   2
BRANCH   1  15
ATOM     15  O   LIG    1        1.633  -2.091  -0.487  0.00  0.00    -0.386 OA
ATOM     16  H   LIG    1        1.874  -2.998  -0.286  0.00  0.00    +0.210 HD
ENDBRANCH   1  15
BRANCH   1  17
ATOM     17  C   LIG    1        1.941   0.224   0.162  0.00  0.00    +0.117 C 
BRANCH  17  18
ATOM     18  N   LIG    1        0.628   0.367   0.787  0.00  0.00    -0.311 NA
ATOM     19  H   LIG    1       -0.025  -0.257   0.335  0.00  0.00    +0.122 HD
BRANCH  18  20
ATOM     20  C   LIG    1        0.101   1.732   0.769  0.00  0.00    +0.051 C 
ATOM     21  C   LIG    1       -0.260   2.171  -0.666  0.00  0.00    +0.024 C 
BRANCH  20  22
ATOM     22  C   LIG    1       -1.136   1.803   1.695  0.00  0.00    +0.023 C 
BRANCH  22  23
ATOM     23  C   LIG    1       -0.835   1.528   3.184  0.00  0.00    +0.036 C 
BRANCH  23  24
ATOM     24  C   LIG    1       -2.073   1.643   4.062  0.00  0.00    -0.047 A 
ATOM     25  C   LIG    1       -2.432   2.880   4.604  0.00  0.00    +0.003 A 
ATOM     26  C   LIG    1       -3.568   2.986   5.402  0.00  0.00    +0.000 A 
ATOM     27  C   LIG    1       -4.341   1.854   5.656  0.00  0.00    +0.000 A 
ATOM     28  C   LIG    1       -3.989   0.618   5.118  0.00  0.00    +0.000 A 
ATOM     29  C   LIG    1       -2.853   0.512   4.319  0.00  0.00    +0.003 A 
ENDBRANCH  23  24
ENDBRANCH  22  23
ENDBRANCH  20  22
ENDBRANCH  18  20
ENDBRANCH  17  18
ENDBRANCH   1  17
TORSDOF 10
