REMARK  Name = DB00566
REMARK                            x       y       z     vdW  Elec       q    Type
REMARK                         _______ _______ _______ _____ _____    ______ ____
ROOT
ATOM      1  C   LIG    1        0.006  -0.144  -0.086  0.00  0.00    +0.175 C 
ENDROOT
BRANCH   1   2
ATOM      2  S   LIG    1       -0.934   1.416  -0.241  0.00  0.00    -0.162 S 
ATOM      3  H   LIG    1       -0.694   1.850   1.000  0.00  0.00    +0.102 HD
ENDBRANCH   1   2
BRANCH   1   4
ATOM      4  C   LIG    1       -0.198  -0.881  -1.402  0.00  0.00    +0.319 C 
ATOM      5  O   LIG    1        0.422  -0.660  -2.442  0.00  0.00    -0.250 OA
BRANCH   4   6
ATOM      6  O   LIG    1       -1.182  -1.820  -1.288  0.00  0.00    -0.480 OA
ATOM      7  H   LIG    1       -1.335  -2.290  -2.111  0.00  0.00    +0.295 HD
ENDBRANCH   4   6
ENDBRANCH   1   4
BRANCH   1   8
ATOM      8  C   LIG    1        1.517   0.075   0.159  0.00  0.00    +0.175 C 
BRANCH   8   9
ATOM      9  S   LIG    1        2.475  -1.478   0.299  0.00  0.00    -0.162 S 
ATOM     10  H   LIG    1        2.310  -1.859  -0.972  0.00  0.00    +0.102 HD
ENDBRANCH   8   9
BRANCH   8  11
ATOM     11  C   LIG    1        1.741   0.856   1.448  0.00  0.00    +0.319 C 
ATOM     12  O   LIG    1        2.363   1.914   1.502  0.00  0.00    -0.250 OA
BRANCH  11  13
ATOM     13  O   LIG    1        1.175   0.251   2.536  0.00  0.00    -0.480 OA
ATOM     14  H   LIG    1        1.327   0.743   3.346  0.00  0.00    +0.295 HD
ENDBRANCH  11  13
ENDBRANCH   8  11
ENDBRANCH   1   8
TORSDOF 7
