REMARK  Name = DB00267
REMARK                            x       y       z     vdW  Elec       q    Type
REMARK                         _______ _______ _______ _____ _____    ______ ____
ROOT
ATOM      1  S   LIG    1        0.709   0.515   2.825  0.00  0.00    -0.131 S 
ATOM      2  C   LIG    1       -0.660   1.075   3.896  0.00  0.00    +0.104 C 
ATOM      3  C   LIG    1       -1.630   2.044   3.193  0.00  0.00    -0.021 C 
ATOM      4  CA  LIG    1       -1.816   2.011   1.838  0.00  0.00    +0.123 C 
ATOM      5  N   LIG    1       -1.194   1.103   1.018  0.00  0.00    -0.249 N 
ATOM      6  C   LIG    1       -0.653   1.120  -0.275  0.00  0.00    +0.244 C 
ATOM      7  O   LIG    1       -0.722   1.911  -1.215  0.00  0.00    -0.273 OA
ATOM      8  CA  LIG    1        0.135  -0.188   0.007  0.00  0.00    +0.191 C 
ATOM      9  C   LIG    1       -0.374  -0.043   1.469  0.00  0.00    +0.169 C 
ENDROOT
BRANCH   8  10
ATOM     10  N   LIG    1        1.571  -0.038  -0.231  0.00  0.00    -0.296 N 
ATOM     11  H   LIG    1        1.877   0.849  -0.605  0.00  0.00    +0.150 HD
ATOM     12  C   LIG    1        2.486  -1.000  -0.009  0.00  0.00    +0.268 C 
ATOM     13  O   LIG    1        2.215  -2.123   0.420  0.00  0.00    -0.268 OA
BRANCH  12  14
ATOM     14  C   LIG    1        3.861  -0.596  -0.353  0.00  0.00    +0.190 C 
ATOM     15  N   LIG    1        4.485  -1.143  -1.339  0.00  0.00    -0.078 NA
BRANCH  14  16
ATOM     16  C   LIG    1        4.541   0.453   0.449  0.00  0.00    +0.107 A 
ATOM     17  C   LIG    1        5.782   1.014   0.117  0.00  0.00    +0.078 A 
ATOM     18  S   LIG    1        6.238   2.186   1.318  0.00  0.00    -0.060 S 
ATOM     19  C   LIG    1        4.763   1.822   2.147  0.00  0.00    +0.156 A 
ATOM     20  N   LIG    1        4.013   0.916   1.576  0.00  0.00    -0.223 NA
BRANCH  19  21
ATOM     21  N   LIG    1        4.454   2.462   3.311  0.00  0.00    -0.338 N 
ATOM     22  H   LIG    1        5.068   3.153   3.716  0.00  0.00    +0.144 HD
ATOM     23  H   LIG    1        3.598   2.264   3.809  0.00  0.00    +0.144 HD
ENDBRANCH  19  21
ENDBRANCH  14  16
BRANCH  15  24
ATOM     24  O   LIG    1        3.754  -2.110  -2.070  0.00  0.00    -0.396 OA
ATOM     25  C   LIG    1        4.577  -2.618  -3.106  0.00  0.00    +0.313 C 
ENDBRANCH  15  24
ENDBRANCH  12  14
ENDBRANCH   8  10
BRANCH   4  26
ATOM     26  C   LIG    1       -2.714   2.946   1.179  0.00  0.00    +0.351 C 
ATOM     27  O   LIG    1       -2.554   4.165   1.163  0.00  0.00    -0.244 OA
BRANCH  26  28
ATOM     28  OXT LIG    1       -3.762   2.313   0.573  0.00  0.00    -0.476 OA
ATOM     29  HXT LIG    1       -4.357   2.928   0.137  0.00  0.00    +0.295 HD
ENDBRANCH  26  28
ENDBRANCH   4  26
BRANCH   3  30
ATOM     30  C   LIG    1       -2.315   3.019   4.161  0.00  0.00    +0.111 C 
BRANCH  30  31
ATOM     31  S   LIG    1       -3.446   2.212   5.337  0.00  0.00    -0.080 S 
BRANCH  31  32
ATOM     32  C   LIG    1       -3.853   3.581   6.382  0.00  0.00    +0.209 A 
ATOM     33  N   LIG    1       -3.450   4.821   6.224  0.00  0.00    -0.102 NA
ATOM     34  N   LIG    1       -4.035   5.553   7.253  0.00  0.00    -0.022 NA
ATOM     35  N   LIG    1       -4.808   4.724   8.040  0.00  0.00    -0.043 NA
ATOM     36  N   LIG    1       -4.660   3.512   7.496  0.00  0.00    -0.223 N 
ATOM     37  C   LIG    1       -5.386   2.377   8.044  0.00  0.00    +0.177 C 
ENDBRANCH  31  32
ENDBRANCH  30  31
ENDBRANCH   3  30
TORSDOF 10
