REMARK  Name = DB00895
REMARK                            x       y       z     vdW  Elec       q    Type
REMARK                         _______ _______ _______ _____ _____    ______ ____
ROOT
ATOM      1  C   LIG    1        1.942   0.230  -0.064  0.00  0.00    +0.186 C 
ENDROOT
BRANCH   1   2
ATOM      2  C   LIG    1        2.506  -0.458   1.218  0.00  0.00    +0.143 C 
ATOM      3  N   LIG    1        1.782  -0.058   2.420  0.00  0.00    -0.290 NA
ATOM      4  H   LIG    1        0.782  -0.015   2.278  0.00  0.00    +0.124 HD
ATOM      5  CA  LIG    1        2.391   1.127   3.013  0.00  0.00    +0.180 C 
ATOM      6  C   LIG    1        3.935   0.932   3.045  0.00  0.00    +0.038 C 
ATOM      7  C   LIG    1        4.733   2.251   3.063  0.00  0.00    +0.024 C 
ATOM      8  C   LIG    1        4.419  -0.026   4.164  0.00  0.00    +0.024 C 
ATOM      9  S   LIG    1        4.226   0.076   1.472  0.00  0.00    -0.131 S 
BRANCH   5  10
ATOM     10  C   LIG    1        1.785   1.549   4.370  0.00  0.00    +0.323 C 
ATOM     11  OXT LIG    1        1.700   2.725   4.715  0.00  0.00    -0.249 OA
BRANCH  10  12
ATOM     12  O   LIG    1        1.384   0.492   5.140  0.00  0.00    -0.479 OA
ATOM     13  H   LIG    1        1.019   0.770   5.982  0.00  0.00    +0.295 HD
ENDBRANCH  10  12
ENDBRANCH   5  10
ENDBRANCH   1   2
BRANCH   1  16
ATOM     14  NZ  LIG    1       -0.390   0.947  -0.286  0.00  0.00    -0.314 N 
ATOM     15  HZ  LIG    1       -0.021   1.873  -0.120  0.00  0.00    +0.149 HD
ATOM     16  C   LIG    1        0.452  -0.098  -0.296  0.00  0.00    +0.236 C 
ATOM     17  O   LIG    1        0.110  -1.266  -0.483  0.00  0.00    -0.274 OA
BRANCH  14  18
ATOM     18  CE  LIG    1       -1.817   0.854  -0.585  0.00  0.00    +0.104 C 
BRANCH  18  19
ATOM     19  CD  LIG    1       -2.133   0.607  -2.077  0.00  0.00    +0.019 C 
BRANCH  19  20
ATOM     20  CG  LIG    1       -1.566   1.680  -3.029  0.00  0.00    +0.004 C 
BRANCH  20  21
ATOM     21  CB  LIG    1       -1.913   1.421  -4.508  0.00  0.00    +0.030 C 
BRANCH  21  22
ATOM     22  CA  LIG    1       -1.366   2.513  -5.460  0.00  0.00    +0.161 C 
BRANCH  22  23
ATOM     23  N   LIG    1        0.104   2.547  -5.536  0.00  0.00    -0.318 NA
ATOM     24  H1  LIG    1        0.520   2.529  -4.615  0.00  0.00    +0.119 HD
ATOM     25  H2  LIG    1        0.427   3.389  -5.991  0.00  0.00    +0.119 HD
ENDBRANCH  22  23
BRANCH  22  26
ATOM     26  C   LIG    1       -1.887   2.353  -6.901  0.00  0.00    +0.322 C 
ATOM     27  O   LIG    1       -2.417   3.285  -7.505  0.00  0.00    -0.249 OA
BRANCH  26  28
ATOM     28  OXT LIG    1       -1.686   1.099  -7.406  0.00  0.00    -0.480 OA
ATOM     29  HXT LIG    1       -2.006   1.013  -8.306  0.00  0.00    +0.295 HD
ENDBRANCH  26  28
ENDBRANCH  22  26
ENDBRANCH  21  22
ENDBRANCH  20  21
ENDBRANCH  19  20
ENDBRANCH  18  19
ENDBRANCH  14  18
ENDBRANCH   1  16
BRANCH   1  30
ATOM     30  N   LIG    1        2.674  -0.179  -1.267  0.00  0.00    -0.302 N 
ATOM     31  H   LIG    1        3.111  -1.088  -1.220  0.00  0.00    +0.150 HD
ATOM     32  C   LIG    1        2.697   0.501  -2.427  0.00  0.00    +0.218 C 
ATOM     33  O   LIG    1        2.202   1.620  -2.568  0.00  0.00    -0.275 OA
BRANCH  32  34
ATOM     34  C   LIG    1        3.351  -0.205  -3.621  0.00  0.00    +0.130 C 
BRANCH  34  35
ATOM     35  C   LIG    1        2.324  -0.599  -4.681  0.00  0.00    -0.039 A 
ATOM     36  C   LIG    1        2.417  -0.068  -5.971  0.00  0.00    +0.004 A 
ATOM     37  C   LIG    1        1.485  -0.425  -6.942  0.00  0.00    +0.000 A 
ATOM     38  C   LIG    1        0.463  -1.316  -6.623  0.00  0.00    +0.000 A 
ATOM     39  C   LIG    1        0.363  -1.854  -5.342  0.00  0.00    +0.000 A 
ATOM     40  C   LIG    1        1.295  -1.499  -4.372  0.00  0.00    +0.004 A 
ENDBRANCH  34  35
ENDBRANCH  32  34
ENDBRANCH   1  30
TORSDOF 15
