REMARK  Name = DB00942
REMARK                            x       y       z     vdW  Elec       q    Type
REMARK                         _______ _______ _______ _____ _____    ______ ____
ROOT
ATOM      1  C   LIG    1       -0.044  -0.146  -0.054  0.00  0.00    +0.095 C 
ENDROOT
BRANCH   1   2
ATOM      2  C   LIG    1       -0.494   1.331  -0.186  0.00  0.00    -0.016 A 
ATOM      3  C   LIG    1       -1.400   1.742  -1.177  0.00  0.00    +0.006 A 
ATOM      4  C   LIG    1       -1.784   3.076  -1.275  0.00  0.00    +0.000 A 
ATOM      5  C   LIG    1       -1.267   4.012  -0.384  0.00  0.00    +0.000 A 
ATOM      6  C   LIG    1       -0.370   3.624   0.606  0.00  0.00    +0.000 A 
ATOM      7  C   LIG    1        0.014   2.289   0.704  0.00  0.00    +0.006 A 
ENDBRANCH   1   2
BRANCH   1   8
ATOM      8  C   LIG    1       -0.549  -0.741   1.308  0.00  0.00    +0.025 C 
ATOM      9  C   LIG    1       -2.072  -0.603   1.556  0.00  0.00    +0.007 C 
ATOM     10  C   LIG    1       -2.481  -1.840   2.355  0.00  0.00    +0.000 C 
ATOM     11  C   LIG    1       -1.580  -2.938   1.802  0.00  0.00    +0.000 C 
ATOM     12  C   LIG    1       -0.238  -2.243   1.555  0.00  0.00    +0.007 C 
ENDBRANCH   1   8
BRANCH   1  13
ATOM     13  O   LIG    1       -0.572  -0.971  -1.090  0.00  0.00    -0.384 OA
ATOM     14  H   LIG    1       -0.294  -1.875  -0.927  0.00  0.00    +0.211 HD
ENDBRANCH   1  13
BRANCH   1  15
ATOM     15  C   LIG    1        1.508  -0.239  -0.179  0.00  0.00    +0.055 C 
BRANCH  15  16
ATOM     16  C   LIG    1        2.100   0.277  -1.517  0.00  0.00    +0.087 C 
BRANCH  16  17
ATOM     17  N   LIG    1        3.555   0.458  -1.472  0.00  0.00    -0.302 NA
ATOM     18  C   LIG    1        3.943   1.648  -0.694  0.00  0.00    +0.084 C 
ATOM     19  C   LIG    1        5.475   1.822  -0.631  0.00  0.00    +0.015 C 
ATOM     20  C   LIG    1        6.111   1.847  -2.028  0.00  0.00    +0.002 C 
ATOM     21  C   LIG    1        5.644   0.631  -2.838  0.00  0.00    +0.015 C 
ATOM     22  C   LIG    1        4.107   0.490  -2.836  0.00  0.00    +0.084 C 
ENDBRANCH  16  17
ENDBRANCH  15  16
ENDBRANCH   1  15
TORSDOF 6
