REMARK  Name = DB00501
REMARK                            x       y       z     vdW  Elec       q    Type
REMARK                         _______ _______ _______ _____ _____    ______ ____
ROOT
ATOM      1  C   LIG    1        0.238  -0.306   0.622  0.00  0.00    +0.106 C 
ENDROOT
BRANCH   1   2
ATOM      2  S   LIG    1       -0.980   1.032   0.839  0.00  0.00    -0.151 S 
BRANCH   2   3
ATOM      3  C   LIG    1       -2.502   0.240   0.241  0.00  0.00    +0.126 C 
BRANCH   3   8
ATOM      4  N   LIG    1       -2.872   0.499  -3.405  0.00  0.00    -0.348 N 
ATOM      5  H   LIG    1       -3.095   0.898  -4.306  0.00  0.00    +0.166 HD
ATOM      6  C   LIG    1       -3.017   1.101  -2.184  0.00  0.00    +0.036 A 
ATOM      7  C   LIG    1       -3.558   2.503  -2.035  0.00  0.00    +0.065 C 
ATOM      8  C   LIG    1       -2.571   0.143  -1.270  0.00  0.00    +0.072 A 
ATOM      9  N   LIG    1       -2.178  -0.966  -1.886  0.00  0.00    -0.240 NA
ATOM     10  C   LIG    1       -2.362  -0.744  -3.163  0.00  0.00    +0.197 A 
ENDBRANCH   3   8
ENDBRANCH   2   3
ENDBRANCH   1   2
BRANCH   1  11
ATOM     11  C   LIG    1        1.633   0.118   0.122  0.00  0.00    +0.206 C 
BRANCH  11  12
ATOM     12  N   LIG    1        1.573   0.952  -1.080  0.00  0.00    -0.274 N 
ATOM     13  H   LIG    1        1.190   1.867  -0.887  0.00  0.00    +0.258 HD
BRANCH  12  14
ATOM     14  C   LIG    1        1.242   0.409  -2.370  0.00  0.00    +0.397 C 
ATOM     15  N   LIG    1        0.695   1.064  -3.326  0.00  0.00    +0.010 NA
BRANCH  14  16
ATOM     16  N   LIG    1        1.661  -0.947  -2.530  0.00  0.00    -0.278 N 
ATOM     17  H   LIG    1        2.316  -1.340  -1.868  0.00  0.00    +0.258 HD
ATOM     18  C   LIG    1        1.511  -1.658  -3.793  0.00  0.00    +0.239 C 
ENDBRANCH  14  16
BRANCH  15  19
ATOM     19  C   LIG    1        0.304   2.336  -3.244  0.00  0.00    +0.295 C 
ATOM     20  N   LIG    1       -0.084   3.425  -3.196  0.00  0.00    -0.151 NA
ENDBRANCH  15  19
ENDBRANCH  12  14
ENDBRANCH  11  12
ENDBRANCH   1  11
TORSDOF 8
