REMARK  Name = DB00273
REMARK                            x       y       z     vdW  Elec       q    Type
REMARK                         _______ _______ _______ _____ _____    ______ ____
ROOT
ATOM      1  C   LIG    1        0.130   0.254   0.004  0.00  0.00    +0.228 C 
ATOM      2  C   LIG    1       -0.536   1.633  -0.138  0.00  0.00    +0.214 C 
ATOM      3  C   LIG    1       -1.281   2.113   1.121  0.00  0.00    +0.187 C 
ATOM      4  C   LIG    1       -2.179   1.038   1.729  0.00  0.00    +0.179 C 
ATOM      5  C   LIG    1       -1.676  -0.402   1.474  0.00  0.00    +0.197 C 
ATOM      6  O   LIG    1       -2.066   1.336   3.108  0.00  0.00    -0.341 OA
ATOM      7  C   LIG    1       -0.882   2.020   3.374  0.00  0.00    +0.166 C 
ATOM      8  C   LIG    1       -1.224   3.264   4.182  0.00  0.00    +0.074 C 
ATOM      9  C   LIG    1        0.109   1.095   4.073  0.00  0.00    +0.074 C 
ATOM     10  O   LIG    1       -0.360   2.419   2.148  0.00  0.00    -0.341 OA
ATOM     11  O   LIG    1       -1.483   1.400  -1.161  0.00  0.00    -0.338 OA
ATOM     12  C   LIG    1       -1.000   0.381  -1.968  0.00  0.00    +0.169 C 
ATOM     13  C   LIG    1       -0.097   0.963  -3.061  0.00  0.00    +0.074 C 
ATOM     14  C   LIG    1       -2.173  -0.403  -2.537  0.00  0.00    +0.074 C 
ATOM     15  O   LIG    1       -0.258  -0.452  -1.133  0.00  0.00    -0.313 OA
ATOM     16  O   LIG    1       -0.289  -0.472   1.139  0.00  0.00    -0.342 OA
ENDROOT
BRANCH   1  17
ATOM     17  C   LIG    1        1.657   0.266   0.059  0.00  0.00    +0.262 C 
BRANCH  17  18
ATOM     18  O   LIG    1        2.045   0.943   1.242  0.00  0.00    -0.220 OA
BRANCH  18  19
ATOM     19  S   LIG    1        3.679   1.113   1.509  0.00  0.00    +0.149 S 
ATOM     20  O   LIG    1        4.220   2.001   0.474  0.00  0.00    -0.130 OA
ATOM     21  O   LIG    1        4.245  -0.220   1.746  0.00  0.00    -0.130 OA
BRANCH  19  22
ATOM     22  N   LIG    1        3.673   1.984   3.028  0.00  0.00    -0.183 NA
ATOM     23  H   LIG    1        3.329   1.447   3.829  0.00  0.00    +0.146 HD
ATOM     24  H   LIG    1        3.304   2.936   2.975  0.00  0.00    +0.146 HD
ENDBRANCH  19  22
ENDBRANCH  18  19
ENDBRANCH  17  18
ENDBRANCH   1  17
TORSDOF 4
