REMARK  Name = DB00732
REMARK                            x       y       z     vdW  Elec       q    Type
REMARK                         _______ _______ _______ _____ _____    ______ ____
ROOT
ATOM      1  C   LIG    1        1.890   0.067  -0.077  0.00  0.00    +0.007 C 
ENDROOT
BRANCH   1   2
ATOM      2  C   LIG    1        0.380   0.353  -0.185  0.00  0.00    +0.041 C 
BRANCH   2   3
ATOM      3  C   LIG    1        0.040   1.842  -0.020  0.00  0.00    +0.232 C 
BRANCH   3   4
ATOM      4  O   LIG    1       -1.369   2.006  -0.129  0.00  0.00    -0.465 OA
BRANCH   4   5
ATOM      5  C   LIG    1       -1.949   3.200   0.102  0.00  0.00    +0.305 C 
ATOM      6  O   LIG    1       -1.368   4.241   0.418  0.00  0.00    -0.251 OA
BRANCH   5   7
ATOM      7  C   LIG    1       -3.473   3.123  -0.051  0.00  0.00    +0.102 C 
BRANCH   7   8
ATOM      8  C   LIG    1       -4.229   4.319   0.588  0.00  0.00    -0.063 C 
BRANCH   8  15
ATOM      9  C   LIG    1       -5.725   6.402   5.100  0.00  0.00    +0.162 A 
ATOM     10  C   LIG    1       -5.440   5.183   5.722  0.00  0.00    +0.162 A 
ATOM     11  C   LIG    1       -5.426   4.011   4.950  0.00  0.00    +0.053 A 
ATOM     12  C   LIG    1       -5.690   4.024   3.578  0.00  0.00    -0.044 A 
ATOM     13  C   LIG    1       -5.590   2.722   2.785  0.00  0.00    +0.017 C 
ATOM     14  C   LIG    1       -6.187   2.800   1.365  0.00  0.00    -0.070 C 
ATOM     15  N   LIG    1       -5.787   4.127   0.660  0.00  0.00    +0.384 N 
ATOM     16  C   LIG    1       -6.331   4.090  -0.796  0.00  0.00    -0.091 C 
ATOM     17  C   LIG    1       -6.392   5.336   1.465  0.00  0.00    -0.030 C 
ATOM     18  C   LIG    1       -5.992   5.251   2.950  0.00  0.00    -0.053 A 
ATOM     19  C   LIG    1       -5.993   6.416   3.724  0.00  0.00    +0.051 A 
BRANCH   9  20
ATOM     20  O   LIG    1       -5.732   7.534   5.896  0.00  0.00    -0.491 OA
ATOM     21  C   LIG    1       -6.068   8.793   5.322  0.00  0.00    +0.277 C 
ENDBRANCH   9  20
BRANCH  10  22
ATOM     22  O   LIG    1       -5.183   5.212   7.082  0.00  0.00    -0.491 OA
ATOM     23  C   LIG    1       -4.898   3.998   7.769  0.00  0.00    +0.277 C 
ENDBRANCH  10  22
BRANCH  17  24
ATOM     24  C   LIG    1       -7.948   5.463   1.316  0.00  0.00    +0.025 C 
BRANCH  24  25
ATOM     25  C   LIG    1       -8.387   6.722   0.577  0.00  0.00    -0.045 A 
ATOM     26  C   LIG    1       -8.732   6.672  -0.774  0.00  0.00    +0.007 A 
ATOM     27  C   LIG    1       -9.127   7.829  -1.440  0.00  0.00    +0.049 A 
ATOM     28  C   LIG    1       -9.190   9.061  -0.765  0.00  0.00    +0.161 A 
ATOM     29  C   LIG    1       -8.850   9.117   0.595  0.00  0.00    +0.162 A 
ATOM     30  C   LIG    1       -8.454   7.941   1.255  0.00  0.00    +0.053 A 
BRANCH  29  31
ATOM     31  O   LIG    1       -8.929  10.352   1.215  0.00  0.00    -0.491 OA
ATOM     32  C   LIG    1       -8.583  10.471   2.591  0.00  0.00    +0.277 C 
ENDBRANCH  29  31
BRANCH  28  33
ATOM     33  O   LIG    1       -9.573  10.247  -1.367  0.00  0.00    -0.491 OA
ATOM     34  C   LIG    1       -9.925  10.252  -2.746  0.00  0.00    +0.277 C 
ENDBRANCH  28  33
ENDBRANCH  24  25
ENDBRANCH  17  24
ENDBRANCH   8  15
ENDBRANCH   7   8
ENDBRANCH   5   7
ENDBRANCH   4   5
ENDBRANCH   3   4
ENDBRANCH   2   3
ENDBRANCH   1   2
BRANCH   1  35
ATOM     35  C   LIG    1        2.239  -1.433  -0.080  0.00  0.00    +0.041 C 
BRANCH  35  36
ATOM     36  C   LIG    1        1.930  -2.146  -1.414  0.00  0.00    +0.232 C 
BRANCH  36  37
ATOM     37  O   LIG    1        2.230  -3.538  -1.344  0.00  0.00    -0.465 OA
BRANCH  37  38
ATOM     38  C   LIG    1        1.362  -4.416  -0.789  0.00  0.00    +0.305 C 
ATOM     39  O   LIG    1        0.255  -4.148  -0.319  0.00  0.00    -0.251 OA
BRANCH  38  40
ATOM     40  C   LIG    1        1.906  -5.844  -0.762  0.00  0.00    +0.102 C 
BRANCH  40  41
ATOM     41  C   LIG    1        2.339  -6.248   0.670  0.00  0.00    -0.063 C 
BRANCH  41  42
ATOM     42  N   LIG    1        3.013  -7.663   0.765  0.00  0.00    +0.384 N 
ATOM     43  C   LIG    1        1.927  -8.726   0.429  0.00  0.00    -0.091 C 
ATOM     44  C   LIG    1        4.191  -7.824  -0.237  0.00  0.00    -0.070 C 
ATOM     45  C   LIG    1        5.259  -6.730  -0.022  0.00  0.00    +0.017 C 
ATOM     46  C   LIG    1        5.572  -6.433   1.444  0.00  0.00    -0.044 A 
ATOM     47  C   LIG    1        6.683  -5.646   1.761  0.00  0.00    +0.053 A 
ATOM     48  C   LIG    1        6.989  -5.286   3.082  0.00  0.00    +0.162 A 
ATOM     49  C   LIG    1        6.154  -5.723   4.115  0.00  0.00    +0.162 A 
ATOM     50  C   LIG    1        5.041  -6.516   3.800  0.00  0.00    +0.051 A 
ATOM     51  C   LIG    1        4.738  -6.888   2.487  0.00  0.00    -0.053 A 
ATOM     52  C   LIG    1        3.562  -7.846   2.228  0.00  0.00    -0.030 C 
BRANCH  49  53
ATOM     53  O   LIG    1        6.489  -5.346   5.404  0.00  0.00    -0.491 OA
ATOM     54  C   LIG    1        5.685  -5.785   6.495  0.00  0.00    +0.277 C 
ENDBRANCH  49  53
BRANCH  48  55
ATOM     55  O   LIG    1        8.079  -4.511   3.436  0.00  0.00    -0.491 OA
ATOM     56  C   LIG    1        8.968  -4.045   2.426  0.00  0.00    +0.277 C 
ENDBRANCH  48  55
BRANCH  52  57
ATOM     57  C   LIG    1        3.982  -9.320   2.557  0.00  0.00    +0.025 C 
BRANCH  57  58
ATOM     58  C   LIG    1        3.262  -9.885   3.775  0.00  0.00    -0.045 A 
ATOM     59  C   LIG    1        3.803  -9.727   5.050  0.00  0.00    +0.007 A 
ATOM     60  C   LIG    1        3.135 -10.232   6.163  0.00  0.00    +0.049 A 
ATOM     61  C   LIG    1        1.911 -10.908   6.019  0.00  0.00    +0.161 A 
ATOM     62  C   LIG    1        1.365 -11.075   4.737  0.00  0.00    +0.162 A 
ATOM     63  C   LIG    1        2.050 -10.560   3.623  0.00  0.00    +0.053 A 
BRANCH  62  64
ATOM     64  O   LIG    1        0.159 -11.750   4.649  0.00  0.00    -0.491 OA
ATOM     65  C   LIG    1       -0.439 -11.955   3.373  0.00  0.00    +0.277 C 
ENDBRANCH  62  64
BRANCH  61  66
ATOM     66  O   LIG    1        1.195 -11.432   7.082  0.00  0.00    -0.491 OA
ATOM     67  C   LIG    1        1.698 -11.286   8.406  0.00  0.00    +0.277 C 
ENDBRANCH  61  66
ENDBRANCH  57  58
ENDBRANCH  52  57
ENDBRANCH  41  42
ENDBRANCH  40  41
ENDBRANCH  38  40
ENDBRANCH  37  38
ENDBRANCH  36  37
ENDBRANCH  35  36
ENDBRANCH   1  35
TORSDOF 26
