REMARK  Name = DB00685
REMARK                            x       y       z     vdW  Elec       q    Type
REMARK                         _______ _______ _______ _____ _____    ______ ____
ROOT
ATOM      1  C   LIG    1       -2.151  -1.129   0.174  0.00  0.00    +0.151 A 
ATOM      2  N   LIG    1       -0.843  -1.031   0.538  0.00  0.00    -0.211 NA
ATOM      3  C   LIG    1       -0.267   0.197   0.617  0.00  0.00    +0.159 A 
ATOM      4  C   LIG    1       -0.981   1.365   0.336  0.00  0.00    +0.164 A 
ATOM      5  F   LIG    1       -0.396   2.583   0.417  0.00  0.00    -0.202 F 
ATOM      6  C   LIG    1       -2.322   1.260  -0.037  0.00  0.00    +0.057 A 
ATOM      7  C   LIG    1       -2.942   0.003  -0.128  0.00  0.00    +0.068 A 
ATOM      8  C   LIG    1       -4.391  -0.108  -0.536  0.00  0.00    +0.205 A 
ATOM      9  C   LIG    1       -4.899  -1.507  -0.586  0.00  0.00    +0.122 A 
ATOM     10  C   LIG    1       -4.072  -2.539  -0.276  0.00  0.00    +0.112 A 
ATOM     11  O   LIG    1       -5.054   0.898  -0.803  0.00  0.00    -0.286 OA
ATOM     12  N   LIG    1       -2.742  -2.415   0.092  0.00  0.00    -0.297 N 
ENDROOT
BRANCH  12  13
ATOM     13  C   LIG    1       -2.018  -3.590   0.376  0.00  0.00    +0.083 A 
ATOM     14  C   LIG    1       -1.289  -4.218  -0.642  0.00  0.00    +0.032 A 
ATOM     15  C   LIG    1       -0.546  -5.366  -0.368  0.00  0.00    +0.040 A 
ATOM     16  C   LIG    1       -0.525  -5.894   0.922  0.00  0.00    +0.126 A 
ATOM     17  F   LIG    1        0.198  -7.005   1.187  0.00  0.00    -0.205 F 
ATOM     18  C   LIG    1       -1.249  -5.274   1.941  0.00  0.00    +0.078 A 
ATOM     19  C   LIG    1       -1.994  -4.124   1.672  0.00  0.00    +0.150 A 
ATOM     20  F   LIG    1       -2.685  -3.531   2.674  0.00  0.00    -0.203 F 
ENDBRANCH  12  13
BRANCH   3  21
ATOM     21  N   LIG    1        1.082   0.245   0.988  0.00  0.00    -0.312 N 
ATOM     22  C   LIG    1        2.075  -0.374   0.111  0.00  0.00    +0.112 C 
ATOM     23  C   LIG    1        2.633  -1.649   0.749  0.00  0.00    +0.029 C 
ATOM     24  C   LIG    1        3.685  -1.483   1.811  0.00  0.00    +0.061 C 
ATOM     25  C   LIG    1        2.236  -1.553   2.210  0.00  0.00    +0.029 C 
ATOM     26  C   LIG    1        1.469  -0.231   2.314  0.00  0.00    +0.112 C 
BRANCH  24  27
ATOM     27  N   LIG    1        4.541  -2.612   2.115  0.00  0.00    -0.327 NA
ATOM     28  H   LIG    1        4.099  -3.466   1.807  0.00  0.00    +0.118 HD
ATOM     29  H   LIG    1        4.657  -2.691   3.115  0.00  0.00    +0.118 HD
ENDBRANCH  24  27
ENDBRANCH   3  21
BRANCH   9  30
ATOM     30  C   LIG    1       -6.282  -1.788  -0.938  0.00  0.00    +0.342 C 
ATOM     31  O   LIG    1       -7.239  -1.099  -0.586  0.00  0.00    -0.245 OA
BRANCH  30  32
ATOM     32  O   LIG    1       -6.418  -2.886  -1.740  0.00  0.00    -0.477 OA
ATOM     33  H   LIG    1       -7.334  -3.047  -1.980  0.00  0.00    +0.295 HD
ENDBRANCH  30  32
ENDBRANCH   9  30
TORSDOF 5
