REMARK  Name = DB00146
REMARK                            x       y       z     vdW  Elec       q    Type
REMARK                         _______ _______ _______ _____ _____    ______ ____
ROOT
ATOM      1  C   LIG    1       -2.976   1.410   1.408  0.00  0.00    +0.008 C 
ATOM      2  C   LIG    1       -4.463   1.812   1.284  0.00  0.00    +0.005 C 
ATOM      3  C   LIG    1       -4.670   3.087   0.428  0.00  0.00    +0.031 C 
ATOM      4  C   LIG    1       -3.924   2.992  -0.913  0.00  0.00    -0.066 C 
ATOM      5  C   LIG    1       -4.467   3.192  -2.136  0.00  0.00    -0.000 C 
ATOM      6  C   LIG    1       -2.447   2.630  -0.688  0.00  0.00    +0.021 C 
ATOM      7  C   LIG    1       -1.455   2.580  -1.853  0.00  0.00    +0.009 C 
ATOM      8  C   LIG    1       -0.273   1.786  -1.284  0.00  0.00    +0.005 C 
ATOM      9  C   LIG    1       -0.740   1.124   0.046  0.00  0.00    -0.002 C 
ATOM     10  C   LIG    1       -2.304   1.252   0.013  0.00  0.00    -0.022 C 
ATOM     11  C   LIG    1       -2.953   0.093  -0.809  0.00  0.00    +0.012 C 
ENDROOT
BRANCH   5  12
ATOM     12  C   LIG    1       -5.858   3.525  -2.424  0.00  0.00    +0.004 C 
ATOM     13  C   LIG    1       -6.383   3.783  -3.646  0.00  0.00    -0.042 C 
ATOM     14  C   LIG    1       -7.875   4.065  -3.811  0.00  0.00    +0.066 C 
ATOM     15  C   LIG    1       -8.460   3.150  -4.915  0.00  0.00    +0.119 C 
ATOM     16  C   LIG    1       -7.652   3.226  -6.234  0.00  0.00    +0.036 C 
ATOM     17  C   LIG    1       -6.146   2.949  -6.027  0.00  0.00    +0.037 C 
ATOM     18  C   LIG    1       -5.615   3.818  -4.892  0.00  0.00    -0.051 C 
ATOM     19  C   LIG    1       -4.519   4.587  -5.043  0.00  0.00    +0.012 C 
BRANCH  15  20
ATOM     20  O   LIG    1       -9.822   3.448  -5.144  0.00  0.00    -0.391 OA
ATOM     21  H   LIG    1      -10.341   2.662  -4.961  0.00  0.00    +0.210 HD
ENDBRANCH  15  20
ENDBRANCH   5  12
BRANCH   9  22
ATOM     22  C   LIG    1       -0.103  -0.290   0.287  0.00  0.00    -0.010 C 
ATOM     23  C   LIG    1       -0.604  -0.969   1.582  0.00  0.00    +0.008 C 
BRANCH  22  24
ATOM     24  C   LIG    1        1.452  -0.227   0.278  0.00  0.00    +0.003 C 
BRANCH  24  25
ATOM     25  C   LIG    1        2.161  -1.593   0.150  0.00  0.00    +0.003 C 
BRANCH  25  26
ATOM     26  C   LIG    1        3.691  -1.457  -0.036  0.00  0.00    +0.034 C 
BRANCH  26  27
ATOM     27  C   LIG    1        4.494  -2.780  -0.168  0.00  0.00    +0.061 C 
ATOM     28  C   LIG    1        6.010  -2.505  -0.220  0.00  0.00    +0.041 C 
ATOM     29  C   LIG    1        4.039  -3.636  -1.371  0.00  0.00    +0.041 C 
BRANCH  27  30
ATOM     30  O   LIG    1        4.255  -3.570   0.983  0.00  0.00    -0.389 OA
ATOM     31  H   LIG    1        3.317  -3.770   1.024  0.00  0.00    +0.210 HD
ENDBRANCH  27  30
ENDBRANCH  26  27
ENDBRANCH  25  26
ENDBRANCH  24  25
ENDBRANCH  22  24
ENDBRANCH   9  22
TORSDOF 8
