REMARK  Name = DB00817
REMARK                            x       y       z     vdW  Elec       q    Type
REMARK                         _______ _______ _______ _____ _____    ______ ____
ROOT
ATOM      1  O   LIG    1       -4.108   0.030  -0.105  0.00  0.00    -0.286 OA
ATOM      2  C   LIG    1       -2.877  -0.023  -0.041  0.00  0.00    +0.203 A 
ATOM      3  C   LIG    1       -2.075  -1.282   0.018  0.00  0.00    +0.122 A 
ATOM      4  C   LIG    1       -0.718  -1.190   0.088  0.00  0.00    +0.105 A 
ATOM      5  N   LIG    1        0.022  -0.018   0.107  0.00  0.00    -0.346 N 
ATOM      6  C   LIG    1       -0.643   1.234   0.048  0.00  0.00    +0.053 A 
ATOM      7  C   LIG    1        0.061   2.449   0.053  0.00  0.00    +0.035 A 
ATOM      8  C   LIG    1       -0.598   3.682  -0.011  0.00  0.00    -0.016 A 
ATOM      9  C   LIG    1       -1.993   3.681  -0.076  0.00  0.00    +0.009 A 
ATOM     10  C   LIG    1       -2.708   2.487  -0.080  0.00  0.00    +0.014 A 
ATOM     11  C   LIG    1       -2.055   1.246  -0.021  0.00  0.00    +0.046 A 
ENDROOT
BRANCH   8  12
ATOM     12  C   LIG    1        0.169   4.960  -0.013  0.00  0.00    -0.015 A 
ATOM     13  C   LIG    1        1.362   5.089  -0.740  0.00  0.00    +0.028 A 
ATOM     14  C   LIG    1        2.053   6.302  -0.715  0.00  0.00    +0.111 A 
ATOM     15  N   LIG    1        1.623   7.380  -0.013  0.00  0.00    -0.263 NA
ATOM     16  C   LIG    1        0.468   7.254   0.688  0.00  0.00    +0.111 A 
ATOM     17  C   LIG    1       -0.279   6.075   0.714  0.00  0.00    +0.028 A 
ENDBRANCH   8  12
BRANCH   3  18
ATOM     18  C   LIG    1       -2.728  -2.596   0.005  0.00  0.00    +0.342 C 
ATOM     19  O   LIG    1       -3.946  -2.768  -0.043  0.00  0.00    -0.245 OA
BRANCH  18  20
ATOM     20  O   LIG    1       -1.867  -3.659   0.052  0.00  0.00    -0.477 OA
ATOM     21  H   LIG    1       -2.331  -4.499   0.041  0.00  0.00    +0.295 HD
ENDBRANCH  18  20
ENDBRANCH   3  18
BRANCH   5  22
ATOM     22  C   LIG    1        1.484  -0.142   0.032  0.00  0.00    +0.118 C 
ATOM     23  C   LIG    1        2.035   0.027  -1.392  0.00  0.00    +0.027 C 
ENDBRANCH   5  22
TORSDOF 4
