REMARK  Name = DB00928
REMARK                            x       y       z     vdW  Elec       q    Type
REMARK                         _______ _______ _______ _____ _____    ______ ____
ROOT
ATOM      1  O4* LIG    1        2.241  -0.946  -0.386  0.00  0.00    -0.346 OA
ATOM      2  C1* LIG    1        1.635   0.180   0.180  0.00  0.00    +0.256 C 
ATOM      3  C2* LIG    1        2.202   0.242   1.596  0.00  0.00    +0.195 C 
ATOM      4  C3* LIG    1        3.657  -0.116   1.288  0.00  0.00    +0.178 C 
ATOM      5  C4* LIG    1        3.537  -1.172   0.173  0.00  0.00    +0.177 C 
ENDROOT
BRANCH   2   6
ATOM      6  N   LIG    1        0.176   0.139   0.043  0.00  0.00    -0.253 N 
ATOM      7  C   LIG    1       -0.527  -1.044   0.241  0.00  0.00    +0.209 A 
ATOM      8  N   LIG    1       -1.817  -1.103   0.189  0.00  0.00    -0.205 NA
ATOM      9  C   LIG    1       -2.480   0.095  -0.083  0.00  0.00    +0.218 A 
ATOM     10  N   LIG    1       -1.927   1.244  -0.264  0.00  0.00    -0.159 NA
ATOM     11  C   LIG    1       -0.517   1.339  -0.164  0.00  0.00    +0.355 A 
ATOM     12  O   LIG    1        0.104   2.402  -0.240  0.00  0.00    -0.244 OA
BRANCH   9  13
ATOM     13  N   LIG    1       -3.848   0.044  -0.165  0.00  0.00    -0.327 N 
ATOM     14  H   LIG    1       -4.378   0.880  -0.359  0.00  0.00    +0.145 HD
ATOM     15  H   LIG    1       -4.335  -0.830  -0.034  0.00  0.00    +0.145 HD
ENDBRANCH   9  13
ENDBRANCH   2   6
BRANCH   4  16
ATOM     16  O3* LIG    1        4.444   0.995   0.888  0.00  0.00    -0.386 OA
ATOM     17  H3* LIG    1        4.291   1.712   1.509  0.00  0.00    +0.210 HD
ENDBRANCH   4  16
BRANCH   3  18
ATOM     18  O2* LIG    1        1.952   1.494   2.210  0.00  0.00    -0.385 OA
ATOM     19  H2* LIG    1        1.014   1.558   2.408  0.00  0.00    +0.210 HD
ENDBRANCH   3  18
BRANCH   5  20
ATOM     20  C5* LIG    1        3.592  -2.627   0.684  0.00  0.00    +0.190 C 
BRANCH  20  21
ATOM     21  O5* LIG    1        3.493  -3.544  -0.387  0.00  0.00    -0.392 OA
ATOM     22  H5* LIG    1        3.533  -4.435  -0.033  0.00  0.00    +0.210 HD
ENDBRANCH  20  21
ENDBRANCH   5  20
TORSDOF 6
