REMARK  Name = DB00562
REMARK                            x       y       z     vdW  Elec       q    Type
REMARK                         _______ _______ _______ _____ _____    ______ ____
ROOT
ATOM      1  C   LIG    1       -2.041   1.242   0.050  0.00  0.00    +0.206 A 
ATOM      2  C   LIG    1       -2.637   2.326  -0.599  0.00  0.00    +0.079 A 
ATOM      3  C   LIG    1       -4.023   2.491  -0.596  0.00  0.00    +0.071 A 
ATOM      4  C   LIG    1       -4.840   1.551   0.056  0.00  0.00    +0.125 A 
ATOM      5  C   LIG    1       -4.250   0.450   0.685  0.00  0.00    +0.065 A 
ATOM      6 CL   LIG    1       -4.677   3.873  -1.407  0.00  0.00    -0.081 Cl
ATOM      7  N   LIG    1       -0.636   1.190  -0.017  0.00  0.00    -0.042 NA
ATOM      8  C   LIG    1        0.058   0.404   0.709  0.00  0.00    +0.320 C 
ATOM      9  N   LIG    1       -0.487  -0.591   1.597  0.00  0.00    -0.093 N 
ATOM     10  H   LIG    1       -0.071  -0.703   2.525  0.00  0.00    +0.325 HD
ATOM     11  S   LIG    1       -2.139  -1.168   1.418  0.00  0.00    +0.136 S 
ATOM     12  O   LIG    1       -2.164  -2.244   0.422  0.00  0.00    -0.130 OA
ATOM     13  O   LIG    1       -2.741  -1.404   2.735  0.00  0.00    -0.130 OA
ATOM     14  C   LIG    1       -2.865   0.286   0.668  0.00  0.00    +0.181 A 
ENDROOT
BRANCH   4  15
ATOM     15  S   LIG    1       -6.630   1.719   0.099  0.00  0.00    +0.057 S 
ATOM     16  O   LIG    1       -6.923   3.054   0.632  0.00  0.00    -0.153 OA
ATOM     17  O   LIG    1       -7.181   0.521   0.742  0.00  0.00    -0.153 OA
BRANCH  15  18
ATOM     18  N   LIG    1       -7.134   1.686  -1.581  0.00  0.00    -0.203 NA
ATOM     19  H   LIG    1       -6.820   2.488  -2.134  0.00  0.00    +0.144 HD
ATOM     20  H   LIG    1       -6.989   0.788  -2.050  0.00  0.00    +0.144 HD
ENDBRANCH  15  18
ENDBRANCH   4  15
BRANCH   8  21
ATOM     21  C   LIG    1        1.569   0.547   0.669  0.00  0.00    +0.199 C 
BRANCH  21  22
ATOM     22  S   LIG    1        2.157   1.366   2.182  0.00  0.00    -0.144 S 
BRANCH  22  23
ATOM     23  C   LIG    1        3.958   1.290   1.946  0.00  0.00    +0.104 C 
BRANCH  23  24
ATOM     24  C   LIG    1        4.491  -0.127   2.104  0.00  0.00    -0.038 A 
ATOM     25  C   LIG    1        4.641  -0.675   3.381  0.00  0.00    +0.004 A 
ATOM     26  C   LIG    1        5.124  -1.972   3.529  0.00  0.00    +0.000 A 
ATOM     27  C   LIG    1        5.460  -2.716   2.399  0.00  0.00    +0.000 A 
ATOM     28  C   LIG    1        5.319  -2.174   1.124  0.00  0.00    +0.000 A 
ATOM     29  C   LIG    1        4.835  -0.877   0.976  0.00  0.00    +0.004 A 
ENDBRANCH  23  24
ENDBRANCH  22  23
ENDBRANCH  21  22
ENDBRANCH   8  21
TORSDOF 6
