REMARK  Name = DB00249
REMARK                            x       y       z     vdW  Elec       q    Type
REMARK                         _______ _______ _______ _____ _____    ______ ____
ROOT
ATOM      1  C1* LIG    1       -1.998   0.934  -0.495  0.00  0.00    +0.226 C 
ATOM      2  C2* LIG    1       -1.508   0.210  -1.741  0.00  0.00    +0.088 C 
ATOM      3  C3* LIG    1       -0.600  -0.829  -1.097  0.00  0.00    +0.150 C 
ATOM      4  C4* LIG    1        0.012  -0.089   0.107  0.00  0.00    +0.175 C 
ATOM      5  O4* LIG    1       -0.891   0.989   0.353  0.00  0.00    -0.348 OA
ENDROOT
BRANCH   1   6
ATOM      6  N   LIG    1       -2.564   2.264  -0.677  0.00  0.00    -0.273 N 
ATOM      7  C   LIG    1       -1.766   3.268  -1.175  0.00  0.00    +0.113 A 
ATOM      8  C   LIG    1       -2.193   4.528  -1.392  0.00  0.00    +0.094 A 
ATOM      9  I   LIG    1       -0.882   6.043  -2.166  0.00  0.00    -0.037 I 
ATOM     10  C   LIG    1       -3.576   4.861  -1.086  0.00  0.00    +0.267 A 
ATOM     11  O   LIG    1       -4.079   5.972  -1.244  0.00  0.00    -0.267 OA
ATOM     12  N   LIG    1       -4.284   3.801  -0.595  0.00  0.00    -0.274 N 
ATOM     13  H   LIG    1       -5.248   3.999  -0.372  0.00  0.00    +0.173 HD
ATOM     14  C   LIG    1       -3.888   2.507  -0.360  0.00  0.00    +0.331 A 
ATOM     15  O   LIG    1       -4.698   1.693   0.086  0.00  0.00    -0.246 OA
ENDBRANCH   1   6
BRANCH   3  16
ATOM     16  O3* LIG    1       -1.312  -1.992  -0.711  0.00  0.00    -0.389 OA
ATOM     17  H3* LIG    1       -1.801  -2.318  -1.469  0.00  0.00    +0.210 HD
ENDBRANCH   3  16
BRANCH   4  18
ATOM     18  C5* LIG    1        1.408   0.507  -0.170  0.00  0.00    +0.190 C 
BRANCH  18  19
ATOM     19  O5* LIG    1        1.917   1.157   0.977  0.00  0.00    -0.392 OA
ATOM     20  H5* LIG    1        2.784   1.514   0.768  0.00  0.00    +0.210 HD
ENDBRANCH  18  19
ENDBRANCH   4  18
TORSDOF 4
