REMARK  Name = DB00765
REMARK                            x       y       z     vdW  Elec       q    Type
REMARK                         _______ _______ _______ _____ _____    ______ ____
ROOT
ATOM      1  C   LIG    1       -0.134   0.039  -0.064  0.00  0.00    +0.116 C 
ATOM      2  C   LIG    1       -0.575   1.522  -0.056  0.00  0.00    +0.040 C 
ENDROOT
BRANCH   1   3
ATOM      3  N   LIG    1       -0.708  -0.553   1.142  0.00  0.00    -0.316 NA
ATOM      4  H   LIG    1       -0.939   0.171   1.806  0.00  0.00    +0.119 HD
ATOM      5  H   LIG    1       -0.031  -1.159   1.582  0.00  0.00    +0.119 HD
ENDBRANCH   1   3
BRANCH   1   6
ATOM      6  C   LIG    1       -0.738  -0.681  -1.306  0.00  0.00    +0.325 C 
ATOM      7  O   LIG    1       -1.566  -1.593  -1.260  0.00  0.00    -0.249 OA
BRANCH   6   8
ATOM      8  O   LIG    1       -0.234  -0.178  -2.472  0.00  0.00    -0.479 OA
ATOM      9  H   LIG    1       -0.602  -0.617  -3.243  0.00  0.00    +0.295 HD
ENDBRANCH   6   8
ENDBRANCH   1   6
BRANCH   1  10
ATOM     10  C   LIG    1        1.422  -0.069   0.015  0.00  0.00    +0.068 C 
BRANCH  10  11
ATOM     11  C   LIG    1        2.005  -1.484   0.024  0.00  0.00    -0.045 A 
ATOM     12  C   LIG    1        2.407  -2.083  -1.173  0.00  0.00    +0.007 A 
ATOM     13  C   LIG    1        2.939  -3.370  -1.165  0.00  0.00    +0.045 A 
ATOM     14  C   LIG    1        3.072  -4.055   0.042  0.00  0.00    +0.117 A 
ATOM     15  C   LIG    1        2.679  -3.461   1.240  0.00  0.00    +0.045 A 
ATOM     16  C   LIG    1        2.147  -2.174   1.232  0.00  0.00    +0.007 A 
BRANCH  14  17
ATOM     17  O   LIG    1        3.594  -5.321   0.049  0.00  0.00    -0.507 OA
ATOM     18  H   LIG    1        3.636  -5.703   0.929  0.00  0.00    +0.292 HD
ENDBRANCH  14  17
ENDBRANCH  10  11
ENDBRANCH   1  10
TORSDOF 6
