REMARK  Name = DB00865
REMARK                            x       y       z     vdW  Elec       q    Type
REMARK                         _______ _______ _______ _____ _____    ______ ____
ROOT
ATOM      1  C   LIG    1        0.036  -0.020  -0.061  0.00  0.00    +0.058 C 
ATOM      2  C   LIG    1       -0.306  -0.674  -1.423  0.00  0.00    +0.024 C 
ENDROOT
BRANCH   1   3
ATOM      3  N   LIG    1        1.480   0.268   0.140  0.00  0.00    -0.298 NA
ATOM      4  C   LIG    1        1.664   1.226   1.236  0.00  0.00    +0.105 C 
BRANCH   3   5
ATOM      5  C   LIG    1        2.213   0.770  -1.035  0.00  0.00    +0.119 C 
BRANCH   5   6
ATOM      6  C   LIG    1        2.699  -0.317  -1.997  0.00  0.00    -0.033 A 
ATOM      7  C   LIG    1        3.113  -1.571  -1.529  0.00  0.00    +0.005 A 
ATOM      8  C   LIG    1        3.614  -2.518  -2.417  0.00  0.00    +0.000 A 
ATOM      9  C   LIG    1        3.730  -2.203  -3.769  0.00  0.00    +0.000 A 
ATOM     10  C   LIG    1        3.358  -0.945  -4.238  0.00  0.00    +0.000 A 
ATOM     11  C   LIG    1        2.855   0.002  -3.349  0.00  0.00    +0.005 A 
ENDBRANCH   5   6
ENDBRANCH   3   5
ENDBRANCH   1   3
BRANCH   1  12
ATOM     12  C   LIG    1       -0.525  -0.901   1.097  0.00  0.00    +0.053 C 
BRANCH  12  13
ATOM     13  C   LIG    1        0.143  -2.267   1.259  0.00  0.00    -0.046 A 
ATOM     14  C   LIG    1        1.287  -2.398   2.052  0.00  0.00    +0.004 A 
ATOM     15  C   LIG    1        1.902  -3.639   2.189  0.00  0.00    +0.000 A 
ATOM     16  C   LIG    1        1.369  -4.748   1.536  0.00  0.00    +0.000 A 
ATOM     17  C   LIG    1        0.225  -4.628   0.750  0.00  0.00    +0.000 A 
ATOM     18  C   LIG    1       -0.390  -3.386   0.613  0.00  0.00    +0.004 A 
ENDBRANCH  12  13
ENDBRANCH   1  12
TORSDOF 5
