REMARK  Name = DB00906
REMARK                            x       y       z     vdW  Elec       q    Type
REMARK                         _______ _______ _______ _____ _____    ______ ____
ROOT
ATOM      1  C   LIG    1        2.225  -1.119  -0.383  0.00  0.00    -0.001 C 
ATOM      2  C   LIG    1        1.543  -0.136   0.248  0.00  0.00    -0.016 C 
ENDROOT
BRANCH   1   8
ATOM      3  S   LIG    1        0.660  -3.432  -0.164  0.00  0.00    -0.096 S 
ATOM      4  C   LIG    1        0.337  -4.312  -1.612  0.00  0.00    +0.046 A 
ATOM      5  C   LIG    1        0.927  -3.721  -2.717  0.00  0.00    +0.011 A 
ATOM      6  C   LIG    1        1.672  -2.568  -2.423  0.00  0.00    -0.036 A 
ATOM      7  C   LIG    1        2.366  -1.727  -3.475  0.00  0.00    +0.045 C 
ATOM      8  C   LIG    1        1.596  -2.259  -1.055  0.00  0.00    +0.023 A 
ENDBRANCH   1   8
BRANCH   1   9
ATOM      9  C   LIG    1        3.690  -1.093  -0.464  0.00  0.00    +0.023 A 
ATOM     10  C   LIG    1        4.591  -2.128  -0.150  0.00  0.00    -0.036 A 
ATOM     11  C   LIG    1        4.226  -3.479   0.428  0.00  0.00    +0.045 C 
ATOM     12  C   LIG    1        5.918  -1.716  -0.353  0.00  0.00    +0.011 A 
ATOM     13  C   LIG    1        6.046  -0.427  -0.838  0.00  0.00    +0.046 A 
ATOM     14  S   LIG    1        4.513   0.338  -1.032  0.00  0.00    -0.096 S 
ENDBRANCH   1   9
BRANCH   2  15
ATOM     15  C   LIG    1        0.035   0.024   0.374  0.00  0.00    +0.043 C 
BRANCH  15  16
ATOM     16  C   LIG    1       -0.484   1.280  -0.353  0.00  0.00    +0.088 C 
BRANCH  16  17
ATOM     17  N   LIG    1       -1.947   1.391  -0.322  0.00  0.00    -0.301 NA
ATOM     18  C   LIG    1       -2.461   1.695   1.030  0.00  0.00    +0.084 C 
ATOM     19  C   LIG    1       -4.000   1.885   1.075  0.00  0.00    +0.016 C 
ATOM     20  C   LIG    1       -4.524   2.869   0.011  0.00  0.00    +0.017 C 
ATOM     21  C   LIG    1       -3.943   2.409  -1.339  0.00  0.00    +0.112 C 
ATOM     22  C   LIG    1       -2.398   2.399  -1.292  0.00  0.00    +0.099 C 
BRANCH  21  23
ATOM     23  C   LIG    1       -4.456   3.209  -2.552  0.00  0.00    +0.309 C 
ATOM     24  O   LIG    1       -5.090   4.258  -2.458  0.00  0.00    -0.251 OA
BRANCH  23  25
ATOM     25  O   LIG    1       -4.133   2.608  -3.735  0.00  0.00    -0.480 OA
ATOM     26  H   LIG    1       -4.456   3.100  -4.492  0.00  0.00    +0.295 HD
ENDBRANCH  23  25
ENDBRANCH  21  23
ENDBRANCH  16  17
ENDBRANCH  15  16
ENDBRANCH   2  15
TORSDOF 7
