REMARK  Name = DB00536
REMARK                            x       y       z     vdW  Elec       q    Type
REMARK                         _______ _______ _______ _____ _____    ______ ____
ROOT
ATOM      1  C   LIG    1        1.486  -0.044   0.000  0.00  0.00    +0.374 C 
ATOM      2  N   LIG    1        2.114  -1.135   0.000  0.00  0.00    -0.130 NA
ATOM      3  H   LIG    1        3.116  -1.011   0.000  0.00  0.00    +0.306 HD
ENDROOT
BRANCH   1   4
ATOM      4  N   LIG    1        0.079   0.041   0.000  0.00  0.00    -0.289 N 
ATOM      5  H   LIG    1       -0.411   0.924   0.000  0.00  0.00    +0.255 HD
ATOM      6  H   LIG    1       -0.509  -0.779   0.000  0.00  0.00    +0.255 HD
ENDBRANCH   1   4
BRANCH   1   7
ATOM      7  N   LIG    1        2.117   1.217   0.000  0.00  0.00    -0.289 N 
ATOM      8  H   LIG    1        1.596   2.082   0.000  0.00  0.00    +0.255 HD
ATOM      9  H   LIG    1        3.121   1.318   0.000  0.00  0.00    +0.255 HD
ENDBRANCH   1   7
TORSDOF 2
