REMARK  Name = DB00823
REMARK                            x       y       z     vdW  Elec       q    Type
REMARK                         _______ _______ _______ _____ _____    ______ ____
ROOT
ATOM      1  C   LIG    1        1.438   0.185  -0.086  0.00  0.00    +0.178 C 
ATOM      2  C   LIG    1        1.981   0.440   1.359  0.00  0.00    +0.062 C 
ATOM      3  C   LIG    1        3.203  -0.483   1.565  0.00  0.00    +0.009 C 
ATOM      4  C   LIG    1        3.344  -1.254   0.244  0.00  0.00    +0.003 C 
ATOM      5  C   LIG    1        4.057  -2.636   0.223  0.00  0.00    -0.003 C 
ATOM      6  C   LIG    1        5.463  -2.574   0.847  0.00  0.00    +0.008 C 
ATOM      7  C   LIG    1        6.100  -3.970   0.885  0.00  0.00    +0.031 C 
ATOM      8  C   LIG    1        6.203  -4.526  -0.534  0.00  0.00    -0.067 C 
ATOM      9  C   LIG    1        7.367  -4.998  -1.032  0.00  0.00    +0.016 C 
ATOM     10  C   LIG    1        7.547  -5.633  -2.409  0.00  0.00    +0.199 C 
ATOM     11  C   LIG    1        6.179  -6.064  -2.972  0.00  0.00    +0.049 C 
ATOM     12  C   LIG    1        5.136  -4.948  -2.827  0.00  0.00    +0.012 C 
ATOM     13  C   LIG    1        4.886  -4.520  -1.351  0.00  0.00    +0.018 C 
ATOM     14  C   LIG    1        4.173  -3.129  -1.254  0.00  0.00    -0.000 C 
ATOM     15  C   LIG    1        2.776  -3.130  -1.950  0.00  0.00    +0.005 C 
ATOM     16  C   LIG    1        2.062  -1.760  -1.839  0.00  0.00    +0.012 C 
ATOM     17  C   LIG    1        1.909  -1.303  -0.353  0.00  0.00    +0.022 C 
ATOM     18  C   LIG    1        0.976  -2.312   0.407  0.00  0.00    +0.016 C 
ENDROOT
BRANCH   1  19
ATOM     19  C   LIG    1        1.991   1.189  -1.050  0.00  0.00    -0.058 C 
ATOM     20  C   LIG    1        2.451   2.011  -1.828  0.00  0.00    +0.008 C 
ENDBRANCH   1  19
BRANCH   1  21
ATOM     21  O   LIG    1       -0.010   0.219  -0.131  0.00  0.00    -0.445 OA
BRANCH  21  22
ATOM     22  C   LIG    1       -0.796   1.277   0.236  0.00  0.00    +0.305 C 
ATOM     23  C   LIG    1       -2.279   0.981   0.048  0.00  0.00    +0.136 C 
ATOM     24  O   LIG    1       -0.409   2.358   0.680  0.00  0.00    -0.251 OA
ENDBRANCH  21  22
ENDBRANCH   1  21
BRANCH  10  25
ATOM     25  O   LIG    1        8.409  -6.770  -2.338  0.00  0.00    -0.457 OA
BRANCH  25  26
ATOM     26  C   LIG    1        9.756  -6.646  -2.305  0.00  0.00    +0.305 C 
ATOM     27  C   LIG    1       10.457  -7.996  -2.224  0.00  0.00    +0.136 C 
ATOM     28  O   LIG    1       10.394  -5.593  -2.334  0.00  0.00    -0.251 OA
ENDBRANCH  25  26
ENDBRANCH  10  25
TORSDOF 5
