REMARK  Name = DB00890
REMARK                            x       y       z     vdW  Elec       q    Type
REMARK                         _______ _______ _______ _____ _____    ______ ____
ROOT
ATOM      1  C   LIG    1       -2.017   1.220   0.956  0.00  0.00    +0.036 C 
ATOM      2  C   LIG    1       -0.548   0.942   0.678  0.00  0.00    -0.021 C 
ATOM      3  C   LIG    1        0.024  -0.171   0.144  0.00  0.00    -0.015 C 
ENDROOT
BRANCH   3   4
ATOM      4  C   LIG    1       -0.768  -1.402  -0.171  0.00  0.00    -0.017 A 
ATOM      5  C   LIG    1       -0.498  -2.123  -1.343  0.00  0.00    +0.012 A 
ATOM      6  C   LIG    1       -1.202  -3.285  -1.644  0.00  0.00    +0.046 A 
ATOM      7  C   LIG    1       -2.183  -3.744  -0.768  0.00  0.00    +0.117 A 
ATOM      8  C   LIG    1       -2.459  -3.048   0.406  0.00  0.00    +0.046 A 
ATOM      9  C   LIG    1       -1.752  -1.887   0.704  0.00  0.00    +0.012 A 
BRANCH   7  10
ATOM     10  O   LIG    1       -2.876  -4.888  -1.061  0.00  0.00    -0.507 OA
ATOM     11  H   LIG    1       -2.603  -5.286  -1.890  0.00  0.00    +0.292 HD
ENDBRANCH   7  10
ENDBRANCH   3   4
BRANCH   3  12
ATOM     12  C   LIG    1        1.476  -0.171  -0.144  0.00  0.00    -0.015 C 
ATOM     13  C   LIG    1        2.048   0.941  -0.678  0.00  0.00    -0.021 C 
ATOM     14  C   LIG    1        3.517   1.220  -0.956  0.00  0.00    +0.036 C 
BRANCH  12  15
ATOM     15  C   LIG    1        2.268  -1.402   0.171  0.00  0.00    -0.017 A 
ATOM     16  C   LIG    1        1.998  -2.123   1.343  0.00  0.00    +0.012 A 
ATOM     17  C   LIG    1        2.702  -3.285   1.644  0.00  0.00    +0.046 A 
ATOM     18  C   LIG    1        3.683  -3.744   0.768  0.00  0.00    +0.117 A 
ATOM     19  C   LIG    1        3.959  -3.048  -0.406  0.00  0.00    +0.046 A 
ATOM     20  C   LIG    1        3.252  -1.887  -0.703  0.00  0.00    +0.012 A 
BRANCH  18  21
ATOM     21  O   LIG    1        4.376  -4.888   1.061  0.00  0.00    -0.507 OA
ATOM     22  H   LIG    1        4.103  -5.286   1.890  0.00  0.00    +0.292 HD
ENDBRANCH  18  21
ENDBRANCH  12  15
ENDBRANCH   3  12
TORSDOF 5
