REMARK  Name = DB00984
REMARK                            x       y       z     vdW  Elec       q    Type
REMARK                         _______ _______ _______ _____ _____    ______ ____
ROOT
ATOM      1  C   LIG    1       -1.993  -1.219  -0.221  0.00  0.00    +0.183 C 
ATOM      2  C   LIG    1       -2.629  -0.545  -1.463  0.00  0.00    +0.045 C 
ATOM      3  C   LIG    1       -3.805  -1.452  -1.881  0.00  0.00    +0.008 C 
ATOM      4  C   LIG    1       -3.878  -2.504  -0.765  0.00  0.00    +0.002 C 
ATOM      5  C   LIG    1       -4.607  -3.855  -1.003  0.00  0.00    -0.003 C 
ATOM      6  C   LIG    1       -6.043  -3.662  -1.520  0.00  0.00    +0.008 C 
ATOM      7  C   LIG    1       -6.692  -5.019  -1.820  0.00  0.00    +0.031 C 
ATOM      8  C   LIG    1       -6.730  -5.869  -0.550  0.00  0.00    -0.063 C 
ATOM      9  C   LIG    1       -7.871  -6.465  -0.134  0.00  0.00    +0.045 C 
ATOM     10  C   LIG    1       -7.971  -7.340   1.023  0.00  0.00    +0.156 C 
ATOM     11  C   LIG    1       -6.638  -7.840   1.589  0.00  0.00    +0.079 C 
ATOM     12  C   LIG    1       -5.572  -6.729   1.567  0.00  0.00    +0.016 C 
ATOM     13  O   LIG    1       -9.055  -7.743   1.438  0.00  0.00    -0.293 OA
ATOM     14  C   LIG    1       -5.374  -6.026   0.190  0.00  0.00    +0.019 C 
ATOM     15  C   LIG    1       -4.645  -4.649   0.341  0.00  0.00    -0.000 C 
ATOM     16  C   LIG    1       -3.208  -4.802   0.933  0.00  0.00    +0.005 C 
ATOM     17  C   LIG    1       -2.466  -3.446   1.058  0.00  0.00    +0.011 C 
ATOM     18  C   LIG    1       -2.415  -2.706  -0.303  0.00  0.00    +0.008 C 
ATOM     19  C   LIG    1       -1.523  -3.475  -1.331  0.00  0.00    +0.015 C 
ENDROOT
BRANCH   1  20
ATOM     20  O   LIG    1       -0.575  -1.052  -0.157  0.00  0.00    -0.461 OA
BRANCH  20  21
ATOM     21  C   LIG    1       -0.015   0.109   0.254  0.00  0.00    +0.308 C 
ATOM     22  O   LIG    1       -0.619   1.112   0.638  0.00  0.00    -0.251 OA
BRANCH  21  23
ATOM     23  C   LIG    1        1.513   0.067   0.216  0.00  0.00    +0.125 C 
BRANCH  23  24
ATOM     24  C   LIG    1        2.136   0.058   1.624  0.00  0.00    +0.046 C 
BRANCH  24  25
ATOM     25  C   LIG    1        3.656   0.020   1.572  0.00  0.00    -0.047 A 
ATOM     26  C   LIG    1        4.383   1.214   1.552  0.00  0.00    +0.003 A 
ATOM     27  C   LIG    1        5.774   1.179   1.496  0.00  0.00    +0.000 A 
ATOM     28  C   LIG    1        6.433  -0.049   1.459  0.00  0.00    +0.000 A 
ATOM     29  C   LIG    1        5.713  -1.242   1.478  0.00  0.00    +0.000 A 
ATOM     30  C   LIG    1        4.322  -1.208   1.535  0.00  0.00    +0.003 A 
ENDBRANCH  24  25
ENDBRANCH  23  24
ENDBRANCH  21  23
ENDBRANCH  20  21
ENDBRANCH   1  20
TORSDOF 5
