REMARK  Name = DB00352
REMARK                            x       y       z     vdW  Elec       q    Type
REMARK                         _______ _______ _______ _____ _____    ______ ____
ROOT
ATOM      1  S   LIG    1        4.309   2.550   0.000  0.00  0.00    -0.028 S 
ATOM      2  C   LIG    1        3.519   1.088   0.000  0.00  0.00    +0.138 A 
ATOM      3  C   LIG    1        4.169  -0.211   0.000  0.00  0.00    +0.116 A 
ATOM      4  C   LIG    1        3.430  -1.392   0.000  0.00  0.00    +0.161 A 
ATOM      5  N   LIG    1        4.196  -2.471   0.000  0.00  0.00    -0.218 NA
ATOM      6  C   LIG    1        5.425  -1.994   0.000  0.00  0.00    +0.199 A 
ATOM      7  N   LIG    1        2.044  -1.344   0.000  0.00  0.00    -0.311 N 
ATOM      8  H   LIG    1        1.424  -2.141   0.000  0.00  0.00    +0.170 HD
ATOM      9  C   LIG    1        1.423  -0.045   0.000  0.00  0.00    +0.193 A 
ATOM     10  N   LIG    1        5.476  -0.620   0.000  0.00  0.00    -0.341 N 
ATOM     11  H   LIG    1        6.300  -0.036   0.000  0.00  0.00    +0.167 HD
ATOM     12  N   LIG    1        2.120   1.047   0.000  0.00  0.00    -0.207 NA
ENDROOT
BRANCH   9  13
ATOM     13  N   LIG    1        0.014   0.046   0.000  0.00  0.00    -0.329 N 
ATOM     14  H   LIG    1       -0.582  -0.768  -0.000  0.00  0.00    +0.145 HD
ATOM     15  H   LIG    1       -0.467   0.934   0.000  0.00  0.00    +0.145 HD
ENDBRANCH   9  13
TORSDOF 1
