REMARK  Name = DB00610
REMARK                            x       y       z     vdW  Elec       q    Type
REMARK                         _______ _______ _______ _____ _____    ______ ____
ROOT
ATOM      1  C   LIG    1       -0.025  -0.090  -0.013  0.00  0.00    +0.161 C 
ENDROOT
BRANCH   1   2
ATOM      2  C   LIG    1       -0.529  -0.786   1.254  0.00  0.00    -0.014 A 
ATOM      3  C   LIG    1       -0.526  -0.117   2.486  0.00  0.00    +0.006 A 
ATOM      4  C   LIG    1       -0.979  -0.758   3.639  0.00  0.00    +0.004 A 
ATOM      5  C   LIG    1       -1.437  -2.074   3.572  0.00  0.00    +0.045 A 
ATOM      6  C   LIG    1       -1.442  -2.749   2.351  0.00  0.00    +0.117 A 
ATOM      7  C   LIG    1       -0.988  -2.108   1.197  0.00  0.00    +0.051 A 
BRANCH   6   8
ATOM      8  O   LIG    1       -1.891  -4.041   2.284  0.00  0.00    -0.507 OA
ATOM      9  H   LIG    1       -2.180  -4.379   3.135  0.00  0.00    +0.292 HD
ENDBRANCH   6   8
ENDBRANCH   1   2
BRANCH   1  10
ATOM     10  O   LIG    1       -0.673   1.155  -0.207  0.00  0.00    -0.386 OA
ATOM     11  H   LIG    1       -1.609   0.991  -0.342  0.00  0.00    +0.210 HD
ENDBRANCH   1  10
BRANCH   1  12
ATOM     12  C   LIG    1        1.518   0.123  -0.022  0.00  0.00    +0.081 C 
ATOM     13  C   LIG    1        2.049   0.793  -1.306  0.00  0.00    +0.026 C 
BRANCH  12  14
ATOM     14  N   LIG    1        2.217  -1.145   0.129  0.00  0.00    -0.325 NA
ATOM     15  H   LIG    1        3.214  -0.986   0.100  0.00  0.00    +0.119 HD
ATOM     16  H   LIG    1        2.002  -1.745  -0.654  0.00  0.00    +0.119 HD
ENDBRANCH  12  14
ENDBRANCH   1  12
TORSDOF 5
