REMARK  Name = DB00244
REMARK                            x       y       z     vdW  Elec       q    Type
REMARK                         _______ _______ _______ _____ _____    ______ ____
ROOT
ATOM      1  C   LIG    1        1.378   0.003   0.000  0.00  0.00    +0.131 A 
ATOM      2  C   LIG    1        2.082   1.210   0.000  0.00  0.00    +0.048 A 
ATOM      3  C   LIG    1        3.474   1.220   0.000  0.00  0.00    +0.026 A 
ATOM      4  C   LIG    1        4.176   0.018   0.000  0.00  0.00    +0.026 A 
ATOM      5  C   LIG    1        3.481  -1.192   0.000  0.00  0.00    +0.041 A 
ATOM      6  C   LIG    1        2.074  -1.229   0.000  0.00  0.00    +0.102 A 
ENDROOT
BRANCH   4   7
ATOM      7  N   LIG    1        5.571   0.026   0.000  0.00  0.00    -0.358 N 
ATOM      8  H   LIG    1        6.073  -0.850   0.000  0.00  0.00    +0.142 HD
ATOM      9  H   LIG    1        6.063   0.908   0.000  0.00  0.00    +0.142 HD
ENDBRANCH   4   7
BRANCH   1  10
ATOM     10  O   LIG    1        0.008   0.087   0.000  0.00  0.00    -0.506 OA
ATOM     11  H   LIG    1       -0.312   0.992   0.000  0.00  0.00    +0.292 HD
ENDBRANCH   1  10
BRANCH   6  12
ATOM     12  C   LIG    1        1.355  -2.569   0.000  0.00  0.00    +0.340 C 
ATOM     13  O   LIG    1        0.129  -2.675   0.000  0.00  0.00    -0.245 OA
BRANCH  12  14
ATOM     14  O   LIG    1        2.173  -3.664  -0.000  0.00  0.00    -0.477 OA
ATOM     15  H   LIG    1        1.677  -4.485  -0.000  0.00  0.00    +0.295 HD
ENDBRANCH  12  14
ENDBRANCH   6  12
TORSDOF 4
