REMARK  Name = DB00777
REMARK                            x       y       z     vdW  Elec       q    Type
REMARK                         _______ _______ _______ _____ _____    ______ ____
ROOT
ATOM      1  S   LIG    1        4.018  -3.641  -0.021  0.00  0.00    -0.086 S 
ATOM      2  C   LIG    1        2.889  -3.158  -1.275  0.00  0.00    +0.034 A 
ATOM      3  C   LIG    1        2.802  -3.964  -2.413  0.00  0.00    +0.017 A 
ATOM      4  C   LIG    1        1.948  -3.626  -3.456  0.00  0.00    +0.001 A 
ATOM      5  C   LIG    1        1.180  -2.473  -3.365  0.00  0.00    +0.002 A 
ATOM      6  C   LIG    1        1.282  -1.656  -2.242  0.00  0.00    +0.024 A 
ATOM      7  C   LIG    1        2.169  -1.944  -1.185  0.00  0.00    +0.048 A 
ATOM      8  N   LIG    1        2.208  -1.171  -0.000  0.00  0.00    -0.297 N 
ATOM      9  C   LIG    1        2.478  -1.741   1.268  0.00  0.00    +0.049 A 
ATOM     10  C   LIG    1        1.885  -1.255   2.451  0.00  0.00    +0.036 A 
ATOM     11  C   LIG    1        2.063  -1.869   3.698  0.00  0.00    +0.019 A 
ATOM     12  C   LIG    1        2.836  -3.031   3.762  0.00  0.00    +0.012 A 
ATOM     13  C   LIG    1        3.411  -3.554   2.611  0.00  0.00    +0.017 A 
ATOM     14  C   LIG    1        3.212  -2.942   1.373  0.00  0.00    +0.034 A 
ENDROOT
BRANCH  11  15
ATOM     15  C   LIG    1        1.398  -1.295   4.913  0.00  0.00    +0.163 C 
ATOM     16  O   LIG    1        0.514  -0.439   4.861  0.00  0.00    -0.292 OA
BRANCH  15  17
ATOM     17  C   LIG    1        1.932  -1.698   6.295  0.00  0.00    +0.076 C 
ATOM     18  C   LIG    1        1.118  -2.835   6.933  0.00  0.00    +0.012 C 
ENDBRANCH  15  17
ENDBRANCH  11  15
BRANCH   8  19
ATOM     19  C   LIG    1        1.685   0.214  -0.036  0.00  0.00    +0.129 C 
BRANCH  19  20
ATOM     20  C   LIG    1        0.143   0.552   0.010  0.00  0.00    +0.071 C 
ATOM     21  C   LIG    1        0.055   2.051   0.405  0.00  0.00    +0.026 C 
BRANCH  20  22
ATOM     22  N   LIG    1       -0.695  -0.305   0.890  0.00  0.00    -0.304 NA
ATOM     23  C   LIG    1       -2.002   0.259   1.243  0.00  0.00    +0.104 C 
ATOM     24  C   LIG    1       -0.962  -1.624   0.312  0.00  0.00    +0.104 C 
ENDBRANCH  20  22
ENDBRANCH  19  20
ENDBRANCH   8  19
TORSDOF 5
