REMARK  Name = DB00862
REMARK                            x       y       z     vdW  Elec       q    Type
REMARK                         _______ _______ _______ _____ _____    ______ ____
ROOT
ATOM      1  C   LIG    1       -2.313   1.153   0.095  0.00  0.00    +0.106 A 
ATOM      2  C   LIG    1       -2.842  -0.057  -0.348  0.00  0.00    +0.032 A 
ATOM      3  C   LIG    1       -2.015  -1.166  -0.500  0.00  0.00    +0.048 A 
ATOM      4  C   LIG    1       -0.639  -1.089  -0.217  0.00  0.00    +0.128 A 
ATOM      5  C   LIG    1       -0.105   0.140   0.234  0.00  0.00    +0.043 A 
ATOM      6  C   LIG    1       -0.952   1.248   0.382  0.00  0.00    +0.039 A 
ENDROOT
BRANCH   5   7
ATOM      7  C   LIG    1        1.326   0.310   0.556  0.00  0.00    +0.186 C 
ATOM      8  N   LIG    1        1.968  -0.588   1.237  0.00  0.00    -0.281 N 
ATOM      9  H   LIG    1        1.441  -1.337   1.598  0.00  0.00    +0.152 HD
ATOM     10  C   LIG    1        3.354  -0.589   1.506  0.00  0.00    +0.266 C 
ATOM     11  C   LIG    1        4.086   0.493   0.843  0.00  0.00    +0.145 A 
ATOM     12  C   LIG    1        5.424   0.871   0.705  0.00  0.00    +0.070 A 
ATOM     13  C   LIG    1        6.677   0.207   1.234  0.00  0.00    +0.068 C 
ATOM     14  N   LIG    1        5.530   1.988  -0.004  0.00  0.00    -0.235 NA
ATOM     15  C   LIG    1        4.307   2.344  -0.326  0.00  0.00    +0.128 A 
ATOM     16  N   LIG    1        3.383   1.452   0.154  0.00  0.00    -0.243 N 
ATOM     17  O   LIG    1        3.928  -1.410   2.218  0.00  0.00    -0.268 OA
ATOM     18  N   LIG    1        1.996   1.469   0.036  0.00  0.00    -0.252 N 
ATOM     19  H   LIG    1        1.709   1.734  -0.895  0.00  0.00    +0.169 HD
BRANCH  15  20
ATOM     20  C   LIG    1        3.962   3.572  -1.153  0.00  0.00    +0.076 C 
BRANCH  20  21
ATOM     21  C   LIG    1        3.507   3.236  -2.588  0.00  0.00    +0.004 C 
ATOM     22  C   LIG    1        4.567   2.510  -3.430  0.00  0.00    +0.004 C 
ENDBRANCH  20  21
ENDBRANCH  15  20
ENDBRANCH   5   7
BRANCH   1  23
ATOM     23  S   LIG    1       -3.358   2.595   0.266  0.00  0.00    +0.061 S 
ATOM     24  O   LIG    1       -4.753   2.140   0.303  0.00  0.00    -0.153 OA
ATOM     25  O   LIG    1       -2.807   3.387   1.372  0.00  0.00    -0.153 OA
BRANCH  23  26
ATOM     26  N   LIG    1       -3.107   3.493  -1.239  0.00  0.00    -0.174 NA
ATOM     27  C   LIG    1       -3.812   2.966  -2.429  0.00  0.00    +0.125 C 
ATOM     28  C   LIG    1       -3.225   3.618  -3.703  0.00  0.00    +0.101 C 
ATOM     29  N   LIG    1       -3.362   5.087  -3.615  0.00  0.00    -0.300 NA
ATOM     30  C   LIG    1       -2.643   5.601  -2.433  0.00  0.00    +0.101 C 
ATOM     31  C   LIG    1       -3.226   4.966  -1.149  0.00  0.00    +0.125 C 
BRANCH  29  32
ATOM     32  C   LIG    1       -2.872   5.763  -4.820  0.00  0.00    +0.081 C 
ATOM     33  C   LIG    1       -3.760   5.508  -6.051  0.00  0.00    +0.020 C 
ENDBRANCH  29  32
ENDBRANCH  23  26
ENDBRANCH   1  23
BRANCH   4  34
ATOM     34  O   LIG    1        0.220  -2.164  -0.386  0.00  0.00    -0.492 OA
BRANCH  34  35
ATOM     35  C   LIG    1       -0.288  -3.433  -0.787  0.00  0.00    +0.225 C 
ATOM     36  C   LIG    1        0.872  -4.432  -0.818  0.00  0.00    +0.048 C 
ENDBRANCH  34  35
ENDBRANCH   4  34
TORSDOF 8
