REMARK  Name = DB00829
REMARK                            x       y       z     vdW  Elec       q    Type
REMARK                         _______ _______ _______ _____ _____    ______ ____
ROOT
ATOM      1 CL   LIG    1       -2.738   5.297  -0.748  0.00  0.00    -0.084 Cl
ATOM      2  C   LIG    1       -1.942   3.791  -0.472  0.00  0.00    +0.042 A 
ATOM      3  C   LIG    1       -0.630   3.611  -0.883  0.00  0.00    +0.022 A 
ATOM      4  C   LIG    1       -0.001   2.391  -0.663  0.00  0.00    +0.025 A 
ATOM      5  C   LIG    1       -0.660   1.304  -0.059  0.00  0.00    +0.045 A 
ATOM      6  C   LIG    1       -1.987   1.519   0.424  0.00  0.00    +0.023 A 
ATOM      7  C   LIG    1       -2.771   0.490   1.175  0.00  0.00    +0.075 C 
ATOM      8  N   LIG    1       -2.773  -0.761   0.889  0.00  0.00    -0.273 NA
ATOM      9  C   LIG    1       -1.970  -1.238  -0.227  0.00  0.00    +0.238 C 
ATOM     10  C   LIG    1       -0.452  -1.175   0.059  0.00  0.00    +0.241 C 
ATOM     11  O   LIG    1        0.203  -2.218   0.140  0.00  0.00    -0.273 OA
ATOM     12  N   LIG    1        0.046   0.092   0.210  0.00  0.00    -0.272 N 
ATOM     13  C   LIG    1        1.495   0.152   0.475  0.00  0.00    +0.138 C 
ATOM     14  C   LIG    1       -2.608   2.756   0.173  0.00  0.00    +0.032 A 
ENDROOT
BRANCH   7  15
ATOM     15  C   LIG    1       -3.584   0.952   2.326  0.00  0.00    +0.001 A 
ATOM     16  C   LIG    1       -4.867   0.427   2.546  0.00  0.00    +0.010 A 
ATOM     17  C   LIG    1       -5.627   0.859   3.630  0.00  0.00    +0.001 A 
ATOM     18  C   LIG    1       -5.109   1.814   4.501  0.00  0.00    +0.000 A 
ATOM     19  C   LIG    1       -3.836   2.340   4.299  0.00  0.00    +0.001 A 
ATOM     20  C   LIG    1       -3.074   1.909   3.216  0.00  0.00    +0.010 A 
ENDBRANCH   7  15
TORSDOF 1
