REMARK  Name = DB00495
REMARK                            x       y       z     vdW  Elec       q    Type
REMARK                         _______ _______ _______ _____ _____    ______ ____
ROOT
ATOM      1  O   LIG    1        2.206   0.697   0.679  0.00  0.00    -0.349 OA
ATOM      2  C   LIG    1        3.465   1.229   0.265  0.00  0.00    +0.173 C 
ATOM      3  C   LIG    1        3.565   0.891  -1.239  0.00  0.00    +0.177 C 
ATOM      4  C   LIG    1        2.105   0.616  -1.638  0.00  0.00    +0.087 C 
ATOM      5  C   LIG    1        1.597  -0.021  -0.353  0.00  0.00    +0.226 C 
ENDROOT
BRANCH   5   6
ATOM      6  N   LIG    1        0.152  -0.069  -0.164  0.00  0.00    -0.274 N 
ATOM      7  C   LIG    1       -0.498  -1.289  -0.147  0.00  0.00    +0.331 A 
ATOM      8  N   LIG    1       -1.856  -1.190   0.013  0.00  0.00    -0.275 N 
ATOM      9  H   LIG    1       -2.349  -2.070   0.026  0.00  0.00    +0.173 HD
ATOM     10  C   LIG    1       -2.647  -0.085   0.150  0.00  0.00    +0.257 A 
ATOM     11  C   LIG    1       -1.898   1.170   0.122  0.00  0.00    +0.030 A 
ATOM     12  C   LIG    1       -2.672   2.474   0.269  0.00  0.00    +0.051 C 
ATOM     13  O   LIG    1       -3.867  -0.181   0.281  0.00  0.00    -0.267 OA
ATOM     14  O   LIG    1        0.020  -2.400  -0.268  0.00  0.00    -0.246 OA
ATOM     15  C   LIG    1       -0.557   1.105  -0.033  0.00  0.00    +0.101 A 
ENDBRANCH   5   6
BRANCH   3  16
ATOM     16  N   LIG    1        4.468  -0.239  -1.423  0.00  0.00    -0.106 NA
ATOM     17  N   LIG    1        4.416  -0.834  -2.500  0.00  0.00    -0.197 NA
ATOM     18  N   LIG    1        4.413  -1.496  -3.427  0.00  0.00    -0.128 NA
ATOM     19  H   LIG    1        3.948  -2.364  -3.410  0.00  0.00    +0.228 HD
ENDBRANCH   3  16
BRANCH   2  20
ATOM     20  C   LIG    1        3.497   2.732   0.624  0.00  0.00    +0.189 C 
BRANCH  20  21
ATOM     21  O   LIG    1        2.576   3.499  -0.126  0.00  0.00    -0.392 OA
ATOM     22  H   LIG    1        2.644   4.416   0.152  0.00  0.00    +0.210 HD
ENDBRANCH  20  21
ENDBRANCH   2  20
TORSDOF 4
