REMARK  Name = DB00424
REMARK                            x       y       z     vdW  Elec       q    Type
REMARK                         _______ _______ _______ _____ _____    ______ ____
ROOT
ATOM      1  C   LIG    1       -0.164   0.268  -0.058  0.00  0.00    +0.317 C 
ATOM      2  O   LIG    1       -0.894   1.217  -0.354  0.00  0.00    -0.250 OA
ENDROOT
BRANCH   1   3
ATOM      3  O   LIG    1       -0.583  -0.933   0.403  0.00  0.00    -0.461 OA
BRANCH   3   4
ATOM      4  C   LIG    1       -1.968  -1.268   0.490  0.00  0.00    +0.179 C 
ATOM      5  C   LIG    1       -2.492  -1.766  -0.894  0.00  0.00    +0.063 C 
ATOM      6  C   LIG    1       -2.311  -3.291  -1.136  0.00  0.00    +0.060 C 
ATOM      7  N   LIG    1       -2.967  -3.975  -0.020  0.00  0.00    -0.299 NA
ATOM      8  C   LIG    1       -3.287  -5.373  -0.312  0.00  0.00    +0.105 C 
ATOM      9  C   LIG    1       -1.982  -3.822   1.052  0.00  0.00    +0.060 C 
ATOM     10  C   LIG    1       -0.612  -4.095   0.394  0.00  0.00    +0.020 C 
ATOM     11  C   LIG    1       -0.836  -3.739  -1.081  0.00  0.00    +0.020 C 
ATOM     12  C   LIG    1       -2.122  -2.367   1.583  0.00  0.00    +0.063 C 
ENDBRANCH   3   4
ENDBRANCH   1   3
BRANCH   1  13
ATOM     13  C   LIG    1        1.377   0.333  -0.165  0.00  0.00    +0.153 C 
BRANCH  13  14
ATOM     14  C   LIG    1        1.880  -0.684  -1.203  0.00  0.00    -0.032 A 
ATOM     15  C   LIG    1        2.875  -1.592  -0.830  0.00  0.00    +0.004 A 
ATOM     16  C   LIG    1        3.351  -2.528  -1.745  0.00  0.00    +0.000 A 
ATOM     17  C   LIG    1        2.838  -2.550  -3.039  0.00  0.00    +0.000 A 
ATOM     18  C   LIG    1        1.855  -1.643  -3.429  0.00  0.00    +0.000 A 
ATOM     19  C   LIG    1        1.379  -0.708  -2.514  0.00  0.00    +0.004 A 
ENDBRANCH  13  14
BRANCH  13  20
ATOM     20  C   LIG    1        1.960   1.756  -0.378  0.00  0.00    +0.175 C 
BRANCH  20  21
ATOM     21  O   LIG    1        1.626   2.335  -1.627  0.00  0.00    -0.394 OA
ATOM     22  H   LIG    1        2.022   3.208  -1.676  0.00  0.00    +0.209 HD
ENDBRANCH  20  21
ENDBRANCH  13  20
ENDBRANCH   1  13
TORSDOF 6
