REMARK  Name = DB00904
REMARK                            x       y       z     vdW  Elec       q    Type
REMARK                         _______ _______ _______ _____ _____    ______ ____
ROOT
ATOM      1  O   LIG    1        0.283  -0.435  -3.054  0.00  0.00    -0.292 OA
ATOM      2  C   LIG    1        1.360  -0.093  -2.567  0.00  0.00    +0.170 C 
ATOM      3  C   LIG    1        2.202   0.956  -3.145  0.00  0.00    +0.046 A 
ATOM      4  C   LIG    1        1.949   1.835  -4.251  0.00  0.00    +0.011 A 
ATOM      5  C   LIG    1        0.864   2.027  -5.125  0.00  0.00    +0.011 A 
ATOM      6  C   LIG    1        0.960   2.990  -6.126  0.00  0.00    +0.001 A 
ATOM      7  C   LIG    1        2.109   3.760  -6.274  0.00  0.00    +0.002 A 
ATOM      8  C   LIG    1        3.209   3.608  -5.432  0.00  0.00    +0.026 A 
ATOM      9  C   LIG    1        3.116   2.643  -4.419  0.00  0.00    +0.050 A 
ATOM     10  N   LIG    1        4.023   2.266  -3.440  0.00  0.00    -0.346 N 
ATOM     11  C   LIG    1        5.369   2.810  -3.299  0.00  0.00    +0.149 C 
ATOM     12  C   LIG    1        3.476   1.252  -2.676  0.00  0.00    +0.030 A 
ATOM     13  C   LIG    1        4.203   0.492  -1.570  0.00  0.00    +0.055 C 
ATOM     14  C   LIG    1        3.468  -0.850  -1.339  0.00  0.00    +0.019 C 
ATOM     15  C   LIG    1        1.922  -0.729  -1.270  0.00  0.00    +0.080 C 
ENDROOT
BRANCH  15  16
ATOM     16  C   LIG    1        1.443   0.048  -0.009  0.00  0.00    +0.134 C 
BRANCH  16  17
ATOM     17  N   LIG    1       -0.012   0.032   0.147  0.00  0.00    -0.334 N 
ATOM     18  C   LIG    1       -0.782  -1.041   0.520  0.00  0.00    +0.107 A 
ATOM     19  C   LIG    1       -2.087  -0.582   0.506  0.00  0.00    +0.130 A 
ATOM     20  N   LIG    1       -2.156   0.688   0.149  0.00  0.00    -0.241 NA
ATOM     21  C   LIG    1       -0.913   1.055  -0.070  0.00  0.00    +0.107 A 
ATOM     22  C   LIG    1       -0.519   2.448  -0.517  0.00  0.00    +0.086 C 
ENDBRANCH  16  17
ENDBRANCH  15  16
TORSDOF 2
