REMARK  Name = DB00457
REMARK                            x       y       z     vdW  Elec       q    Type
REMARK                         _______ _______ _______ _____ _____    ______ ____
ROOT
ATOM      1  C   LIG    1        4.495   2.633   0.327  0.00  0.00    +0.220 A 
ATOM      2  N   LIG    1        5.282   1.788   1.047  0.00  0.00    -0.199 NA
ATOM      3  C   LIG    1        4.932   0.482   1.085  0.00  0.00    +0.129 A 
ATOM      4  C   LIG    1        3.797  -0.029   0.394  0.00  0.00    +0.044 A 
ATOM      5  C   LIG    1        3.381  -1.384   0.392  0.00  0.00    +0.062 A 
ATOM      6  C   LIG    1        2.244  -1.786  -0.327  0.00  0.00    +0.162 A 
ATOM      7  C   LIG    1        1.504  -0.842  -1.052  0.00  0.00    +0.164 A 
ATOM      8  C   LIG    1        1.904   0.504  -1.062  0.00  0.00    +0.078 A 
ATOM      9  C   LIG    1        3.045   0.926  -0.347  0.00  0.00    +0.082 A 
ATOM     10  N   LIG    1        3.400   2.242  -0.384  0.00  0.00    -0.214 NA
ENDROOT
BRANCH   1  16
ATOM     11  O   LIG    1        4.261   8.681   0.620  0.00  0.00    -0.267 OA
ATOM     12  C   LIG    1        5.268   8.018   0.881  0.00  0.00    +0.282 C 
ATOM     13  N   LIG    1        5.545   6.822   0.281  0.00  0.00    -0.292 N 
ATOM     14  C   LIG    1        6.575   5.866   0.718  0.00  0.00    +0.127 C 
ATOM     15  C   LIG    1        5.896   4.547   1.153  0.00  0.00    +0.127 C 
ATOM     16  N   LIG    1        4.890   3.975   0.235  0.00  0.00    -0.297 N 
ATOM     17  C   LIG    1        3.987   5.009  -0.308  0.00  0.00    +0.127 C 
ATOM     18  C   LIG    1        4.662   6.314  -0.779  0.00  0.00    +0.127 C 
BRANCH  12  19
ATOM     19  C   LIG    1        6.214   8.574   1.824  0.00  0.00    +0.189 A 
ATOM     20  C   LIG    1        6.014   9.482   2.860  0.00  0.00    +0.054 A 
ATOM     21  C   LIG    1        7.270   9.802   3.378  0.00  0.00    +0.042 A 
ATOM     22  C   LIG    1        8.192   9.128   2.596  0.00  0.00    +0.196 A 
ATOM     23  O   LIG    1        7.553   8.413   1.634  0.00  0.00    -0.458 OA
ENDBRANCH  12  19
ENDBRANCH   1  16
BRANCH   3  24
ATOM     24  N   LIG    1        5.765  -0.336   1.849  0.00  0.00    -0.343 N 
ATOM     25  H   LIG    1        6.560   0.073   2.318  0.00  0.00    +0.144 HD
ATOM     26  H   LIG    1        5.564  -1.322   1.925  0.00  0.00    +0.144 HD
ENDBRANCH   3  24
BRANCH   7  27
ATOM     27  O   LIG    1        0.394  -1.310  -1.733  0.00  0.00    -0.491 OA
ATOM     28  C   LIG    1       -0.404  -0.403  -2.487  0.00  0.00    +0.277 C 
ENDBRANCH   7  27
BRANCH   6  29
ATOM     29  O   LIG    1        1.794  -3.095  -0.369  0.00  0.00    -0.491 OA
ATOM     30  C   LIG    1        2.505  -4.107   0.336  0.00  0.00    +0.277 C 
ENDBRANCH   6  29
TORSDOF 5
