REMARK  Name = DB00585
REMARK                            x       y       z     vdW  Elec       q    Type
REMARK                         _______ _______ _______ _____ _____    ______ ____
ROOT
ATOM      1  C   LIG    1        1.416   0.806   0.902  0.00  0.00    +0.113 C 
ENDROOT
BRANCH   1   2
ATOM      2  S   LIG    1        0.177   1.902   1.652  0.00  0.00    -0.151 S 
BRANCH   2   3
ATOM      3  C   LIG    1        0.191   3.336   0.525  0.00  0.00    +0.125 C 
BRANCH   3   4
ATOM      4  C   LIG    1       -0.159   3.028  -0.920  0.00  0.00    +0.059 A 
ATOM      5  C   LIG    1        0.543   3.407  -2.061  0.00  0.00    +0.071 A 
ATOM      6  S   LIG    1       -0.273   2.805  -3.469  0.00  0.00    -0.079 S 
ATOM      7  C   LIG    1       -1.462   2.091  -2.424  0.00  0.00    +0.093 A 
ATOM      8  N   LIG    1       -1.262   2.337  -1.151  0.00  0.00    -0.247 NA
BRANCH   7   9
ATOM      9  C   LIG    1       -2.621   1.248  -2.920  0.00  0.00    +0.146 C 
BRANCH   9  10
ATOM     10  N   LIG    1       -2.390  -0.185  -2.708  0.00  0.00    -0.302 NA
ATOM     11  C   LIG    1       -1.419  -0.727  -3.657  0.00  0.00    +0.105 C 
ATOM     12  C   LIG    1       -3.644  -0.923  -2.826  0.00  0.00    +0.105 C 
ENDBRANCH   9  10
ENDBRANCH   7   9
ENDBRANCH   3   4
ENDBRANCH   2   3
ENDBRANCH   1   2
BRANCH   1  13
ATOM     13  C   LIG    1        0.817  -0.326   0.053  0.00  0.00    +0.233 C 
BRANCH  13  14
ATOM     14  N   LIG    1        1.825  -1.220  -0.501  0.00  0.00    -0.236 N 
ATOM     15  H   LIG    1        2.162  -1.893   0.172  0.00  0.00    +0.291 HD
BRANCH  14  16
ATOM     16  C   LIG    1        2.538  -1.067  -1.673  0.00  0.00    +0.278 C 
ATOM     17  C   LIG    1        2.325  -0.040  -2.534  0.00  0.00    +0.265 C 
BRANCH  16  18
ATOM     18  N   LIG    1        3.468  -2.074  -1.835  0.00  0.00    -0.240 N 
ATOM     19  H   LIG    1        3.909  -2.102  -2.744  0.00  0.00    +0.291 HD
ATOM     20  C   LIG    1        4.391  -2.548  -0.812  0.00  0.00    +0.273 C 
ENDBRANCH  16  18
BRANCH  17  21
ATOM     21  N   LIG    1        3.068   0.146  -3.797  0.00  0.00    +0.006 N 
ATOM     22  O   LIG    1        2.816   1.183  -4.399  0.00  0.00    -0.130 OA
BRANCH  21  23
ATOM     23  O   LIG    1        3.858  -0.714  -4.174  0.00  0.00    -0.396 OA
ATOM     24  H   LIG    1        3.997  -1.482  -3.656  0.00  0.00    +0.329 HD
ENDBRANCH  21  23
ENDBRANCH  17  21
ENDBRANCH  14  16
ENDBRANCH  13  14
ENDBRANCH   1  13
TORSDOF 11
