REMARK  Name = DB00135
REMARK                            x       y       z     vdW  Elec       q    Type
REMARK                         _______ _______ _______ _____ _____    ______ ____
ROOT
ATOM      1  CB  TYR A  1        0.034   0.062  -0.124  0.00  0.00    +0.065 C 
ENDROOT
BRANCH   1   3
ATOM      2  CD1 TYR A  1       -0.689   2.115   1.183  0.00  0.00    +0.007 A 
ATOM      3  CG  TYR A  1       -0.514   1.478  -0.064  0.00  0.00    -0.045 A 
ATOM      4  CD2 TYR A  1       -0.846   2.165  -1.251  0.00  0.00    +0.007 A 
ATOM      5  CE2 TYR A  1       -1.351   3.479  -1.192  0.00  0.00    +0.045 A 
ATOM      6  CZ  TYR A  1       -1.526   4.111   0.055  0.00  0.00    +0.117 A 
ATOM      7  CE1 TYR A  1       -1.195   3.429   1.242  0.00  0.00    +0.045 A 
BRANCH   6   8
ATOM      8  OH  TYR A  1       -2.015   5.384   0.115  0.00  0.00    -0.507 OA
ATOM      9  HH  TYR A  1       -2.205   5.755  -0.750  0.00  0.00    +0.292 HD
ENDBRANCH   6   8
ENDBRANCH   1   3
BRANCH   1  10
ATOM     10  CA  TYR A  1        1.577  -0.032  -0.084  0.00  0.00    +0.165 C 
BRANCH  10  11
ATOM     11  N   TYR A  1        2.224   0.494  -1.297  0.00  0.00    -0.318 NA
ATOM     12  H1  TYR A  1        1.793   0.134  -2.136  0.00  0.00    +0.119 HD
ATOM     13  H2  TYR A  1        3.207   0.261  -1.328  0.00  0.00    +0.119 HD
ENDBRANCH  10  11
BRANCH  10  14
ATOM     14  C   TYR A  1        2.080  -1.478   0.082  0.00  0.00    +0.322 C 
ATOM     15  O   TYR A  1        1.572  -2.434  -0.503  0.00  0.00    -0.249 OA
BRANCH  14  16
ATOM     16  OXT TYR A  1        3.150  -1.544   0.927  0.00  0.00    -0.480 OA
ATOM     17  HXT TYR A  1        3.479  -2.440   1.031  0.00  0.00    +0.295 HD
ENDBRANCH  14  16
ENDBRANCH  10  14
ENDBRANCH   1  10
TORSDOF 6
