REMARK  Name = DB00480
REMARK                            x       y       z     vdW  Elec       q    Type
REMARK                         _______ _______ _______ _____ _____    ______ ____
ROOT
ATOM      1  O   LIG    1       -0.234   2.209   0.095  0.00  0.00    -0.270 OA
ATOM      2  C   LIG    1       -0.707   1.072   0.053  0.00  0.00    +0.248 C 
ATOM      3  C   LIG    1       -2.151   0.683   0.036  0.00  0.00    +0.043 A 
ATOM      4  C   LIG    1       -3.283   1.500   0.062  0.00  0.00    +0.013 A 
ATOM      5  C   LIG    1       -4.547   0.907   0.034  0.00  0.00    +0.003 A 
ATOM      6  C   LIG    1       -4.670  -0.484  -0.017  0.00  0.00    +0.023 A 
ATOM      7  C   LIG    1       -3.530  -1.294  -0.041  0.00  0.00    +0.030 A 
ATOM      8  C   LIG    1       -2.266  -0.695  -0.016  0.00  0.00    +0.003 A 
ATOM      9  C   LIG    1       -0.889  -1.286  -0.038  0.00  0.00    +0.146 C 
ATOM     10  N   LIG    1       -0.032  -0.102   0.009  0.00  0.00    -0.282 N 
ENDROOT
BRANCH  10  11
ATOM     11  C   LIG    1        1.442  -0.180  -0.017  0.00  0.00    +0.163 C 
ATOM     12  C   LIG    1        1.993  -0.738   1.327  0.00  0.00    +0.240 C 
ATOM     13  N   LIG    1        3.276  -1.171   1.265  0.00  0.00    -0.255 N 
ATOM     14  H   LIG    1        3.651  -1.467   2.154  0.00  0.00    +0.158 HD
ATOM     15  C   LIG    1        4.142  -1.308   0.230  0.00  0.00    +0.219 C 
ATOM     16  C   LIG    1        3.585  -0.931  -1.164  0.00  0.00    +0.098 C 
ATOM     17  O   LIG    1        5.294  -1.696   0.406  0.00  0.00    -0.275 OA
ATOM     18  O   LIG    1        1.360  -0.774   2.383  0.00  0.00    -0.273 OA
ATOM     19  C   LIG    1        2.045  -0.980  -1.190  0.00  0.00    +0.041 C 
ENDBRANCH  10  11
BRANCH   7  20
ATOM     20  N   LIG    1       -3.671  -2.681  -0.090  0.00  0.00    -0.358 N 
ATOM     21  H   LIG    1       -2.848  -3.265  -0.088  0.00  0.00    +0.142 HD
ATOM     22  H   LIG    1       -4.597  -3.086  -0.094  0.00  0.00    +0.142 HD
ENDBRANCH   7  20
TORSDOF 2
