REMARK  Name = DB00646
REMARK                            x       y       z     vdW  Elec       q    Type
REMARK                         _______ _______ _______ _____ _____    ______ ____
ROOT
ATOM      1  C   LIG    1        2.029  -0.000  -0.104  0.00  0.00    +0.147 C 
ATOM      2  C   LIG    1        2.571  -0.578   1.201  0.00  0.00    +0.004 C 
ATOM      3  C   LIG    1        3.299   0.129   2.083  0.00  0.00    -0.002 C 
ATOM      4  C   LIG    1        3.840  -0.413   3.314  0.00  0.00    -0.000 C 
ATOM      5  C   LIG    1        4.564   0.337   4.163  0.00  0.00    -0.000 C 
ATOM      6  C   LIG    1        5.161  -0.166   5.385  0.00  0.00    -0.000 C 
ATOM      7  C   LIG    1        5.921   0.609   6.181  0.00  0.00    -0.000 C 
ATOM      8  C   LIG    1        6.571   0.131   7.385  0.00  0.00    -0.004 C 
ATOM      9  C   LIG    1        7.390   0.904   8.120  0.00  0.00    -0.027 C 
ATOM     10  C   LIG    1        8.144   0.440   9.355  0.00  0.00    +0.031 C 
ATOM     11  C   LIG    1        9.659   0.265   9.127  0.00  0.00    +0.031 C 
ATOM     12  C   LIG    1        9.984  -0.769   8.064  0.00  0.00    -0.027 C 
ATOM     13  C   LIG    1       10.632  -1.929   8.278  0.00  0.00    -0.005 C 
ATOM     14  C   LIG    1       10.811  -2.958   7.268  0.00  0.00    -0.004 C 
ATOM     15  C   LIG    1        9.878  -3.265   6.347  0.00  0.00    -0.021 C 
ATOM     16  C   LIG    1        9.992  -4.357   5.289  0.00  0.00    +0.038 C 
ATOM     17  C   LIG    1        9.449  -5.762   5.722  0.00  0.00    +0.127 C 
ATOM     18  C   LIG    1        7.931  -5.968   6.098  0.00  0.00    +0.055 C 
ATOM     19  C   LIG    1        7.131  -6.822   5.058  0.00  0.00    +0.179 C 
ATOM     20  O   LIG    1        5.871  -7.234   5.598  0.00  0.00    -0.461 OA
ATOM     21  C   LIG    1        5.767  -8.253   6.484  0.00  0.00    +0.310 C 
ATOM     22  O   LIG    1        6.680  -9.003   6.835  0.00  0.00    -0.251 OA
ATOM     23  C   LIG    1        4.358  -8.397   7.068  0.00  0.00    +0.152 C 
ATOM     24  C   LIG    1        3.925  -7.193   7.947  0.00  0.00    +0.128 C 
ATOM     25  C   LIG    1        3.328  -5.976   7.184  0.00  0.00    +0.063 C 
ATOM     26  C   LIG    1        1.853  -6.076   6.714  0.00  0.00    +0.119 C 
ATOM     27  C   LIG    1        1.321  -4.780   6.047  0.00  0.00    +0.062 C 
ATOM     28  C   LIG    1        2.043  -4.272   4.767  0.00  0.00    +0.117 C 
ATOM     29  C   LIG    1        1.948  -5.175   3.510  0.00  0.00    +0.034 C 
ATOM     30  C   LIG    1        0.559  -5.745   3.105  0.00  0.00    +0.036 C 
ATOM     31  C   LIG    1       -0.511  -4.773   2.542  0.00  0.00    +0.143 C 
ATOM     32  C   LIG    1       -0.063  -3.888   1.343  0.00  0.00    +0.148 C 
ATOM     33  C   LIG    1        0.518  -4.728   0.166  0.00  0.00    +0.098 C 
ATOM     34  C   LIG    1        0.852  -3.965  -1.136  0.00  0.00    +0.172 C 
ATOM     35  O   LIG    1        1.587  -2.812  -0.791  0.00  0.00    -0.344 OA
ATOM     36  C   LIG    1        1.933  -1.944  -1.886  0.00  0.00    +0.141 C 
ATOM     37  C   LIG    1        2.775  -2.705  -2.958  0.00  0.00    +0.155 C 
ATOM     38  C   LIG    1        2.133  -4.065  -3.336  0.00  0.00    +0.136 C 
ATOM     39  C   LIG    1        1.699  -4.841  -2.078  0.00  0.00    +0.097 C 
ATOM     40  C   LIG    1        6.824  -6.110   3.730  0.00  0.00    +0.052 C 
ATOM     41  C   LIG    1        7.158  -4.722   6.588  0.00  0.00    +0.014 C 
ATOM     42  C   LIG    1        9.477  -3.884   3.919  0.00  0.00    +0.014 C 
ATOM     43  C   LIG    1        2.644  -0.669  -1.354  0.00  0.00    +0.068 C 
ENDROOT
BRANCH  24  44
ATOM     44  O   LIG    1        3.024  -7.651   8.937  0.00  0.00    -0.391 OA
ATOM     45  H   LIG    1        2.232  -7.977   8.505  0.00  0.00    +0.210 HD
ENDBRANCH  24  44
BRANCH  26  46
ATOM     46  O   LIG    1        1.659  -7.192   5.870  0.00  0.00    -0.392 OA
ATOM     47  H   LIG    1        1.969  -7.977   6.326  0.00  0.00    +0.210 HD
ENDBRANCH  26  46
BRANCH  28  48
ATOM     48  O   LIG    1        1.570  -2.976   4.461  0.00  0.00    -0.392 OA
ATOM     49  H   LIG    1        1.987  -2.681   3.648  0.00  0.00    +0.210 HD
ENDBRANCH  28  48
BRANCH  31  50
ATOM     50  O   LIG    1       -1.032  -3.980   3.593  0.00  0.00    -0.389 OA
ATOM     51  H   LIG    1       -1.647  -3.346   3.216  0.00  0.00    +0.210 HD
ENDBRANCH  31  50
BRANCH  32  52
ATOM     52  O   LIG    1       -1.183  -3.135   0.912  0.00  0.00    -0.389 OA
ATOM     53  H   LIG    1       -1.833  -3.735   0.539  0.00  0.00    +0.210 HD
ENDBRANCH  32  52
BRANCH  34  54
ATOM     54  O   LIG    1       -0.340  -3.687  -1.774  0.00  0.00    -0.364 OA
ATOM     55  H   LIG    1       -0.776  -4.521  -1.961  0.00  0.00    +0.213 HD
ENDBRANCH  34  54
BRANCH  37  56
ATOM     56  C   LIG    1        2.932  -1.835  -4.228  0.00  0.00    +0.313 C 
ATOM     57  O   LIG    1        1.984  -1.490  -4.933  0.00  0.00    -0.251 OA
BRANCH  56  58
ATOM     58  O   LIG    1        4.232  -1.493  -4.460  0.00  0.00    -0.480 OA
ATOM     59  H   LIG    1        4.330  -0.951  -5.246  0.00  0.00    +0.295 HD
ENDBRANCH  56  58
ENDBRANCH  37  56
BRANCH  38  60
ATOM     60  O   LIG    1        2.989  -4.876  -4.121  0.00  0.00    -0.391 OA
ATOM     61  H   LIG    1        2.521  -5.125  -4.922  0.00  0.00    +0.210 HD
ENDBRANCH  38  60
BRANCH  17  62
ATOM     62  O   LIG    1       10.253  -6.217   6.801  0.00  0.00    -0.391 OA
ATOM     63  H   LIG    1        9.977  -7.107   7.033  0.00  0.00    +0.210 HD
ENDBRANCH  17  62
BRANCH   1  64
ATOM     64  O   LIG    1        0.601  -0.051  -0.196  0.00  0.00    -0.341 OA
BRANCH  64  70
ATOM     65  C   LIG    1       -0.841   0.576   3.043  0.00  0.00    +0.148 C 
ATOM     66  C   LIG    1       -0.706  -0.288   4.307  0.00  0.00    +0.041 C 
ATOM     67  C   LIG    1       -2.313   0.894   2.672  0.00  0.00    +0.162 C 
ATOM     68  C   LIG    1       -2.381   1.615   1.303  0.00  0.00    +0.116 C 
ATOM     69  C   LIG    1       -1.553   0.853   0.239  0.00  0.00    +0.189 C 
ATOM     70  C   LIG    1       -0.130   0.632   0.782  0.00  0.00    +0.281 C 
ATOM     71  O   LIG    1       -0.206  -0.123   1.967  0.00  0.00    -0.343 OA
BRANCH  68  72
ATOM     72  N   LIG    1       -3.722   1.971   0.859  0.00  0.00    -0.323 NA
ATOM     73  H   LIG    1       -3.669   2.552   0.034  0.00  0.00    +0.119 HD
ATOM     74  H   LIG    1       -4.182   2.517   1.573  0.00  0.00    +0.119 HD
ENDBRANCH  68  72
BRANCH  67  75
ATOM     75  O   LIG    1       -2.953   1.648   3.688  0.00  0.00    -0.388 OA
ATOM     76  H   LIG    1       -2.518   2.501   3.755  0.00  0.00    +0.210 HD
ENDBRANCH  67  75
BRANCH  69  77
ATOM     77  O   LIG    1       -2.172  -0.363  -0.149  0.00  0.00    -0.385 OA
ATOM     78  H   LIG    1       -3.123  -0.232  -0.139  0.00  0.00    +0.210 HD
ENDBRANCH  69  77
ENDBRANCH  64  70
ENDBRANCH   1  64
TORSDOF 15
