REMARK  Name = DB00944
REMARK                            x       y       z     vdW  Elec       q    Type
REMARK                         _______ _______ _______ _____ _____    ______ ____
ROOT
ATOM      1  C   LIG    1       -0.257  -0.027   0.157  0.00  0.00    +0.000 C 
ENDROOT
BRANCH   1   2
ATOM      2  C   LIG    1       -0.626   1.467   0.176  0.00  0.00    +0.000 C 
BRANCH   2   3
ATOM      3  C   LIG    1       -2.036   1.724   0.742  0.00  0.00    +0.002 C 
BRANCH   3   4
ATOM      4  C   LIG    1       -2.476   3.200   0.708  0.00  0.00    +0.019 C 
BRANCH   4   5
ATOM      5  C   LIG    1       -1.637   4.120   1.618  0.00  0.00    +0.111 C 
BRANCH   5   8
ATOM      6  C   LIG    1       -3.081   5.922   2.546  0.00  0.00    +0.408 C 
ATOM      7  O   LIG    1       -3.551   5.207   3.437  0.00  0.00    -0.226 OA
ATOM      8  N   LIG    1       -2.103   5.511   1.624  0.00  0.00    -0.270 N 
ATOM      9  C   LIG    1       -1.616   6.356   0.527  0.00  0.00    +0.135 C 
BRANCH   6  10
ATOM     10  O   LIG    1       -3.461   7.223   2.334  0.00  0.00    -0.411 OA
BRANCH  10  11
ATOM     11  C   LIG    1       -4.402   7.813   3.149  0.00  0.00    +0.135 A 
ATOM     12  C   LIG    1       -5.675   8.084   2.641  0.00  0.00    +0.046 A 
ATOM     13  C   LIG    1       -6.636   8.699   3.442  0.00  0.00    +0.005 A 
ATOM     14  C   LIG    1       -6.335   9.057   4.756  0.00  0.00    +0.022 A 
ATOM     15  C   LIG    1       -5.054   8.800   5.272  0.00  0.00    +0.019 A 
ATOM     16  C   LIG    1       -4.088   8.183   4.463  0.00  0.00    +0.068 A 
BRANCH  15  17
ATOM     17  N   LIG    1       -4.682   9.170   6.697  0.00  0.00    -0.390 NA
ATOM     18  C   LIG    1       -3.488  10.159   6.728  0.00  0.00    +0.109 C 
ATOM     19  C   LIG    1       -4.278   7.916   7.514  0.00  0.00    +0.109 C 
ATOM     20  C   LIG    1       -5.817   9.855   7.510  0.00  0.00    +0.109 C 
ENDBRANCH  15  17
ENDBRANCH  10  11
ENDBRANCH   6  10
ENDBRANCH   5   8
ENDBRANCH   4   5
ENDBRANCH   3   4
ENDBRANCH   2   3
ENDBRANCH   1   2
BRANCH   1  21
ATOM     21  C   LIG    1        1.168  -0.289  -0.370  0.00  0.00    +0.000 C 
BRANCH  21  22
ATOM     22  C   LIG    1        1.529  -1.781  -0.511  0.00  0.00    +0.000 C 
BRANCH  22  23
ATOM     23  C   LIG    1        1.575  -2.553   0.821  0.00  0.00    +0.002 C 
BRANCH  23  24
ATOM     24  C   LIG    1        2.019  -4.016   0.651  0.00  0.00    +0.019 C 
BRANCH  24  25
ATOM     25  C   LIG    1        2.017  -4.788   1.984  0.00  0.00    +0.111 C 
BRANCH  25  26
ATOM     26  N   LIG    1        2.446  -6.184   1.852  0.00  0.00    -0.270 N 
ATOM     27  C   LIG    1        3.889  -6.425   1.975  0.00  0.00    +0.135 C 
ATOM     28  C   LIG    1        1.517  -7.173   1.487  0.00  0.00    +0.408 C 
ATOM     29  O   LIG    1        0.311  -6.971   1.309  0.00  0.00    -0.226 OA
BRANCH  28  30
ATOM     30  O   LIG    1        2.114  -8.402   1.345  0.00  0.00    -0.411 OA
BRANCH  30  31
ATOM     31  C   LIG    1        1.375  -9.522   1.025  0.00  0.00    +0.135 A 
ATOM     32  C   LIG    1        1.715 -10.242  -0.123  0.00  0.00    +0.046 A 
ATOM     33  C   LIG    1        1.007 -11.391  -0.474  0.00  0.00    +0.005 A 
ATOM     34  C   LIG    1       -0.045 -11.841   0.323  0.00  0.00    +0.022 A 
ATOM     35  C   LIG    1       -0.388 -11.134   1.488  0.00  0.00    +0.019 A 
ATOM     36  C   LIG    1        0.330  -9.981   1.839  0.00  0.00    +0.068 A 
BRANCH  35  37
ATOM     37  N   LIG    1       -1.529 -11.584   2.384  0.00  0.00    -0.390 NA
ATOM     38  C   LIG    1       -2.629 -10.495   2.475  0.00  0.00    +0.109 C 
ATOM     39  C   LIG    1       -1.033 -11.875   3.824  0.00  0.00    +0.109 C 
ATOM     40  C   LIG    1       -2.252 -12.878   1.918  0.00  0.00    +0.109 C 
ENDBRANCH  35  37
ENDBRANCH  30  31
ENDBRANCH  28  30
ENDBRANCH  25  26
ENDBRANCH  24  25
ENDBRANCH  23  24
ENDBRANCH  22  23
ENDBRANCH  21  22
ENDBRANCH   1  21
TORSDOF 17
