REMARK  Name = DB00565
REMARK                            x       y       z     vdW  Elec       q    Type
REMARK                         _______ _______ _______ _____ _____    ______ ____
ROOT
ATOM      1  C   LIG    1        1.225   0.402  -0.549  0.00  0.00    +0.007 C 
ENDROOT
BRANCH   1   2
ATOM      2  C   LIG    1       -0.301   0.481  -0.318  0.00  0.00    +0.041 C 
BRANCH   2   3
ATOM      3  C   LIG    1       -0.905   1.897  -0.289  0.00  0.00    +0.232 C 
BRANCH   3   4
ATOM      4  O   LIG    1       -0.478   2.587   0.877  0.00  0.00    -0.465 OA
BRANCH   4   5
ATOM      5  C   LIG    1       -0.907   3.836   1.153  0.00  0.00    +0.305 C 
ATOM      6  O   LIG    1       -1.726   4.476   0.492  0.00  0.00    -0.251 OA
BRANCH   5   7
ATOM      7  C   LIG    1       -0.263   4.453   2.404  0.00  0.00    +0.102 C 
BRANCH   7   8
ATOM      8  C   LIG    1        0.457   3.441   3.345  0.00  0.00    -0.063 C 
BRANCH   8   9
ATOM      9  N   LIG    1        0.900   4.010   4.741  0.00  0.00    +0.384 N 
ATOM     10  C   LIG    1        2.127   3.148   5.175  0.00  0.00    -0.091 C 
ATOM     11  C   LIG    1        1.346   5.495   4.612  0.00  0.00    -0.070 C 
ATOM     12  C   LIG    1        1.920   6.043   5.931  0.00  0.00    +0.017 C 
ATOM     13  C   LIG    1        1.150   5.620   7.179  0.00  0.00    -0.044 A 
ATOM     14  C   LIG    1        1.410   6.273   8.387  0.00  0.00    +0.053 A 
ATOM     15  C   LIG    1        0.811   5.879   9.592  0.00  0.00    +0.162 A 
ATOM     16  C   LIG    1       -0.063   4.789   9.588  0.00  0.00    +0.162 A 
ATOM     17  C   LIG    1       -0.325   4.135   8.376  0.00  0.00    +0.051 A 
ATOM     18  C   LIG    1        0.236   4.546   7.161  0.00  0.00    -0.053 A 
ATOM     19  C   LIG    1       -0.203   3.852   5.851  0.00  0.00    -0.030 C 
BRANCH  15  20
ATOM     20  O   LIG    1        1.039   6.502  10.807  0.00  0.00    -0.491 OA
ATOM     21  C   LIG    1        1.918   7.620  10.868  0.00  0.00    +0.277 C 
ENDBRANCH  15  20
BRANCH  16  22
ATOM     22  O   LIG    1       -0.631   4.425  10.797  0.00  0.00    -0.491 OA
ATOM     23  C   LIG    1       -1.567   3.353  10.839  0.00  0.00    +0.277 C 
ENDBRANCH  16  22
BRANCH  19  24
ATOM     24  C   LIG    1       -1.599   4.347   5.353  0.00  0.00    +0.025 C 
BRANCH  24  25
ATOM     25  C   LIG    1       -2.731   4.167   6.358  0.00  0.00    -0.045 A 
ATOM     26  C   LIG    1       -3.268   5.272   7.019  0.00  0.00    +0.007 A 
ATOM     27  C   LIG    1       -4.274   5.102   7.964  0.00  0.00    +0.049 A 
ATOM     28  C   LIG    1       -4.766   3.821   8.267  0.00  0.00    +0.161 A 
ATOM     29  C   LIG    1       -4.236   2.705   7.600  0.00  0.00    +0.162 A 
ATOM     30  C   LIG    1       -3.223   2.892   6.643  0.00  0.00    +0.053 A 
BRANCH  28  31
ATOM     31  O   LIG    1       -5.755   3.582   9.206  0.00  0.00    -0.491 OA
ATOM     32  C   LIG    1       -6.317   4.676   9.924  0.00  0.00    +0.277 C 
ENDBRANCH  28  31
BRANCH  29  33
ATOM     33  O   LIG    1       -4.750   1.466   7.939  0.00  0.00    -0.491 OA
ATOM     34  C   LIG    1       -4.235   0.296   7.312  0.00  0.00    +0.277 C 
ENDBRANCH  29  33
ENDBRANCH  24  25
ENDBRANCH  19  24
ENDBRANCH   8   9
ENDBRANCH   7   8
ENDBRANCH   5   7
ENDBRANCH   4   5
ENDBRANCH   3   4
ENDBRANCH   2   3
ENDBRANCH   1   2
BRANCH   1  35
ATOM     35  C   LIG    1        2.087   1.050   0.555  0.00  0.00    +0.041 C 
BRANCH  35  36
ATOM     36  C   LIG    1        3.583   0.678   0.486  0.00  0.00    +0.232 C 
BRANCH  36  37
ATOM     37  O   LIG    1        3.821  -0.717   0.668  0.00  0.00    -0.465 OA
BRANCH  37  38
ATOM     38  C   LIG    1        3.732  -1.301   1.886  0.00  0.00    +0.305 C 
ATOM     39  O   LIG    1        3.451  -0.729   2.942  0.00  0.00    -0.251 OA
BRANCH  38  40
ATOM     40  C   LIG    1        4.000  -2.808   1.813  0.00  0.00    +0.102 C 
BRANCH  40  41
ATOM     41  C   LIG    1        3.518  -3.591   3.065  0.00  0.00    -0.063 C 
BRANCH  41  42
ATOM     42  N   LIG    1        3.939  -5.100   3.083  0.00  0.00    +0.384 N 
ATOM     43  C   LIG    1        3.660  -5.729   1.684  0.00  0.00    -0.091 C 
ATOM     44  C   LIG    1        5.456  -5.187   3.413  0.00  0.00    -0.070 C 
ATOM     45  C   LIG    1        5.964  -6.643   3.412  0.00  0.00    +0.017 C 
ATOM     46  C   LIG    1        5.009  -7.654   4.039  0.00  0.00    -0.044 A 
ATOM     47  C   LIG    1        5.465  -8.951   4.297  0.00  0.00    +0.053 A 
ATOM     48  C   LIG    1        4.619  -9.954   4.793  0.00  0.00    +0.162 A 
ATOM     49  C   LIG    1        3.276  -9.650   5.031  0.00  0.00    +0.162 A 
ATOM     50  C   LIG    1        2.817  -8.352   4.771  0.00  0.00    +0.051 A 
ATOM     51  C   LIG    1        3.661  -7.337   4.304  0.00  0.00    -0.053 A 
ATOM     52  C   LIG    1        3.111  -5.903   4.154  0.00  0.00    -0.030 C 
BRANCH  48  53
ATOM     53  O   LIG    1        5.032 -11.247   5.061  0.00  0.00    -0.491 OA
ATOM     54  C   LIG    1        6.389 -11.613   4.835  0.00  0.00    +0.277 C 
ENDBRANCH  48  53
BRANCH  49  55
ATOM     55  O   LIG    1        2.474 -10.665   5.525  0.00  0.00    -0.491 OA
ATOM     56  C   LIG    1        1.110 -10.395   5.833  0.00  0.00    +0.277 C 
ENDBRANCH  49  55
BRANCH  52  57
ATOM     57  C   LIG    1        3.041  -5.155   5.530  0.00  0.00    +0.025 C 
BRANCH  57  58
ATOM     58  C   LIG    1        2.151  -5.837   6.563  0.00  0.00    -0.045 A 
ATOM     59  C   LIG    1        2.714  -6.529   7.635  0.00  0.00    +0.007 A 
ATOM     60  C   LIG    1        1.898  -7.183   8.553  0.00  0.00    +0.049 A 
ATOM     61  C   LIG    1        0.500  -7.155   8.419  0.00  0.00    +0.161 A 
ATOM     62  C   LIG    1       -0.074  -6.450   7.349  0.00  0.00    +0.162 A 
ATOM     63  C   LIG    1        0.761  -5.792   6.430  0.00  0.00    +0.053 A 
BRANCH  61  64
ATOM     64  O   LIG    1       -0.367  -7.795   9.288  0.00  0.00    -0.491 OA
ATOM     65  C   LIG    1        0.160  -8.544  10.378  0.00  0.00    +0.277 C 
ENDBRANCH  61  64
BRANCH  62  66
ATOM     66  O   LIG    1       -1.456  -6.453   7.263  0.00  0.00    -0.491 OA
ATOM     67  C   LIG    1       -2.092  -5.763   6.192  0.00  0.00    +0.277 C 
ENDBRANCH  62  66
ENDBRANCH  57  58
ENDBRANCH  52  57
ENDBRANCH  41  42
ENDBRANCH  40  41
ENDBRANCH  38  40
ENDBRANCH  37  38
ENDBRANCH  36  37
ENDBRANCH  35  36
ENDBRANCH   1  35
TORSDOF 26
