REMARK  Name = DB00574
REMARK                            x       y       z     vdW  Elec       q    Type
REMARK                         _______ _______ _______ _____ _____    ______ ____
ROOT
ATOM      1  C   LIG    1       -1.670   3.314  -0.917  0.00  0.00    +0.055 A 
ATOM      2  C   LIG    1       -1.583   4.005   0.299  0.00  0.00    +0.012 A 
ATOM      3  C   LIG    1       -0.968   3.416   1.403  0.00  0.00    +0.001 A 
ATOM      4  C   LIG    1       -0.431   2.134   1.303  0.00  0.00    +0.004 A 
ATOM      5  C   LIG    1       -0.505   1.433   0.096  0.00  0.00    -0.045 A 
ATOM      6  C   LIG    1       -1.131   2.025  -1.006  0.00  0.00    +0.016 A 
ENDROOT
BRANCH   1   7
ATOM      7  C   LIG    1       -2.337   3.944  -2.138  0.00  0.00    +0.417 C 
ATOM      8  F   LIG    1       -3.132   3.061  -2.744  0.00  0.00    -0.166 F 
ATOM      9  F   LIG    1       -1.395   4.331  -2.998  0.00  0.00    -0.166 F 
ATOM     10  F   LIG    1       -3.074   5.010  -1.817  0.00  0.00    -0.166 F 
ENDBRANCH   1   7
BRANCH   5  11
ATOM     11  C   LIG    1        0.090   0.035  -0.015  0.00  0.00    +0.053 C 
BRANCH  11  12
ATOM     12  C   LIG    1        1.640  -0.035   0.039  0.00  0.00    +0.055 C 
ATOM     13  C   LIG    1        2.101  -1.500   0.159  0.00  0.00    +0.024 C 
BRANCH  12  14
ATOM     14  N   LIG    1        2.271   0.485  -1.175  0.00  0.00    -0.313 NA
ATOM     15  H   LIG    1        3.149   0.012  -1.339  0.00  0.00    +0.122 HD
BRANCH  14  16
ATOM     16  C   LIG    1        2.471   1.929  -1.180  0.00  0.00    +0.078 C 
ATOM     17  C   LIG    1        3.192   2.335  -2.470  0.00  0.00    +0.020 C 
ENDBRANCH  14  16
ENDBRANCH  12  14
ENDBRANCH  11  12
ENDBRANCH   5  11
TORSDOF 5
