REMARK  Name = DB00986
REMARK                            x       y       z     vdW  Elec       q    Type
REMARK                         _______ _______ _______ _____ _____    ______ ____
ROOT
ATOM      1  C   LIG    1        1.376   0.173   0.205  0.00  0.00    +0.190 C 
ENDROOT
BRANCH   1   2
ATOM      2  C   LIG    1        1.917  -0.633   1.418  0.00  0.00    -0.005 A 
ATOM      3  C   LIG    1        1.656  -0.205   2.732  0.00  0.00    +0.007 A 
ATOM      4  C   LIG    1        2.156  -0.909   3.824  0.00  0.00    +0.000 A 
ATOM      5  C   LIG    1        2.932  -2.044   3.615  0.00  0.00    +0.000 A 
ATOM      6  C   LIG    1        3.216  -2.478   2.324  0.00  0.00    +0.000 A 
ATOM      7  C   LIG    1        2.715  -1.774   1.233  0.00  0.00    +0.007 A 
ENDBRANCH   1   2
BRANCH   1   8
ATOM      8  C   LIG    1        2.100   1.569   0.118  0.00  0.00    +0.036 C 
ATOM      9  C   LIG    1        3.637   1.486  -0.087  0.00  0.00    +0.007 C 
ATOM     10  C   LIG    1        3.940   2.181  -1.416  0.00  0.00    +0.000 C 
ATOM     11  C   LIG    1        2.843   3.231  -1.544  0.00  0.00    +0.000 C 
ATOM     12  C   LIG    1        1.600   2.530  -0.994  0.00  0.00    +0.007 C 
ENDBRANCH   1   8
BRANCH   1  13
ATOM     13  C   LIG    1       -0.169   0.301   0.379  0.00  0.00    +0.344 C 
ATOM     14  O   LIG    1       -0.700   1.350   0.755  0.00  0.00    -0.247 OA
BRANCH  13  15
ATOM     15  O   LIG    1       -0.839  -0.859   0.127  0.00  0.00    -0.461 OA
BRANCH  15  16
ATOM     16  C   LIG    1       -2.260  -0.943   0.225  0.00  0.00    +0.159 C 
ATOM     17  C   LIG    1       -2.967  -0.335  -0.988  0.00  0.00    +0.025 C 
ATOM     18  C   LIG    1       -4.197  -1.217  -1.181  0.00  0.00    -0.072 C 
ATOM     19  N   LIG    1       -3.706  -2.643  -0.840  0.00  0.00    +0.379 N 
ATOM     20  C   LIG    1       -3.013  -3.287  -2.067  0.00  0.00    -0.092 C 
ATOM     21  C   LIG    1       -4.880  -3.549  -0.403  0.00  0.00    -0.092 C 
ATOM     22  C   LIG    1       -2.685  -2.421   0.308  0.00  0.00    -0.031 C 
ENDBRANCH  15  16
ENDBRANCH  13  15
ENDBRANCH   1  13
BRANCH   1  23
ATOM     23  O   LIG    1        1.586  -0.492  -1.040  0.00  0.00    -0.373 OA
ATOM     24  H   LIG    1        1.005  -1.255  -1.078  0.00  0.00    +0.211 HD
ENDBRANCH   1  23
TORSDOF 6
