REMARK  Name = DB00241
REMARK                            x       y       z     vdW  Elec       q    Type
REMARK                         _______ _______ _______ _____ _____    ______ ____
ROOT
ATOM      1  O   LIG    1       -0.086  -0.200  -2.535  0.00  0.00    -0.274 OA
ATOM      2  C   LIG    1       -0.475  -0.659  -1.461  0.00  0.00    +0.236 C 
ATOM      3  C   LIG    1       -0.047  -0.104  -0.054  0.00  0.00    +0.127 C 
ATOM      4  C   LIG    1       -0.575  -0.913   1.185  0.00  0.00    +0.236 C 
ATOM      5  N   LIG    1       -1.417  -1.923   0.869  0.00  0.00    -0.239 N 
ATOM      6  H   LIG    1       -1.777  -2.437   1.660  0.00  0.00    +0.159 HD
ATOM      7  C   LIG    1       -1.845  -2.363  -0.339  0.00  0.00    +0.312 C 
ATOM      8  O   LIG    1       -2.625  -3.304  -0.459  0.00  0.00    -0.252 OA
ATOM      9  O   LIG    1       -0.276  -0.662   2.353  0.00  0.00    -0.274 OA
ATOM     10  N   LIG    1       -1.341  -1.696  -1.406  0.00  0.00    -0.239 N 
ATOM     11  H   LIG    1       -1.644  -2.043  -2.304  0.00  0.00    +0.159 HD
ENDROOT
BRANCH   3  12
ATOM     12  C   LIG    1       -0.653   1.341   0.051  0.00  0.00    +0.052 C 
BRANCH  12  13
ATOM     13  C   LIG    1       -2.174   1.479   0.000  0.00  0.00    -0.033 C 
ATOM     14  C   LIG    1       -2.855   2.091  -0.981  0.00  0.00    +0.004 C 
ENDBRANCH  12  13
ENDBRANCH   3  12
BRANCH   3  15
ATOM     15  C   LIG    1        1.527  -0.090   0.006  0.00  0.00    +0.029 C 
BRANCH  15  16
ATOM     16  C   LIG    1        2.334  -1.409   0.229  0.00  0.00    -0.016 C 
ATOM     17  C   LIG    1        2.177  -2.452  -0.894  0.00  0.00    +0.007 C 
ATOM     18  C   LIG    1        3.826  -1.090   0.446  0.00  0.00    +0.007 C 
ENDBRANCH  15  16
ENDBRANCH   3  15
TORSDOF 4
