REMARK  Name = DB00557
REMARK                            x       y       z     vdW  Elec       q    Type
REMARK                         _______ _______ _______ _____ _____    ______ ____
ROOT
ATOM      1  C   LIG    1       -3.404   4.552  -0.330  0.00  0.00    +0.117 C 
ENDROOT
BRANCH   1   6
ATOM      2 CL   LIG    1       -5.008   6.389   5.207  0.00  0.00    -0.084 Cl
ATOM      3  C   LIG    1       -4.556   5.857   3.628  0.00  0.00    +0.041 A 
ATOM      4  C   LIG    1       -4.847   4.555   3.228  0.00  0.00    +0.020 A 
ATOM      5  C   LIG    1       -4.482   4.126   1.955  0.00  0.00    +0.007 A 
ATOM      6  C   LIG    1       -3.824   5.000   1.079  0.00  0.00    -0.026 A 
ATOM      7  C   LIG    1       -3.539   6.305   1.490  0.00  0.00    +0.007 A 
ATOM      8  C   LIG    1       -3.904   6.734   2.764  0.00  0.00    +0.020 A 
ENDBRANCH   1   6
BRANCH   1   9
ATOM      9  C   LIG    1       -4.551   4.828  -1.315  0.00  0.00    -0.026 A 
ATOM     10  C   LIG    1       -4.571   6.039  -2.014  0.00  0.00    +0.005 A 
ATOM     11  C   LIG    1       -5.597   6.309  -2.916  0.00  0.00    +0.000 A 
ATOM     12  C   LIG    1       -6.603   5.368  -3.120  0.00  0.00    +0.000 A 
ATOM     13  C   LIG    1       -6.595   4.159  -2.428  0.00  0.00    +0.000 A 
ATOM     14  C   LIG    1       -5.569   3.888  -1.526  0.00  0.00    +0.005 A 
ENDBRANCH   1   9
BRANCH   1  15
ATOM     15  N   LIG    1       -2.881   3.164  -0.387  0.00  0.00    -0.289 NA
ATOM     16  C   LIG    1       -1.731   2.958   0.515  0.00  0.00    +0.100 C 
ATOM     17  C   LIG    1       -1.284   1.477   0.501  0.00  0.00    +0.100 C 
ATOM     18  N   LIG    1       -0.878   1.078  -0.854  0.00  0.00    -0.298 NA
ATOM     19  C   LIG    1       -2.012   1.287  -1.762  0.00  0.00    +0.100 C 
ATOM     20  C   LIG    1       -2.452   2.770  -1.743  0.00  0.00    +0.100 C 
BRANCH  18  21
ATOM     21  C   LIG    1       -0.445  -0.323  -0.915  0.00  0.00    +0.112 C 
BRANCH  21  22
ATOM     22  C   LIG    1        0.868  -0.603  -0.144  0.00  0.00    +0.175 C 
BRANCH  22  23
ATOM     23  O   LIG    1        1.940   0.273  -0.485  0.00  0.00    -0.376 OA
BRANCH  23  24
ATOM     24  C   LIG    1        2.435   0.143  -1.815  0.00  0.00    +0.187 C 
BRANCH  24  25
ATOM     25  C   LIG    1        3.659   1.052  -2.002  0.00  0.00    +0.184 C 
BRANCH  25  26
ATOM     26  O   LIG    1        4.747   0.587  -1.231  0.00  0.00    -0.393 OA
ATOM     27  H   LIG    1        4.513   0.661  -0.302  0.00  0.00    +0.209 HD
ENDBRANCH  25  26
ENDBRANCH  24  25
ENDBRANCH  23  24
ENDBRANCH  22  23
ENDBRANCH  21  22
ENDBRANCH  18  21
ENDBRANCH   1  15
TORSDOF 9
