REMARK  Name = DB00601
REMARK                            x       y       z     vdW  Elec       q    Type
REMARK                         _______ _______ _______ _____ _____    ______ ____
ROOT
ATOM      1  F   LIG    1       -5.248   1.217   4.256  0.00  0.00    -0.203 F 
ATOM      2  C   LIG    1       -4.657   0.226   3.547  0.00  0.00    +0.146 A 
ATOM      3  C   LIG    1       -3.626   0.565   2.671  0.00  0.00    +0.063 A 
ATOM      4  C   LIG    1       -2.949  -0.420   1.937  0.00  0.00    +0.042 A 
ATOM      5  C   LIG    1       -3.313  -1.759   2.128  0.00  0.00    +0.025 A 
ATOM      6  C   LIG    1       -4.345  -2.098   3.001  0.00  0.00    +0.028 A 
ATOM      7  C   LIG    1       -5.051  -1.114   3.712  0.00  0.00    +0.066 A 
ENDROOT
BRANCH   4   8
ATOM      8  N   LIG    1       -1.895  -0.097   1.049  0.00  0.00    -0.234 N 
ATOM      9  C   LIG    1       -1.805   1.073   0.278  0.00  0.00    +0.408 C 
ATOM     10  O   LIG    1       -2.494   2.092   0.274  0.00  0.00    -0.226 OA
ATOM     11  O   LIG    1       -0.738   0.938  -0.544  0.00  0.00    -0.444 OA
ATOM     12  C   LIG    1        0.042  -0.206  -0.277  0.00  0.00    +0.213 C 
ATOM     13  C   LIG    1       -0.906  -1.041   0.555  0.00  0.00    +0.163 C 
BRANCH  12  14
ATOM     14  C   LIG    1        1.330   0.252   0.452  0.00  0.00    +0.150 C 
BRANCH  14  15
ATOM     15  N   LIG    1        2.228  -0.845   0.815  0.00  0.00    -0.312 N 
ATOM     16  H   LIG    1        2.284  -1.072   1.797  0.00  0.00    +0.149 HD
ATOM     17  C   LIG    1        2.975  -1.550  -0.052  0.00  0.00    +0.210 C 
ATOM     18  C   LIG    1        3.846  -2.653   0.540  0.00  0.00    +0.109 C 
ATOM     19  O   LIG    1        2.988  -1.350  -1.266  0.00  0.00    -0.276 OA
ENDBRANCH  14  15
ENDBRANCH  12  14
ENDBRANCH   4   8
BRANCH   7  20
ATOM     20  N   LIG    1       -6.074  -1.449   4.598  0.00  0.00    -0.323 N 
ATOM     21  C   LIG    1       -6.193  -2.807   5.160  0.00  0.00    +0.133 C 
ATOM     22  C   LIG    1       -7.136  -2.866   6.381  0.00  0.00    +0.178 C 
ATOM     23  O   LIG    1       -8.413  -2.352   6.031  0.00  0.00    -0.377 OA
ATOM     24  C   LIG    1       -8.340  -1.005   5.587  0.00  0.00    +0.178 C 
ATOM     25  C   LIG    1       -7.422  -0.907   4.349  0.00  0.00    +0.133 C 
ENDBRANCH   7  20
TORSDOF 4
