REMARK  Name = DB00847
REMARK                            x       y       z     vdW  Elec       q    Type
REMARK                         _______ _______ _______ _____ _____    ______ ____
ROOT
ATOM      1  C   LIG    1       -0.012   0.021   0.000  0.00  0.00    +0.088 C 
ENDROOT
BRANCH   1   2
ATOM      2  N   LIG    1       -0.516   1.380   0.005  0.00  0.00    -0.329 NA
ATOM      3  H   LIG    1       -1.526   1.367  -0.006  0.00  0.00    +0.118 HD
ATOM      4  H   LIG    1       -0.227   1.853  -0.839  0.00  0.00    +0.118 HD
ENDBRANCH   1   2
BRANCH   1   5
ATOM      5  C   LIG    1        1.524   0.024   0.005  0.00  0.00    +0.080 C 
BRANCH   5   6
ATOM      6  S   LIG    1        2.122  -1.687  -0.005  0.00  0.00    -0.177 S 
ATOM      7  H   LIG    1        3.423  -1.382   0.003  0.00  0.00    +0.102 HD
ENDBRANCH   5   6
ENDBRANCH   1   5
TORSDOF 3
