REMARK  Name = DB00605
REMARK                            x       y       z     vdW  Elec       q    Type
REMARK                         _______ _______ _______ _____ _____    ______ ____
ROOT
ATOM      1  C   LIG    1       -0.648   1.138   0.086  0.00  0.00    -0.014 C 
ATOM      2  C   LIG    1        0.126   0.028   0.133  0.00  0.00    +0.016 C 
ATOM      3  C   LIG    1       -0.217   2.545   0.142  0.00  0.00    -0.010 A 
ATOM      4  C   LIG    1        1.034   3.157   0.295  0.00  0.00    +0.012 A 
ATOM      5  C   LIG    1        1.133   4.549   0.307  0.00  0.00    +0.039 A 
ATOM      6  C   LIG    1       -0.013   5.334   0.175  0.00  0.00    +0.124 A 
ATOM      7  F   LIG    1        0.085   6.682   0.187  0.00  0.00    -0.205 F 
ATOM      8  C   LIG    1       -1.260   4.726   0.040  0.00  0.00    +0.047 A 
ATOM      9  C   LIG    1       -1.355   3.330   0.030  0.00  0.00    -0.011 A 
ATOM     10  C   LIG    1       -2.522   2.454  -0.077  0.00  0.00    -0.025 C 
ATOM     11  C   LIG    1       -2.107   1.170  -0.008  0.00  0.00    -0.038 C 
ATOM     12  C   LIG    1       -3.013  -0.048  -0.118  0.00  0.00    +0.044 C 
ENDROOT
BRANCH   2  13
ATOM     13  C   LIG    1        1.594  -0.066   0.142  0.00  0.00    -0.024 A 
ATOM     14  C   LIG    1        2.342   0.406  -0.941  0.00  0.00    +0.009 A 
ATOM     15  C   LIG    1        3.729   0.291  -0.934  0.00  0.00    +0.018 A 
ATOM     16  C   LIG    1        4.364  -0.305   0.155  0.00  0.00    +0.039 A 
ATOM     17  C   LIG    1        3.623  -0.800   1.228  0.00  0.00    +0.018 A 
ATOM     18  C   LIG    1        2.236  -0.683   1.218  0.00  0.00    +0.009 A 
BRANCH  16  19
ATOM     19  S   LIG    1        6.181  -0.457   0.148  0.00  0.00    +0.051 S 
ATOM     20  C   LIG    1        6.508   1.299   0.646  0.00  0.00    +0.127 C 
ATOM     21  O   LIG    1        6.555  -1.327   1.349  0.00  0.00    -0.252 OA
ENDBRANCH  16  19
ENDBRANCH   2  13
BRANCH  10  22
ATOM     22  C   LIG    1       -3.937   3.019  -0.206  0.00  0.00    +0.156 C 
BRANCH  22  23
ATOM     23  C   LIG    1       -4.226   3.627  -1.587  0.00  0.00    +0.309 C 
ATOM     24  O   LIG    1       -3.452   3.588  -2.544  0.00  0.00    -0.251 OA
BRANCH  23  25
ATOM     25  O   LIG    1       -5.461   4.204  -1.614  0.00  0.00    -0.480 OA
ATOM     26  H   LIG    1       -5.665   4.587  -2.470  0.00  0.00    +0.295 HD
ENDBRANCH  23  25
ENDBRANCH  22  23
ENDBRANCH  10  22
TORSDOF 5
