REMARK  Name = DB00238
REMARK                            x       y       z     vdW  Elec       q    Type
REMARK                         _______ _______ _______ _____ _____    ______ ____
ROOT
ATOM      1  O   LIG    1       -3.859  -1.271   0.688  0.00  0.00    -0.267 OA
ATOM      2  C   LIG    1       -2.813  -0.728   0.331  0.00  0.00    +0.260 A 
ATOM      3  C   LIG    1       -1.742  -1.527  -0.393  0.00  0.00    +0.082 A 
ATOM      4  C   LIG    1       -2.165  -2.754  -0.941  0.00  0.00    +0.018 A 
ATOM      5  C   LIG    1       -1.255  -3.614  -1.548  0.00  0.00    +0.021 A 
ATOM      6  C   LIG    1        0.080  -3.235  -1.585  0.00  0.00    +0.113 A 
ATOM      7  N   LIG    1        0.518  -2.067  -1.064  0.00  0.00    -0.237 NA
ATOM      8  C   LIG    1       -0.364  -1.206  -0.469  0.00  0.00    +0.148 A 
ATOM      9  N   LIG    1        0.204   0.008  -0.030  0.00  0.00    -0.305 N 
ATOM     10  C   LIG    1       -0.394   1.270  -0.212  0.00  0.00    +0.159 A 
ATOM     11  C   LIG    1       -1.749   1.546   0.076  0.00  0.00    +0.088 A 
ATOM     12  C   LIG    1       -2.224   2.849  -0.184  0.00  0.00    -0.022 A 
ATOM     13  C   LIG    1       -3.675   3.229   0.088  0.00  0.00    +0.046 C 
ATOM     14  C   LIG    1       -1.365   3.820  -0.703  0.00  0.00    +0.025 A 
ATOM     15  C   LIG    1       -0.046   3.471  -0.956  0.00  0.00    +0.113 A 
ATOM     16  N   LIG    1        0.434   2.230  -0.723  0.00  0.00    -0.236 NA
ATOM     17  N   LIG    1       -2.612   0.574   0.594  0.00  0.00    -0.319 N 
ATOM     18  H   LIG    1       -3.407   0.967   1.076  0.00  0.00    +0.169 HD
ENDROOT
BRANCH   9  19
ATOM     19  C   LIG    1        1.620  -0.012   0.394  0.00  0.00    +0.091 C 
ATOM     20  C   LIG    1        2.043   0.746   1.639  0.00  0.00    +0.027 C 
ATOM     21  C   LIG    1        1.943  -0.757   1.674  0.00  0.00    +0.027 C 
ENDBRANCH   9  19
TORSDOF 1
