REMARK  Name = DB00983
REMARK                            x       y       z     vdW  Elec       q    Type
REMARK                         _______ _______ _______ _____ _____    ______ ____
ROOT
ATOM      1  C   LIG    1       -1.786   1.459   0.782  0.00  0.00    +0.158 C 
ENDROOT
BRANCH   1   2
ATOM      2  C   LIG    1       -2.329   2.742   0.147  0.00  0.00    -0.016 A 
ATOM      3  C   LIG    1       -2.500   3.922   0.880  0.00  0.00    +0.010 A 
ATOM      4  C   LIG    1       -2.981   5.073   0.260  0.00  0.00    +0.047 A 
ATOM      5  C   LIG    1       -3.300   5.064  -1.098  0.00  0.00    +0.138 A 
ATOM      6  C   LIG    1       -3.138   3.890  -1.853  0.00  0.00    +0.075 A 
ATOM      7  C   LIG    1       -2.646   2.738  -1.216  0.00  0.00    +0.033 A 
BRANCH   6   8
ATOM      8  N   LIG    1       -3.474   3.927  -3.223  0.00  0.00    -0.285 N 
ATOM      9  H   LIG    1       -3.520   4.856  -3.617  0.00  0.00    +0.155 HD
ATOM     10  C   LIG    1       -3.834   2.908  -4.029  0.00  0.00    +0.330 C 
ATOM     11  O   LIG    1       -3.943   1.725  -3.709  0.00  0.00    -0.279 OA
ENDBRANCH   6   8
BRANCH   5  12
ATOM     12  O   LIG    1       -3.769   6.224  -1.665  0.00  0.00    -0.505 OA
ATOM     13  H   LIG    1       -3.830   6.947  -1.037  0.00  0.00    +0.292 HD
ENDBRANCH   5  12
ENDBRANCH   1   2
BRANCH   1  14
ATOM     14  O   LIG    1       -1.896   1.425   2.196  0.00  0.00    -0.386 OA
ATOM     15  H   LIG    1       -2.827   1.398   2.427  0.00  0.00    +0.210 HD
ENDBRANCH   1  14
BRANCH   1  16
ATOM     16  C   LIG    1       -0.317   1.220   0.369  0.00  0.00    +0.117 C 
BRANCH  16  17
ATOM     17  N   LIG    1        0.086  -0.161   0.619  0.00  0.00    -0.310 NA
ATOM     18  H   LIG    1       -0.005  -0.371   1.603  0.00  0.00    +0.122 HD
BRANCH  17  19
ATOM     19  C   LIG    1        1.437  -0.486   0.160  0.00  0.00    +0.055 C 
ATOM     20  C   LIG    1        1.898  -1.680   1.016  0.00  0.00    +0.024 C 
BRANCH  19  21
ATOM     21  C   LIG    1        1.480  -0.859  -1.349  0.00  0.00    +0.053 C 
BRANCH  21  22
ATOM     22  C   LIG    1        1.292   0.304  -2.318  0.00  0.00    -0.046 A 
ATOM     23  C   LIG    1        0.150   0.375  -3.119  0.00  0.00    +0.007 A 
ATOM     24  C   LIG    1       -0.030   1.452  -3.983  0.00  0.00    +0.046 A 
ATOM     25  C   LIG    1        0.938   2.466  -4.060  0.00  0.00    +0.120 A 
ATOM     26  C   LIG    1        2.079   2.382  -3.261  0.00  0.00    +0.046 A 
ATOM     27  C   LIG    1        2.259   1.308  -2.394  0.00  0.00    +0.007 A 
BRANCH  25  28
ATOM     28  O   LIG    1        0.848   3.570  -4.887  0.00  0.00    -0.495 OA
ATOM     29  C   LIG    1       -0.286   3.712  -5.734  0.00  0.00    +0.277 C 
ENDBRANCH  25  28
ENDBRANCH  21  22
ENDBRANCH  19  21
ENDBRANCH  17  19
ENDBRANCH  16  17
ENDBRANCH   1  16
TORSDOF 10
