REMARK  Name = DB00807
REMARK                            x       y       z     vdW  Elec       q    Type
REMARK                         _______ _______ _______ _____ _____    ______ ____
ROOT
ATOM      1  C   LIG    1       -1.762   1.482  -0.055  0.00  0.00    +0.061 A 
ATOM      2  C   LIG    1       -2.467   2.692  -0.081  0.00  0.00    +0.018 A 
ATOM      3  C   LIG    1       -3.860   2.709  -0.067  0.00  0.00    +0.048 A 
ATOM      4  C   LIG    1       -4.595   1.512  -0.027  0.00  0.00    +0.141 A 
ATOM      5  C   LIG    1       -3.893   0.298  -0.002  0.00  0.00    +0.068 A 
ATOM      6  C   LIG    1       -2.496   0.285  -0.015  0.00  0.00    +0.041 A 
ENDROOT
BRANCH   5   7
ATOM      7  N   LIG    1       -4.574  -0.921   0.037  0.00  0.00    -0.355 N 
ATOM      8  H   LIG    1       -5.584  -0.922   0.037  0.00  0.00    +0.142 HD
ATOM      9  H   LIG    1       -4.051  -1.785   0.054  0.00  0.00    +0.142 HD
ENDBRANCH   5   7
BRANCH   1  10
ATOM     10  C   LIG    1       -0.261   1.500  -0.065  0.00  0.00    +0.339 C 
ATOM     11  O   LIG    1        0.406   2.539  -0.077  0.00  0.00    -0.245 OA
BRANCH  10  12
ATOM     12  O   LIG    1        0.286   0.259  -0.061  0.00  0.00    -0.460 OA
BRANCH  12  13
ATOM     13  C   LIG    1        1.697   0.073  -0.048  0.00  0.00    +0.248 C 
BRANCH  13  14
ATOM     14  C   LIG    1        2.039  -1.431   0.017  0.00  0.00    +0.125 C 
BRANCH  14  15
ATOM     15  N   LIG    1        1.461  -2.137   1.171  0.00  0.00    -0.300 NA
BRANCH  15  16
ATOM     16  C   LIG    1        2.008  -1.626   2.440  0.00  0.00    +0.081 C 
ATOM     17  C   LIG    1        1.353  -2.217   3.700  0.00  0.00    +0.020 C 
ENDBRANCH  15  16
BRANCH  15  18
ATOM     18  C   LIG    1        1.644  -3.589   1.013  0.00  0.00    +0.081 C 
ATOM     19  C   LIG    1        0.355  -4.353   1.361  0.00  0.00    +0.020 C 
ENDBRANCH  15  18
ENDBRANCH  14  15
ENDBRANCH  13  14
ENDBRANCH  12  13
ENDBRANCH  10  12
ENDBRANCH   1  10
BRANCH   4  20
ATOM     20  O   LIG    1       -5.980   1.463  -0.011  0.00  0.00    -0.490 OA
BRANCH  20  21
ATOM     21  C   LIG    1       -6.729   2.674  -0.021  0.00  0.00    +0.229 C 
BRANCH  21  22
ATOM     22  C   LIG    1       -8.225   2.329   0.023  0.00  0.00    +0.038 C 
ATOM     23  C   LIG    1       -9.126   3.571   0.021  0.00  0.00    +0.007 C 
ENDBRANCH  21  22
ENDBRANCH  20  21
ENDBRANCH   4  20
TORSDOF 11
