REMARK  Name = DB00775
REMARK                            x       y       z     vdW  Elec       q    Type
REMARK                         _______ _______ _______ _____ _____    ______ ____
ROOT
ATOM      1  C   LIG    1        2.403   0.687   0.547  0.00  0.00    -0.045 A 
ATOM      2  C   LIG    1        1.944   0.169   1.759  0.00  0.00    +0.007 A 
ATOM      3  C   LIG    1        2.396   0.705   2.962  0.00  0.00    +0.046 A 
ATOM      4  C   LIG    1        3.315   1.766   2.962  0.00  0.00    +0.121 A 
ATOM      5  C   LIG    1        3.771   2.274   1.745  0.00  0.00    +0.046 A 
ATOM      6  C   LIG    1        3.321   1.739   0.541  0.00  0.00    +0.007 A 
ENDROOT
BRANCH   1   7
ATOM      7  C   LIG    1        1.896   0.105  -0.768  0.00  0.00    +0.067 C 
BRANCH   7   8
ATOM      8  C   LIG    1        0.455   0.535  -1.138  0.00  0.00    +0.188 C 
BRANCH   8   9
ATOM      9  N   LIG    1        0.008  -0.214  -2.338  0.00  0.00    -0.180 NA
ATOM     10  H   LIG    1        0.716  -0.504  -3.018  0.00  0.00    +0.149 HD
BRANCH   9  11
ATOM     11  S   LIG    1       -1.696  -0.391  -2.763  0.00  0.00    +0.030 S 
ATOM     12  O   LIG    1       -1.756  -0.727  -4.190  0.00  0.00    -0.158 OA
ATOM     13  O   LIG    1       -2.433   0.763  -2.237  0.00  0.00    -0.158 OA
BRANCH  11  14
ATOM     14  C   LIG    1       -2.213  -1.923  -1.784  0.00  0.00    +0.185 C 
BRANCH  14  15
ATOM     15  C   LIG    1       -3.693  -2.243  -2.044  0.00  0.00    +0.024 C 
BRANCH  15  16
ATOM     16  C   LIG    1       -4.180  -3.478  -1.266  0.00  0.00    -0.002 C 
ATOM     17  C   LIG    1       -5.655  -3.808  -1.530  0.00  0.00    +0.004 C 
ENDBRANCH  15  16
ENDBRANCH  14  15
ENDBRANCH  11  14
ENDBRANCH   9  11
ENDBRANCH   8   9
BRANCH   8  18
ATOM     18  C   LIG    1        0.325   2.047  -1.424  0.00  0.00    +0.324 C 
ATOM     19  O   LIG    1        0.502   2.562  -2.528  0.00  0.00    -0.249 OA
BRANCH  18  20
ATOM     20  O   LIG    1        0.012   2.738  -0.290  0.00  0.00    -0.479 OA
ATOM     21  H   LIG    1       -0.067   3.681  -0.449  0.00  0.00    +0.295 HD
ENDBRANCH  18  20
ENDBRANCH   8  18
ENDBRANCH   7   8
ENDBRANCH   1   7
BRANCH   4  22
ATOM     22  O   LIG    1        3.816   2.363   4.103  0.00  0.00    -0.492 OA
BRANCH  22  23
ATOM     23  C   LIG    1        3.371   1.916   5.382  0.00  0.00    +0.229 C 
BRANCH  23  24
ATOM     24  C   LIG    1        4.027   2.768   6.479  0.00  0.00    +0.041 C 
BRANCH  24  25
ATOM     25  C   LIG    1        3.648   4.259   6.408  0.00  0.00    +0.004 C 
BRANCH  25  26
ATOM     26  C   LIG    1        4.298   5.098   7.527  0.00  0.00    +0.004 C 
BRANCH  26  27
ATOM     27  C   LIG    1        3.864   6.582   7.550  0.00  0.00    -0.009 C 
ATOM     28  C   LIG    1        4.413   7.323   8.783  0.00  0.00    +0.018 C 
ATOM     29  C   LIG    1        3.910   8.782   8.838  0.00  0.00    +0.081 C 
ATOM     30  N   LIG    1        4.228   9.517   7.611  0.00  0.00    -0.316 NA
ATOM     31  H   LIG    1        3.843  10.451   7.648  0.00  0.00    +0.122 HD
ATOM     32  C   LIG    1        3.821   8.845   6.373  0.00  0.00    +0.081 C 
ATOM     33  C   LIG    1        4.321   7.385   6.314  0.00  0.00    +0.018 C 
ENDBRANCH  26  27
ENDBRANCH  25  26
ENDBRANCH  24  25
ENDBRANCH  23  24
ENDBRANCH  22  23
ENDBRANCH   4  22
TORSDOF 15
