REMARK  Name = DB00896
REMARK                            x       y       z     vdW  Elec       q    Type
REMARK                         _______ _______ _______ _____ _____    ______ ____
ROOT
ATOM      1  C   LIG    1       -0.465   1.440   0.067  0.00  0.00    -0.014 C 
ATOM      2  C   LIG    1        0.459   2.199   1.089  0.00  0.00    +0.012 C 
ATOM      3  C   LIG    1       -0.587   2.237  -1.275  0.00  0.00    +0.039 C 
ATOM      4  C   LIG    1       -1.258   3.632  -1.128  0.00  0.00    +0.120 C 
ATOM      5  C   LIG    1       -2.657   3.532  -0.415  0.00  0.00    +0.035 C 
ATOM      6  C   LIG    1       -2.621   2.653   0.886  0.00  0.00    -0.000 C 
ATOM      7  C   LIG    1       -4.061   2.425   1.405  0.00  0.00    +0.008 C 
ATOM      8  C   LIG    1       -4.811   3.740   1.662  0.00  0.00    +0.032 C 
ATOM      9  C   LIG    1       -4.830   4.554   0.369  0.00  0.00    -0.056 C 
ATOM     10  C   LIG    1       -5.989   4.914  -0.234  0.00  0.00    +0.051 C 
ATOM     11  C   LIG    1       -6.091   5.662  -1.487  0.00  0.00    +0.179 C 
ATOM     12  O   LIG    1       -7.163   5.986  -1.994  0.00  0.00    -0.288 OA
ATOM     13  C   LIG    1       -4.796   5.980  -2.083  0.00  0.00    +0.047 C 
ATOM     14  C   LIG    1       -3.613   5.649  -1.530  0.00  0.00    -0.012 C 
ATOM     15  C   LIG    1       -3.424   4.898  -0.201  0.00  0.00    +0.013 C 
ATOM     16  C   LIG    1       -2.738   5.889   0.779  0.00  0.00    +0.020 C 
ATOM     17  C   LIG    1       -0.066  -0.096  -0.042  0.00  0.00    +0.034 C 
ATOM     18  C   LIG    1       -0.665  -0.841  -1.282  0.00  0.00    +0.020 C 
ATOM     19  C   LIG    1       -0.655  -0.675   1.308  0.00  0.00    -0.000 C 
ATOM     20  C   LIG    1       -1.866   0.215   1.675  0.00  0.00    +0.008 C 
ATOM     21  C   LIG    1       -0.976  -2.187   1.342  0.00  0.00    +0.008 C 
ATOM     22  C   LIG    1       -1.919   1.297   0.588  0.00  0.00    -0.000 C 
ENDROOT
BRANCH   4  23
ATOM     23  O   LIG    1       -0.363   4.565  -0.557  0.00  0.00    -0.391 OA
ATOM     24  H   LIG    1       -0.782   5.429  -0.558  0.00  0.00    +0.210 HD
ENDBRANCH   4  23
BRANCH  17  25
ATOM     25  C   LIG    1        1.482  -0.336  -0.123  0.00  0.00    +0.140 C 
ATOM     26  O   LIG    1        2.071  -1.032   0.707  0.00  0.00    -0.297 OA
BRANCH  25  27
ATOM     27  C   LIG    1        2.260   0.311  -1.286  0.00  0.00    +0.071 C 
ATOM     28  C   LIG    1        3.717  -0.168  -1.426  0.00  0.00    +0.012 C 
ENDBRANCH  25  27
ENDBRANCH  17  25
TORSDOF 3
