REMARK  Name = DB00735
REMARK                            x       y       z     vdW  Elec       q    Type
REMARK                         _______ _______ _______ _____ _____    ______ ____
ROOT
ATOM      1  N   LIG    1       -0.194  -0.051   0.336  0.00  0.00    -0.298 NA
ATOM      2  C   LIG    1       -0.915  -0.203   1.598  0.00  0.00    +0.105 C 
ENDROOT
BRANCH   1   3
ATOM      3  C   LIG    1        1.127  -0.684   0.433  0.00  0.00    +0.111 C 
BRANCH   3   4
ATOM      4  C   LIG    1        1.715  -1.100  -0.902  0.00  0.00    -0.011 C 
ATOM      5  C   LIG    1        2.918  -0.709  -1.363  0.00  0.00    +0.005 C 
BRANCH   5   6
ATOM      6  C   LIG    1        3.485  -1.025  -2.690  0.00  0.00    -0.025 A 
ATOM      7  C   LIG    1        2.679  -1.440  -3.759  0.00  0.00    +0.008 A 
ATOM      8  C   LIG    1        3.246  -1.717  -5.000  0.00  0.00    +0.001 A 
ATOM      9  C   LIG    1        4.621  -1.583  -5.175  0.00  0.00    +0.000 A 
ATOM     10  C   LIG    1        5.433  -1.174  -4.120  0.00  0.00    +0.001 A 
ATOM     11  C   LIG    1        4.864  -0.895  -2.880  0.00  0.00    +0.008 A 
ENDBRANCH   5   6
ENDBRANCH   3   4
ENDBRANCH   1   3
BRANCH   1  12
ATOM     12  C   LIG    1       -0.140   1.379  -0.012  0.00  0.00    +0.120 C 
BRANCH  12  13
ATOM     13  C   LIG    1        0.467   1.694  -1.384  0.00  0.00    -0.026 A 
ATOM     14  C   LIG    1        1.596   2.513  -1.443  0.00  0.00    +0.005 A 
ATOM     15  C   LIG    1        2.197   2.824  -2.655  0.00  0.00    +0.001 A 
ATOM     16  C   LIG    1        1.676   2.335  -3.846  0.00  0.00    +0.008 A 
ATOM     17  C   LIG    1        0.513   1.527  -3.843  0.00  0.00    -0.018 A 
ATOM     18  C   LIG    1       -0.029   1.030  -5.054  0.00  0.00    +0.008 A 
ATOM     19  C   LIG    1       -1.175   0.242  -5.042  0.00  0.00    +0.001 A 
ATOM     20  C   LIG    1       -1.808  -0.061  -3.844  0.00  0.00    +0.001 A 
ATOM     21  C   LIG    1       -1.302   0.411  -2.636  0.00  0.00    +0.009 A 
ATOM     22  C   LIG    1       -0.122   1.208  -2.599  0.00  0.00    -0.013 A 
ENDBRANCH  12  13
ENDBRANCH   1  12
TORSDOF 5
