REMARK  Name = DB00406
REMARK                            x       y       z     vdW  Elec       q    Type
REMARK                         _______ _______ _______ _____ _____    ______ ____
ROOT
ATOM      1  C   LIG    1       -0.000   0.001   0.000  0.00  0.00    -0.004 C 
ATOM      2  C   LIG    1       -0.722   1.162   0.000  0.00  0.00    -0.017 C 
ATOM      3  C   LIG    1       -2.185   1.217   0.037  0.00  0.00    +0.010 C 
ATOM      4  C   LIG    1       -2.889   2.375   0.038  0.00  0.00    +0.026 C 
ATOM      5  C   LIG    1       -2.261   3.638  -0.000  0.00  0.00    +0.037 C 
ATOM      6  C   LIG    1       -0.850   3.643  -0.039  0.00  0.00    +0.026 C 
ATOM      7  N   LIG    1       -2.976   4.789  -0.000  0.00  0.00    -0.377 N 
ATOM      8  C   LIG    1       -2.318   6.136  -0.044  0.00  0.00    +0.142 C 
ATOM      9  C   LIG    1       -4.475   4.795   0.044  0.00  0.00    +0.142 C 
ATOM     10  C   LIG    1       -0.123   2.498  -0.037  0.00  0.00    +0.010 C 
ENDROOT
BRANCH   1  14
ATOM     11  C   LIG    1        4.314  -0.135   0.215  0.00  0.00    +0.029 A 
ATOM     12  C   LIG    1        3.612  -0.803  -0.802  0.00  0.00    +0.024 A 
ATOM     13  C   LIG    1        2.223  -0.755  -0.871  0.00  0.00    +0.010 A 
ATOM     14  C   LIG    1        1.489  -0.035   0.075  0.00  0.00    -0.017 A 
ATOM     15  C   LIG    1        2.174   0.623   1.099  0.00  0.00    +0.010 A 
ATOM     16  C   LIG    1        3.563   0.576   1.167  0.00  0.00    +0.024 A 
BRANCH  11  17
ATOM     17  N   LIG    1        5.735  -0.184   0.286  0.00  0.00    -0.336 N 
ATOM     18  C   LIG    1        6.506  -0.752  -0.821  0.00  0.00    +0.129 C 
ATOM     19  C   LIG    1        6.455   0.718   1.187  0.00  0.00    +0.129 C 
ENDBRANCH  11  17
ENDBRANCH   1  14
BRANCH   1  20
ATOM     20  C   LIG    1       -0.628  -1.350  -0.074  0.00  0.00    -0.017 A 
ATOM     21  C   LIG    1       -0.308  -2.327   0.872  0.00  0.00    +0.010 A 
ATOM     22  C   LIG    1       -0.880  -3.594   0.803  0.00  0.00    +0.024 A 
ATOM     23  C   LIG    1       -1.790  -3.926  -0.215  0.00  0.00    +0.029 A 
ATOM     24  C   LIG    1       -2.095  -2.939  -1.167  0.00  0.00    +0.024 A 
ATOM     25  C   LIG    1       -1.522  -1.672  -1.099  0.00  0.00    +0.010 A 
BRANCH  23  26
ATOM     26  N   LIG    1       -2.375  -5.223  -0.286  0.00  0.00    -0.336 N 
ATOM     27  C   LIG    1       -2.209  -6.164   0.823  0.00  0.00    +0.129 C 
ATOM     28  C   LIG    1       -3.500  -5.471  -1.188  0.00  0.00    +0.129 C 
ENDBRANCH  23  26
ENDBRANCH   1  20
TORSDOF 4
