REMARK  Name = DB00201
REMARK                            x       y       z     vdW  Elec       q    Type
REMARK                         _______ _______ _______ _____ _____    ______ ____
ROOT
ATOM      1  O   LIG    1       -4.067  -0.269   0.000  0.00  0.00    -0.265 OA
ATOM      2  C   LIG    1       -2.836  -0.170   0.000  0.00  0.00    +0.282 A 
ATOM      3  C   LIG    1       -2.091   1.070   0.000  0.00  0.00    +0.151 A 
ATOM      4  C   LIG    1       -0.709   1.146   0.000  0.00  0.00    +0.168 A 
ATOM      5  N   LIG    1       -0.270   2.396   0.000  0.00  0.00    -0.218 NA
ATOM      6  C   LIG    1       -1.363   3.121   0.000  0.00  0.00    +0.202 A 
ATOM      7  N   LIG    1        0.033  -0.029   0.000  0.00  0.00    -0.280 N 
ATOM      8  C   LIG    1        1.501   0.077   0.000  0.00  0.00    +0.155 C 
ATOM      9  C   LIG    1       -0.566  -1.269   0.000  0.00  0.00    +0.333 A 
ATOM     10  O   LIG    1        0.096  -2.312   0.000  0.00  0.00    -0.246 OA
ATOM     11  N   LIG    1       -2.521   2.378   0.000  0.00  0.00    -0.328 N 
ATOM     12  C   LIG    1       -3.885   2.880   0.000  0.00  0.00    +0.150 C 
ATOM     13  N   LIG    1       -1.959  -1.244   0.000  0.00  0.00    -0.262 N 
ATOM     14  C   LIG    1       -2.635  -2.563   0.000  0.00  0.00    +0.157 C 
ENDROOT
TORSDOF 0
