REMARK  Name = DB00919
REMARK                            x       y       z     vdW  Elec       q    Type
REMARK                         _______ _______ _______ _____ _____    ______ ____
ROOT
ATOM      1  O   LIG    1        1.534  -0.001  -2.572  0.00  0.00    -0.331 OA
ATOM      2  C   LIG    1        2.053  -0.612  -3.729  0.00  0.00    +0.281 C 
ATOM      3  C   LIG    1        1.631   0.329  -4.933  0.00  0.00    +0.199 C 
ATOM      4  C   LIG    1        2.527   1.553  -5.107  0.00  0.00    +0.111 C 
ATOM      5  C   LIG    1        4.013   1.161  -4.976  0.00  0.00    +0.126 C 
ATOM      6  C   LIG    1        4.924   2.392  -5.057  0.00  0.00    +0.038 C 
ATOM      7  O   LIG    1        4.242   0.515  -3.721  0.00  0.00    -0.343 OA
ATOM      8  O   LIG    1        0.654   0.094  -5.647  0.00  0.00    -0.291 OA
ATOM      9  C   LIG    1        3.603  -0.736  -3.637  0.00  0.00    +0.319 C 
ATOM     10  O   LIG    1        3.991  -1.327  -2.421  0.00  0.00    -0.338 OA
ATOM     11  C   LIG    1        3.463  -0.638  -1.280  0.00  0.00    +0.182 C 
ATOM     12  C   LIG    1        3.989  -1.298   0.016  0.00  0.00    +0.165 C 
ATOM     13  C   LIG    1        3.333  -0.669   1.289  0.00  0.00    +0.115 C 
ATOM     14  C   LIG    1        1.780  -0.647   1.168  0.00  0.00    +0.153 C 
ATOM     15  C   LIG    1        1.274   0.024  -0.144  0.00  0.00    +0.115 C 
ATOM     16  C   LIG    1        1.923  -0.668  -1.364  0.00  0.00    +0.173 C 
ENDROOT
BRANCH  15  17
ATOM     17  N   LIG    1       -0.183   0.116  -0.273  0.00  0.00    -0.312 NA
ATOM     18  H   LIG    1       -0.597  -0.801  -0.177  0.00  0.00    +0.122 HD
ATOM     19  C   LIG    1       -0.792   1.058   0.654  0.00  0.00    +0.101 C 
ENDBRANCH  15  17
BRANCH  13  20
ATOM     20  N   LIG    1        3.756  -1.198   2.593  0.00  0.00    -0.312 NA
ATOM     21  H   LIG    1        3.079  -0.990   3.313  0.00  0.00    +0.122 HD
ATOM     22  C   LIG    1        5.104  -0.848   3.016  0.00  0.00    +0.101 C 
ENDBRANCH  13  20
BRANCH  14  23
ATOM     23  O   LIG    1        1.214  -1.938   1.353  0.00  0.00    -0.389 OA
ATOM     24  H   LIG    1        0.779  -1.962   2.209  0.00  0.00    +0.210 HD
ENDBRANCH  14  23
BRANCH  12  25
ATOM     25  O   LIG    1        5.403  -1.213   0.024  0.00  0.00    -0.387 OA
ATOM     26  H   LIG    1        5.737  -1.647  -0.765  0.00  0.00    +0.210 HD
ENDBRANCH  12  25
BRANCH   2  27
ATOM     27  O   LIG    1        1.541  -1.874  -3.946  0.00  0.00    -0.355 OA
ATOM     28  H   LIG    1        2.165  -2.509  -3.588  0.00  0.00    +0.213 HD
ENDBRANCH   2  27
TORSDOF 5
