REMARK  Name = DB00430
REMARK                            x       y       z     vdW  Elec       q    Type
REMARK                         _______ _______ _______ _____ _____    ______ ____
ROOT
ATOM      1  N   LIG    1       -0.500   1.151   0.481  0.00  0.00    -0.300 N 
ATOM      2  H   LIG    1        0.025   0.926   1.314  0.00  0.00    +0.150 HD
ATOM      3  C   LIG    1        0.157   0.972  -0.687  0.00  0.00    +0.239 C 
ATOM      4  O   LIG    1       -0.295   1.278  -1.792  0.00  0.00    -0.273 OA
ENDROOT
BRANCH   1  11
ATOM      5  N   LIG    1       -2.829   3.167  -0.411  0.00  0.00    -0.249 N 
ATOM      6  CA  LIG    1       -3.188   4.211  -1.229  0.00  0.00    +0.123 C 
ATOM      7  C   LIG    1       -2.648   5.463  -1.102  0.00  0.00    -0.021 C 
ATOM      8  C   LIG    1       -1.596   5.785  -0.024  0.00  0.00    +0.104 C 
ATOM      9  S   LIG    1       -0.563   4.348   0.428  0.00  0.00    -0.131 S 
ATOM     10  C   LIG    1       -1.970   3.253   0.790  0.00  0.00    +0.169 C 
ATOM     11  CA  LIG    1       -1.844   1.703   0.754  0.00  0.00    +0.191 C 
ATOM     12  C   LIG    1       -2.882   1.767  -0.417  0.00  0.00    +0.244 C 
ATOM     13  O   LIG    1       -3.466   0.937  -1.111  0.00  0.00    -0.273 OA
BRANCH   6  14
ATOM     14  C   LIG    1       -4.151   3.919  -2.280  0.00  0.00    +0.351 C 
ATOM     15  O   LIG    1       -3.946   4.106  -3.478  0.00  0.00    -0.244 OA
BRANCH  14  16
ATOM     16  OXT LIG    1       -5.328   3.431  -1.786  0.00  0.00    -0.476 OA
ATOM     17  HXT LIG    1       -5.960   3.234  -2.481  0.00  0.00    +0.295 HD
ENDBRANCH  14  16
ENDBRANCH   6  14
BRANCH   7  18
ATOM     18  C   LIG    1       -3.026   6.678  -1.957  0.00  0.00    +0.111 C 
BRANCH  18  19
ATOM     19  S   LIG    1       -1.787   7.083  -3.230  0.00  0.00    -0.080 S 
BRANCH  19  20
ATOM     20  C   LIG    1       -1.127   8.559  -2.529  0.00  0.00    +0.209 A 
ATOM     21  N   LIG    1        0.140   8.724  -2.235  0.00  0.00    -0.102 NA
ATOM     22  N   LIG    1        0.250  10.008  -1.711  0.00  0.00    -0.022 NA
ATOM     23  N   LIG    1       -0.982  10.630  -1.720  0.00  0.00    -0.043 NA
ATOM     24  N   LIG    1       -1.811   9.725  -2.251  0.00  0.00    -0.223 N 
ATOM     25  C   LIG    1       -3.218  10.051  -2.424  0.00  0.00    +0.177 C 
ENDBRANCH  19  20
ENDBRANCH  18  19
ENDBRANCH   7  18
ENDBRANCH   1  11
BRANCH   3  26
ATOM     26  CA  LIG    1        1.603   0.410  -0.569  0.00  0.00    +0.190 C 
BRANCH  26  27
ATOM     27  C   LIG    1        1.807  -0.774   0.369  0.00  0.00    -0.018 A 
ATOM     28  C   LIG    1        3.035  -0.902   1.030  0.00  0.00    +0.009 A 
ATOM     29  C   LIG    1        3.268  -1.970   1.892  0.00  0.00    +0.046 A 
ATOM     30  C   LIG    1        2.272  -2.923   2.095  0.00  0.00    +0.117 A 
ATOM     31  C   LIG    1        1.047  -2.814   1.442  0.00  0.00    +0.046 A 
ATOM     32  C   LIG    1        0.815  -1.745   0.582  0.00  0.00    +0.009 A 
BRANCH  30  33
ATOM     33  O   LIG    1        2.502  -3.974   2.942  0.00  0.00    -0.507 OA
ATOM     34  H   LIG    1        1.755  -4.574   3.005  0.00  0.00    +0.292 HD
ENDBRANCH  30  33
ENDBRANCH  26  27
BRANCH  26  35
ATOM     35  N   LIG    1        2.263   0.166  -1.867  0.00  0.00    -0.296 N 
ATOM     36  H   LIG    1        2.885   0.904  -2.162  0.00  0.00    +0.150 HD
ATOM     37  C   LIG    1        2.007  -0.819  -2.758  0.00  0.00    +0.250 C 
ATOM     38  O   LIG    1        1.173  -1.704  -2.566  0.00  0.00    -0.270 OA
BRANCH  37  39
ATOM     39  C   LIG    1        2.829  -0.785  -4.027  0.00  0.00    +0.096 A 
ATOM     40  C   LIG    1        3.194   0.442  -4.606  0.00  0.00    +0.127 A 
ATOM     41  N   LIG    1        3.915   0.551  -5.750  0.00  0.00    -0.259 NA
ATOM     42  C   LIG    1        4.300  -0.593  -6.367  0.00  0.00    +0.042 A 
ATOM     43  C   LIG    1        5.100  -0.417  -7.643  0.00  0.00    +0.066 C 
ATOM     44  C   LIG    1        3.987  -1.860  -5.872  0.00  0.00    +0.069 A 
ATOM     45  C   LIG    1        3.246  -1.959  -4.691  0.00  0.00    +0.132 A 
BRANCH  45  46
ATOM     46  O   LIG    1        2.966  -3.217  -4.216  0.00  0.00    -0.506 OA
ATOM     47  H   LIG    1        3.311  -3.915  -4.776  0.00  0.00    +0.292 HD
ENDBRANCH  45  46
ENDBRANCH  37  39
ENDBRANCH  26  35
ENDBRANCH   3  26
TORSDOF 12
