REMARK  Name = DB00586
REMARK                            x       y       z     vdW  Elec       q    Type
REMARK                         _______ _______ _______ _____ _____    ______ ____
ROOT
ATOM      1  C   LIG    1        1.708   0.232  -0.349  0.00  0.00    +0.035 A 
ATOM      2  C   LIG    1        2.305   1.215   0.454  0.00  0.00    +0.023 A 
ATOM      3  C   LIG    1        3.631   1.091   0.863  0.00  0.00    +0.002 A 
ATOM      4  C   LIG    1        4.377  -0.019   0.477  0.00  0.00    +0.000 A 
ATOM      5  C   LIG    1        3.797  -1.004  -0.320  0.00  0.00    +0.006 A 
ATOM      6  C   LIG    1        2.466  -0.890  -0.743  0.00  0.00    -0.016 A 
ENDROOT
BRANCH   1   7
ATOM      7  N   LIG    1        0.369   0.359  -0.759  0.00  0.00    -0.312 N 
ATOM      8  H   LIG    1        0.014  -0.390  -1.336  0.00  0.00    +0.152 HD
BRANCH   7  16
ATOM      9 CL   LIG    1       -1.317  -0.255   1.683  0.00  0.00    -0.082 Cl
ATOM     10  C   LIG    1       -1.393   1.176   0.708  0.00  0.00    +0.063 A 
ATOM     11  C   LIG    1       -2.313   2.167   1.055  0.00  0.00    +0.022 A 
ATOM     12  C   LIG    1       -2.409   3.334   0.299  0.00  0.00    +0.003 A 
ATOM     13  C   LIG    1       -1.585   3.514  -0.810  0.00  0.00    +0.022 A 
ATOM     14  C   LIG    1       -0.660   2.531  -1.168  0.00  0.00    +0.063 A 
ATOM     15 CL   LIG    1        0.340   2.808  -2.556  0.00  0.00    -0.082 Cl
ATOM     16  C   LIG    1       -0.556   1.354  -0.407  0.00  0.00    +0.068 A 
ENDBRANCH   7  16
ENDBRANCH   1   7
BRANCH   6  17
ATOM     17  C   LIG    1        1.871  -2.014  -1.600  0.00  0.00    +0.157 C 
BRANCH  17  18
ATOM     18  C   LIG    1        0.991  -2.989  -0.802  0.00  0.00    +0.309 C 
ATOM     19  O   LIG    1        0.932  -3.028   0.426  0.00  0.00    -0.251 OA
BRANCH  18  20
ATOM     20  O   LIG    1        0.310  -3.827  -1.636  0.00  0.00    -0.480 OA
ATOM     21  H   LIG    1       -0.239  -4.450  -1.154  0.00  0.00    +0.295 HD
ENDBRANCH  18  20
ENDBRANCH  17  18
ENDBRANCH   6  17
TORSDOF 5
