REMARK  Name = DB00395
REMARK                            x       y       z     vdW  Elec       q    Type
REMARK                         _______ _______ _______ _____ _____    ______ ____
ROOT
ATOM      1  C   LIG    1       -0.043   0.028   0.020  0.00  0.00    +0.036 C 
ATOM      2  C   LIG    1       -0.624   1.450   0.228  0.00  0.00    +0.018 C 
ENDROOT
BRANCH   1   3
ATOM      3  C   LIG    1        1.504   0.123  -0.066  0.00  0.00    +0.243 C 
BRANCH   3   4
ATOM      4  O   LIG    1        2.076   0.598   1.150  0.00  0.00    -0.450 OA
BRANCH   4   5
ATOM      5  C   LIG    1        3.408   0.744   1.279  0.00  0.00    +0.400 C 
ATOM      6  N   LIG    1        3.684   1.210   2.556  0.00  0.00    -0.279 N 
ATOM      7  H   LIG    1        2.911   1.382   3.182  0.00  0.00    +0.152 HD
ATOM      8  O   LIG    1        4.234   0.498   0.397  0.00  0.00    -0.226 OA
BRANCH   6   9
ATOM      9  C   LIG    1        5.037   1.511   3.029  0.00  0.00    +0.070 C 
ATOM     10  C   LIG    1        5.616   2.793   2.398  0.00  0.00    +0.027 C 
ATOM     11  C   LIG    1        5.071   1.564   4.566  0.00  0.00    +0.027 C 
ENDBRANCH   6   9
ENDBRANCH   4   5
ENDBRANCH   3   4
ENDBRANCH   1   3
BRANCH   1  12
ATOM     12  C   LIG    1       -0.547  -0.530  -1.338  0.00  0.00    +0.243 C 
BRANCH  12  13
ATOM     13  O   LIG    1       -1.964  -0.687  -1.359  0.00  0.00    -0.450 OA
BRANCH  13  14
ATOM     14  C   LIG    1       -2.586  -1.186  -2.442  0.00  0.00    +0.398 C 
ATOM     15  N   LIG    1       -3.941  -1.239  -2.206  0.00  0.00    -0.295 N 
ATOM     16  H   LIG    1       -4.301  -0.925  -1.317  0.00  0.00    +0.148 HD
ATOM     17  H   LIG    1       -4.554  -1.593  -2.925  0.00  0.00    +0.148 HD
ATOM     18  O   LIG    1       -2.034  -1.542  -3.484  0.00  0.00    -0.227 OA
ENDBRANCH  13  14
ENDBRANCH  12  13
ENDBRANCH   1  12
BRANCH   1  19
ATOM     19  C   LIG    1       -0.487  -0.884   1.206  0.00  0.00    +0.013 C 
BRANCH  19  20
ATOM     20  C   LIG    1        0.010  -2.346   1.168  0.00  0.00    -0.003 C 
ATOM     21  C   LIG    1       -0.470  -3.167   2.372  0.00  0.00    +0.004 C 
ENDBRANCH  19  20
ENDBRANCH   1  19
TORSDOF 9
