REMARK  Name = DB00251
REMARK                            x       y       z     vdW  Elec       q    Type
REMARK                         _______ _______ _______ _____ _____    ______ ____
ROOT
ATOM      1  C   LIG    1        3.681  -2.744   0.083  0.00  0.00    +0.219 C 
ATOM      2  O   LIG    1        3.083  -2.663   1.338  0.00  0.00    -0.341 OA
ATOM      3  C   LIG    1        1.704  -2.393   1.209  0.00  0.00    +0.198 C 
ATOM      4  C   LIG    1        1.568  -1.864  -0.220  0.00  0.00    +0.185 C 
ATOM      5  O   LIG    1        2.873  -1.974  -0.752  0.00  0.00    -0.334 OA
ENDROOT
BRANCH   1   6
ATOM      6  C   LIG    1        3.704  -4.229  -0.405  0.00  0.00    +0.031 A 
ATOM      7  C   LIG    1        3.156  -4.566  -1.654  0.00  0.00    +0.012 A 
ATOM      8  C   LIG    1        3.157  -5.884  -2.107  0.00  0.00    +0.020 A 
ATOM      9  C   LIG    1        3.705  -6.891  -1.318  0.00  0.00    +0.042 A 
ATOM     10 CL   LIG    1        3.708  -8.524  -1.878  0.00  0.00    -0.083 Cl
ATOM     11  C   LIG    1        4.248  -6.578  -0.074  0.00  0.00    +0.040 A 
ATOM     12  C   LIG    1        4.249  -5.260   0.388  0.00  0.00    +0.051 A 
ATOM     13 CL   LIG    1        4.925  -4.965   1.954  0.00  0.00    -0.083 Cl
ENDBRANCH   1   6
BRANCH   4  14
ATOM     14  C   LIG    1        1.150  -0.387  -0.316  0.00  0.00    +0.263 C 
BRANCH  14  15
ATOM     15  O   LIG    1       -0.176  -0.238   0.187  0.00  0.00    -0.489 OA
BRANCH  15  16
ATOM     16  C   LIG    1       -0.774   1.008   0.153  0.00  0.00    +0.121 A 
ATOM     17  C   LIG    1       -0.164   2.166  -0.350  0.00  0.00    +0.047 A 
ATOM     18  C   LIG    1       -0.852   3.376  -0.353  0.00  0.00    +0.027 A 
ATOM     19  C   LIG    1       -2.156   3.463   0.149  0.00  0.00    +0.030 A 
ATOM     20  C   LIG    1       -2.756   2.302   0.658  0.00  0.00    +0.027 A 
ATOM     21  C   LIG    1       -2.071   1.090   0.657  0.00  0.00    +0.047 A 
BRANCH  19  22
ATOM     22  N   LIG    1       -2.827   4.684   0.130  0.00  0.00    -0.327 N 
ATOM     23  C   LIG    1       -3.997   4.950   0.988  0.00  0.00    +0.120 C 
ATOM     24  C   LIG    1       -4.324   6.453   1.146  0.00  0.00    +0.103 C 
ATOM     25  N   LIG    1       -4.521   7.080  -0.165  0.00  0.00    -0.297 NA
ATOM     26  C   LIG    1       -3.272   6.944  -0.918  0.00  0.00    +0.103 C 
ATOM     27  C   LIG    1       -2.916   5.455  -1.125  0.00  0.00    +0.120 C 
BRANCH  25  28
ATOM     28  C   LIG    1       -5.002   8.474  -0.116  0.00  0.00    +0.051 C 
ATOM     29  C   LIG    1       -6.470   8.525   0.355  0.00  0.00    +0.024 C 
ATOM     30  C   LIG    1       -4.110   9.444   0.695  0.00  0.00    +0.024 C 
ENDBRANCH  25  28
ENDBRANCH  19  22
ENDBRANCH  15  16
ENDBRANCH  14  15
ENDBRANCH   4  14
BRANCH   1  31
ATOM     31  C   LIG    1        5.069  -2.081   0.104  0.00  0.00    +0.215 C 
BRANCH  31  32
ATOM     32  N   LIG    1        5.030  -0.717   0.622  0.00  0.00    -0.246 N 
ATOM     33  C   LIG    1        5.181  -0.278   1.909  0.00  0.00    +0.219 A 
ATOM     34  N   LIG    1        5.006   1.017   1.966  0.00  0.00    -0.223 NA
ATOM     35  C   LIG    1        4.744   1.312   0.702  0.00  0.00    +0.244 A 
ATOM     36  N   LIG    1        4.732   0.321  -0.165  0.00  0.00    -0.158 NA
ENDBRANCH  31  32
ENDBRANCH   1  31
TORSDOF 8
