REMARK  Name = DB00664
REMARK                            x       y       z     vdW  Elec       q    Type
REMARK                         _______ _______ _______ _____ _____    ______ ____
ROOT
ATOM      1  S   LIG    1       -0.069  -0.019   0.000  0.00  0.00    +0.074 S 
ATOM      2  O   LIG    1       -0.526  -0.588   1.274  0.00  0.00    -0.150 OA
ATOM      3  O   LIG    1       -0.526  -0.588  -1.274  0.00  0.00    -0.150 OA
ENDROOT
BRANCH   1   4
ATOM      4  C   LIG    1       -0.434   1.731   0.000  0.00  0.00    +0.109 A 
ATOM      5  C   LIG    1       -0.566   2.413  -1.212  0.00  0.00    +0.030 A 
ATOM      6  C   LIG    1       -0.841   3.778  -1.211  0.00  0.00    +0.024 A 
ATOM      7  C   LIG    1       -0.978   4.457   0.000  0.00  0.00    +0.025 A 
ATOM      8  C   LIG    1       -0.841   3.778   1.211  0.00  0.00    +0.024 A 
ATOM      9  C   LIG    1       -0.567   2.413   1.212  0.00  0.00    +0.030 A 
BRANCH   7  10
ATOM     10  N   LIG    1       -1.251   5.824   0.000  0.00  0.00    -0.358 N 
ATOM     11  H   LIG    1       -1.348   6.311   0.879  0.00  0.00    +0.142 HD
ATOM     12  H   LIG    1       -1.348   6.311  -0.879  0.00  0.00    +0.142 HD
ENDBRANCH   7  10
ENDBRANCH   1   4
BRANCH   1  13
ATOM     13  N   LIG    1        1.703  -0.117   0.000  0.00  0.00    -0.195 N 
ATOM     14  H   LIG    1        2.231   0.743   0.000  0.00  0.00    +0.175 HD
BRANCH  13  15
ATOM     15  C   LIG    1        2.411  -1.328   0.000  0.00  0.00    +0.201 A 
ATOM     16  C   LIG    1        3.816  -1.315   0.000  0.00  0.00    +0.257 A 
ATOM     17  N   LIG    1        4.528  -2.482   0.000  0.00  0.00    -0.217 NA
ATOM     18  C   LIG    1        3.833  -3.648   0.000  0.00  0.00    +0.134 A 
ATOM     19  C   LIG    1        2.439  -3.660   0.000  0.00  0.00    +0.133 A 
ATOM     20  N   LIG    1        1.724  -2.506   0.000  0.00  0.00    -0.233 NA
BRANCH  16  21
ATOM     21  O   LIG    1        4.494  -0.106   0.000  0.00  0.00    -0.477 OA
ATOM     22  C   LIG    1        5.920  -0.098   0.000  0.00  0.00    +0.279 C 
ENDBRANCH  16  21
ENDBRANCH  13  15
ENDBRANCH   1  13
TORSDOF 5
