REMARK  Name = DB00296
REMARK                            x       y       z     vdW  Elec       q    Type
REMARK                         _______ _______ _______ _____ _____    ______ ____
ROOT
ATOM      1  N   LIG    1       -0.645  -1.400  -0.123  0.00  0.00    -0.284 N 
ATOM      2  H   LIG    1       -0.053  -2.094  -0.555  0.00  0.00    +0.155 HD
ATOM      3  C   LIG    1       -0.109  -0.190   0.143  0.00  0.00    +0.234 C 
ATOM      4  O   LIG    1       -0.772   0.784   0.513  0.00  0.00    -0.274 OA
ENDROOT
BRANCH   1   5
ATOM      5  C   LIG    1       -2.002  -1.744   0.016  0.00  0.00    +0.039 A 
ATOM      6  C   LIG    1       -2.694  -2.194  -1.127  0.00  0.00    -0.029 A 
ATOM      7  C   LIG    1       -2.018  -2.277  -2.492  0.00  0.00    +0.045 C 
ATOM      8  C   LIG    1       -4.040  -2.557  -1.023  0.00  0.00    +0.005 A 
ATOM      9  C   LIG    1       -4.698  -2.488   0.201  0.00  0.00    +0.001 A 
ATOM     10  C   LIG    1       -4.014  -2.066   1.337  0.00  0.00    +0.005 A 
ATOM     11  C   LIG    1       -2.667  -1.698   1.264  0.00  0.00    -0.029 A 
ATOM     12  C   LIG    1       -1.960  -1.324   2.563  0.00  0.00    +0.045 C 
ENDBRANCH   1   5
BRANCH   3  13
ATOM     13  C   LIG    1        1.429  -0.075  -0.049  0.00  0.00    +0.143 C 
ATOM     14  C   LIG    1        2.070  -0.318   1.349  0.00  0.00    +0.028 C 
ATOM     15  C   LIG    1        3.582  -0.068   1.355  0.00  0.00    +0.003 C 
ATOM     16  C   LIG    1        3.873   1.321   0.782  0.00  0.00    +0.015 C 
ATOM     17  C   LIG    1        3.248   1.505  -0.612  0.00  0.00    +0.085 C 
ATOM     18  N   LIG    1        1.797   1.238  -0.645  0.00  0.00    -0.292 NA
BRANCH  18  19
ATOM     19  C   LIG    1        1.275   1.418  -2.015  0.00  0.00    +0.085 C 
BRANCH  19  20
ATOM     20  C   LIG    1        1.360   2.873  -2.523  0.00  0.00    +0.012 C 
ATOM     21  C   LIG    1        0.508   3.117  -3.776  0.00  0.00    +0.005 C 
ENDBRANCH  19  20
ENDBRANCH  18  19
ENDBRANCH   3  13
TORSDOF 4
