REMARK  Name = DB00313
REMARK                            x       y       z     vdW  Elec       q    Type
REMARK                         _______ _______ _______ _____ _____    ______ ____
ROOT
ATOM      1  C   LIG    1        1.536   0.051   0.148  0.00  0.00    +0.098 C 
ENDROOT
BRANCH   1   2
ATOM      2  C   LIG    1        2.095   0.842   1.352  0.00  0.00    +0.308 C 
ATOM      3  O   LIG    1        1.876   0.532   2.522  0.00  0.00    -0.251 OA
BRANCH   2   4
ATOM      4  O   LIG    1        2.850   1.909   0.960  0.00  0.00    -0.480 OA
ATOM      5  H   LIG    1        3.198   2.401   1.707  0.00  0.00    +0.295 HD
ENDBRANCH   2   4
ENDBRANCH   1   2
BRANCH   1   6
ATOM      6  C   LIG    1       -0.016   0.074   0.107  0.00  0.00    +0.014 C 
BRANCH   6   8
ATOM      7  C   LIG    1       -2.180   1.430  -0.142  0.00  0.00    +0.004 C 
ATOM      8  C   LIG    1       -0.651   1.476  -0.015  0.00  0.00    -0.003 C 
ENDBRANCH   6   8
ENDBRANCH   1   6
BRANCH   1   9
ATOM      9  C   LIG    1        2.075  -1.404   0.107  0.00  0.00    +0.014 C 
BRANCH   9  10
ATOM     10  C   LIG    1        3.609  -1.536  -0.015  0.00  0.00    -0.003 C 
ATOM     11  C   LIG    1        4.075  -2.993  -0.141  0.00  0.00    +0.004 C 
ENDBRANCH   9  10
ENDBRANCH   1   9
TORSDOF 6
