REMARK  Name = DB00719
REMARK                            x       y       z     vdW  Elec       q    Type
REMARK                         _______ _______ _______ _____ _____    ______ ____
ROOT
ATOM      1  N   LIG    1        0.011   0.024   0.086  0.00  0.00    -0.305 NA
ATOM      2  C   LIG    1        1.462   0.099   0.221  0.00  0.00    +0.104 C 
ATOM      3  C   LIG    1       -0.578  -0.733   1.194  0.00  0.00    +0.088 C 
ATOM      4  C   LIG    1       -2.113  -0.842   1.085  0.00  0.00    +0.047 C 
ATOM      5  C   LIG    1       -2.747   0.551   0.977  0.00  0.00    -0.057 C 
ATOM      6  C   LIG    1       -3.693   1.040   1.829  0.00  0.00    +0.007 C 
ATOM      7  C   LIG    1       -4.207   0.229   2.951  0.00  0.00    +0.075 A 
ATOM      8  C   LIG    1       -3.885   0.566   4.273  0.00  0.00    -0.021 A 
ATOM      9  C   LIG    1       -4.406  -0.236   5.296  0.00  0.00    +0.007 A 
ATOM     10  C   LIG    1       -5.218  -1.327   4.983  0.00  0.00    +0.020 A 
ATOM     11  C   LIG    1       -5.499  -1.582   3.641  0.00  0.00    +0.111 A 
ATOM     12  C   LIG    1       -3.038   1.803   4.525  0.00  0.00    +0.042 C 
ATOM     13  C   LIG    1       -3.699   3.140   4.123  0.00  0.00    +0.040 C 
ATOM     14  C   LIG    1       -4.331   3.343   2.735  0.00  0.00    -0.039 A 
ATOM     15  C   LIG    1       -4.961   4.573   2.499  0.00  0.00    +0.004 A 
ATOM     16  C   LIG    1       -5.565   4.866   1.280  0.00  0.00    +0.000 A 
ATOM     17  C   LIG    1       -5.555   3.921   0.263  0.00  0.00    +0.001 A 
ATOM     18  C   LIG    1       -4.935   2.693   0.470  0.00  0.00    +0.009 A 
ATOM     19  N   LIG    1       -5.011  -0.821   2.630  0.00  0.00    -0.255 NA
ATOM     20  C   LIG    1       -4.306   2.386   1.687  0.00  0.00    -0.013 A 
ATOM     21  C   LIG    1       -2.111   1.333  -0.180  0.00  0.00    +0.047 C 
ATOM     22  C   LIG    1       -0.573   1.361  -0.035  0.00  0.00    +0.088 C 
ENDROOT
TORSDOF 0
