REMARK  Name = DB00914
REMARK                            x       y       z     vdW  Elec       q    Type
REMARK                         _______ _______ _______ _____ _____    ______ ____
ROOT
ATOM      1  C   LIG    1        1.484  -0.006  -0.225  0.00  0.00    +0.388 C 
ATOM      2  N   LIG    1        2.259  -0.977   0.010  0.00  0.00    -0.129 NA
ATOM      3  H   LIG    1        3.212  -0.690   0.180  0.00  0.00    +0.306 HD
ENDROOT
BRANCH   1   4
ATOM      4  N   LIG    1        0.087  -0.136  -0.497  0.00  0.00    -0.275 N 
ATOM      5  H   LIG    1       -0.487   0.673  -0.310  0.00  0.00    +0.258 HD
BRANCH   4   6
ATOM      6  C   LIG    1       -0.602  -1.414  -0.334  0.00  0.00    +0.200 C 
BRANCH   6   7
ATOM      7  C   LIG    1       -1.010  -1.657   1.132  0.00  0.00    +0.072 C 
BRANCH   7   8
ATOM      8  C   LIG    1       -1.763  -2.965   1.317  0.00  0.00    -0.044 A 
ATOM      9  C   LIG    1       -1.056  -4.153   1.522  0.00  0.00    +0.004 A 
ATOM     10  C   LIG    1       -1.745  -5.351   1.688  0.00  0.00    +0.000 A 
ATOM     11  C   LIG    1       -3.138  -5.358   1.648  0.00  0.00    +0.000 A 
ATOM     12  C   LIG    1       -3.848  -4.177   1.443  0.00  0.00    +0.000 A 
ATOM     13  C   LIG    1       -3.160  -2.978   1.277  0.00  0.00    +0.004 A 
ENDBRANCH   7   8
ENDBRANCH   6   7
ENDBRANCH   4   6
ENDBRANCH   1   4
BRANCH   1  14
ATOM     14  N   LIG    1        1.975   1.334  -0.239  0.00  0.00    -0.186 N 
ATOM     15  H   LIG    1        2.979   1.399  -0.310  0.00  0.00    +0.271 HD
BRANCH  14  16
ATOM     16  C   LIG    1        1.363   2.516   0.275  0.00  0.00    +0.385 C 
ATOM     17  N   LIG    1        0.234   2.591   0.838  0.00  0.00    -0.129 NA
ATOM     18  H   LIG    1        0.002   3.530   1.129  0.00  0.00    +0.306 HD
BRANCH  16  19
ATOM     19  N   LIG    1        2.183   3.648   0.094  0.00  0.00    -0.289 N 
ATOM     20  H   LIG    1        3.013   3.618  -0.480  0.00  0.00    +0.255 HD
ATOM     21  H   LIG    1        1.864   4.577   0.329  0.00  0.00    +0.255 HD
ENDBRANCH  16  19
ENDBRANCH  14  16
ENDBRANCH   1  14
TORSDOF 7
