REMARK  Name = DB00759
REMARK                            x       y       z     vdW  Elec       q    Type
REMARK                         _______ _______ _______ _____ _____    ______ ____
ROOT
ATOM      1  C   LIG    1       -4.408   4.551   1.064  0.00  0.00    -0.001 A 
ATOM      2  C   LIG    1       -4.013   3.089   0.768  0.00  0.00    +0.096 C 
ATOM      3  C   LIG    1       -4.480   2.099   1.875  0.00  0.00    +0.047 C 
ATOM      4  C   LIG    1       -2.459   3.019   0.590  0.00  0.00    +0.062 C 
ATOM      5  C   LIG    1       -1.996   3.976  -0.531  0.00  0.00    +0.047 C 
ATOM      6  C   LIG    1       -2.508   5.376  -0.457  0.00  0.00    +0.197 C 
ATOM      7  O   LIG    1       -1.989   6.305  -1.080  0.00  0.00    -0.287 OA
ATOM      8  C   LIG    1       -1.113   3.595  -1.505  0.00  0.00    +0.141 C 
ATOM      9  C   LIG    1       -0.407   2.210  -1.596  0.00  0.00    +0.190 C 
ATOM     10  C   LIG    1       -1.018   1.330  -2.732  0.00  0.00    +0.211 C 
ATOM     11  O   LIG    1       -1.324   1.833  -3.818  0.00  0.00    -0.288 OA
ATOM     12  C   LIG    1       -1.220  -0.125  -2.462  0.00  0.00    +0.121 C 
ATOM     13  C   LIG    1       -0.726  -0.686  -1.319  0.00  0.00    +0.127 C 
ATOM     14  C   LIG    1        0.061   0.057  -0.219  0.00  0.00    +0.129 C 
ATOM     15  C   LIG    1       -0.486   1.522  -0.195  0.00  0.00    +0.061 C 
ATOM     16  C   LIG    1       -1.931   1.578   0.349  0.00  0.00    +0.020 C 
ATOM     17  C   LIG    1       -3.683   5.627   0.480  0.00  0.00    +0.069 A 
ATOM     18  C   LIG    1       -4.101   6.955   0.769  0.00  0.00    +0.128 A 
ATOM     19  C   LIG    1       -5.192   7.203   1.597  0.00  0.00    +0.046 A 
ATOM     20  C   LIG    1       -5.899   6.154   2.154  0.00  0.00    +0.004 A 
ATOM     21  C   LIG    1       -5.510   4.851   1.885  0.00  0.00    +0.007 A 
ENDROOT
BRANCH  12  22
ATOM     22  C   LIG    1       -1.962  -0.968  -3.393  0.00  0.00    +0.248 C 
ATOM     23  O   LIG    1       -2.923  -1.657  -3.051  0.00  0.00    -0.270 OA
ATOM     24  N   LIG    1       -1.519  -0.973  -4.656  0.00  0.00    -0.325 N 
ATOM     25  H   LIG    1       -0.735  -0.395  -4.923  0.00  0.00    +0.145 HD
ATOM     26  H   LIG    1       -1.977  -1.543  -5.351  0.00  0.00    +0.145 HD
ENDBRANCH  12  22
BRANCH  14  27
ATOM     27  N   LIG    1        1.534  -0.073  -0.362  0.00  0.00    -0.299 NA
ATOM     28  C   LIG    1        2.011  -1.446  -0.548  0.00  0.00    +0.105 C 
ATOM     29  C   LIG    1        2.243   0.474   0.797  0.00  0.00    +0.105 C 
ENDBRANCH  14  27
BRANCH   2  30
ATOM     30  O   LIG    1       -4.660   2.636  -0.412  0.00  0.00    -0.384 OA
ATOM     31  H   LIG    1       -5.600   2.564  -0.234  0.00  0.00    +0.211 HD
ENDBRANCH   2  30
BRANCH   8  32
ATOM     32  O   LIG    1       -0.715   4.391  -2.546  0.00  0.00    -0.507 OA
ATOM     33  H   LIG    1       -0.086   3.912  -3.090  0.00  0.00    +0.292 HD
ENDBRANCH   8  32
BRANCH   9  34
ATOM     34  O   LIG    1        0.966   2.400  -1.924  0.00  0.00    -0.373 OA
ATOM     35  H   LIG    1        1.429   1.570  -1.777  0.00  0.00    +0.211 HD
ENDBRANCH   9  34
BRANCH  13  36
ATOM     36  O   LIG    1       -0.912  -1.984  -0.931  0.00  0.00    -0.509 OA
ATOM     37  H   LIG    1       -0.473  -2.135  -0.091  0.00  0.00    +0.292 HD
ENDBRANCH  13  36
BRANCH  18  38
ATOM     38  O   LIG    1       -3.474   8.076   0.278  0.00  0.00    -0.506 OA
ATOM     39  H   LIG    1       -3.884   8.893   0.571  0.00  0.00    +0.292 HD
ENDBRANCH  18  38
TORSDOF 7
