REMARK  Name = DB00640
REMARK                            x       y       z     vdW  Elec       q    Type
REMARK                         _______ _______ _______ _____ _____    ______ ____
ROOT
ATOM      1  O4*   A A  1        2.156  -0.332  -0.321  0.00  0.00    -0.346 OA
ATOM      2  C4*   A A  1        3.347  -0.868   0.241  0.00  0.00    +0.177 C 
ATOM      3  C3*   A A  1        3.128  -0.614   1.733  0.00  0.00    +0.178 C 
ATOM      4  C2*   A A  1        2.471   0.767   1.763  0.00  0.00    +0.195 C 
ATOM      5  C1*   A A  1        1.627   0.681   0.483  0.00  0.00    +0.253 C 
ENDROOT
BRANCH   5   6
ATOM      6  N9    A A  1        0.132   0.489   0.658  0.00  0.00    -0.286 N 
ATOM      7  C8    A A  1       -0.521  -0.219   1.603  0.00  0.00    +0.203 A 
ATOM      8  N7    A A  1       -1.825  -0.188   1.482  0.00  0.00    -0.231 NA
ATOM      9  C5    A A  1       -2.040   0.576   0.400  0.00  0.00    +0.147 A 
ATOM     10  C6    A A  1       -3.234   0.982  -0.240  0.00  0.00    +0.147 A 
ATOM     11  N1    A A  1       -3.137   1.773  -1.343  0.00  0.00    -0.219 NA
ATOM     12  C2    A A  1       -1.912   2.121  -1.760  0.00  0.00    +0.225 A 
ATOM     13  N3    A A  1       -0.716   1.803  -1.240  0.00  0.00    -0.216 NA
ATOM     14  C4    A A  1       -0.844   1.016  -0.143  0.00  0.00    +0.167 A 
BRANCH  10  15
ATOM     15  N6    A A  1       -4.501   0.611   0.207  0.00  0.00    -0.341 N 
ATOM     16  H61   A A  1       -5.316   0.934  -0.293  0.00  0.00    +0.144 HD
ATOM     17  H62   A A  1       -4.585   0.019   1.021  0.00  0.00    +0.144 HD
ENDBRANCH  10  15
ENDBRANCH   5   6
BRANCH   4  18
ATOM     18  O2*   A A  1        3.373   1.860   1.671  0.00  0.00    -0.385 OA
ATOM     19  H2*   A A  1        3.852   1.934   2.500  0.00  0.00    +0.210 HD
ENDBRANCH   4  18
BRANCH   3  20
ATOM     20  O3*   A A  1        4.314  -0.712   2.502  0.00  0.00    -0.386 OA
ATOM     21  H3*   A A  1        4.093  -0.578   3.426  0.00  0.00    +0.210 HD
ENDBRANCH   3  20
BRANCH   2  22
ATOM     22  C5*   A A  1        3.492  -2.351  -0.148  0.00  0.00    +0.190 C 
BRANCH  22  23
ATOM     23  O5*   A A  1        3.595  -2.498  -1.550  0.00  0.00    -0.392 OA
ATOM     24  H5*   A A  1        3.681  -3.431  -1.755  0.00  0.00    +0.210 HD
ENDBRANCH  22  23
ENDBRANCH   2  22
TORSDOF 6
