REMARK  Name = DB00658
REMARK                            x       y       z     vdW  Elec       q    Type
REMARK                         _______ _______ _______ _____ _____    ______ ____
ROOT
ATOM      1  N   LIG    1       -0.074   0.162  -0.172  0.00  0.00    -0.327 NA
ATOM      2  H   LIG    1       -0.354  -0.391  -0.969  0.00  0.00    +0.119 HD
ATOM      3  H   LIG    1       -0.229   1.127  -0.428  0.00  0.00    +0.119 HD
ENDROOT
BRANCH   1   4
ATOM      4  C   LIG    1        1.335  -0.046   0.091  0.00  0.00    +0.104 C 
BRANCH   4   5
ATOM      5  C   LIG    1        1.823   0.651   1.344  0.00  0.00    -0.020 C 
ATOM      6  C   LIG    1        2.397   0.033   2.388  0.00  0.00    +0.005 C 
ENDBRANCH   4   5
ENDBRANCH   1   4
TORSDOF 2
