REMARK  Name = DB00367
REMARK                            x       y       z     vdW  Elec       q    Type
REMARK                         _______ _______ _______ _____ _____    ______ ____
ROOT
ATOM      1  C   LIG    1       -0.597  -0.499   1.436  0.00  0.00    +0.132 C 
ATOM      2  C   LIG    1       -0.395   0.759   2.338  0.00  0.00    +0.049 C 
ATOM      3  C   LIG    1       -0.242   1.982   1.412  0.00  0.00    +0.008 C 
ATOM      4  C   LIG    1       -0.447   1.423   0.001  0.00  0.00    +0.002 C 
ATOM      5  C   LIG    1        0.078   2.221  -1.229  0.00  0.00    -0.003 C 
ATOM      6  C   LIG    1       -0.440   3.671  -1.250  0.00  0.00    +0.008 C 
ATOM      7  C   LIG    1        0.185   4.447  -2.417  0.00  0.00    +0.031 C 
ATOM      8  C   LIG    1       -0.167   3.769  -3.742  0.00  0.00    -0.063 C 
ATOM      9  C   LIG    1       -0.673   4.474  -4.780  0.00  0.00    +0.045 C 
ATOM     10  C   LIG    1       -0.970   3.916  -6.090  0.00  0.00    +0.156 C 
ATOM     11  C   LIG    1       -0.378   2.531  -6.368  0.00  0.00    +0.079 C 
ATOM     12  C   LIG    1       -0.460   1.631  -5.121  0.00  0.00    +0.016 C 
ATOM     13  O   LIG    1       -1.556   4.566  -6.953  0.00  0.00    -0.293 OA
ATOM     14  C   LIG    1        0.133   2.248  -3.818  0.00  0.00    +0.019 C 
ATOM     15  C   LIG    1       -0.377   1.505  -2.538  0.00  0.00    -0.000 C 
ATOM     16  C   LIG    1        0.044   0.004  -2.513  0.00  0.00    +0.005 C 
ATOM     17  C   LIG    1       -0.486  -0.720  -1.251  0.00  0.00    +0.011 C 
ATOM     18  C   LIG    1        0.055  -0.056   0.059  0.00  0.00    +0.014 C 
ENDROOT
BRANCH   1  19
ATOM     19  O   LIG    1        0.014  -1.622   2.043  0.00  0.00    -0.376 OA
ATOM     20  H   LIG    1       -0.022  -2.355   1.424  0.00  0.00    +0.211 HD
ENDBRANCH   1  19
BRANCH   1  21
ATOM     21  C   LIG    1       -2.040  -0.853   1.365  0.00  0.00    -0.070 C 
ATOM     22  C   LIG    1       -3.229  -1.127   1.307  0.00  0.00    +0.007 C 
ENDBRANCH   1  21
BRANCH  18  23
ATOM     23  C   LIG    1        1.634  -0.156   0.132  0.00  0.00    +0.007 C 
ATOM     24  C   LIG    1        2.268  -1.538  -0.133  0.00  0.00    +0.004 C 
ENDBRANCH  18  23
TORSDOF 3
