REMARK  Name = DB00924
REMARK                            x       y       z     vdW  Elec       q    Type
REMARK                         _______ _______ _______ _____ _____    ______ ____
ROOT
ATOM      1  C   LIG    1        1.806  -2.439  -1.023  0.00  0.00    -0.017 C 
ATOM      2  C   LIG    1        1.435  -2.910  -2.241  0.00  0.00    -0.013 C 
ATOM      3  C   LIG    1        1.540  -2.093  -3.481  0.00  0.00    -0.010 A 
ATOM      4  C   LIG    1        2.766  -1.493  -3.806  0.00  0.00    +0.009 A 
ATOM      5  C   LIG    1        2.899  -0.682  -4.930  0.00  0.00    +0.001 A 
ATOM      6  C   LIG    1        1.802  -0.460  -5.755  0.00  0.00    +0.001 A 
ATOM      7  C   LIG    1        0.582  -1.062  -5.460  0.00  0.00    +0.008 A 
ATOM      8  C   LIG    1        0.439  -1.889  -4.339  0.00  0.00    -0.017 A 
ATOM      9  C   LIG    1       -0.870  -2.535  -4.133  0.00  0.00    +0.009 C 
ATOM     10  C   LIG    1       -1.144  -3.718  -3.556  0.00  0.00    +0.009 C 
ATOM     11  C   LIG    1       -0.219  -4.696  -2.951  0.00  0.00    -0.017 A 
ATOM     12  C   LIG    1       -0.594  -6.045  -2.981  0.00  0.00    +0.008 A 
ATOM     13  C   LIG    1        0.224  -7.028  -2.430  0.00  0.00    +0.001 A 
ATOM     14  C   LIG    1        1.429  -6.672  -1.835  0.00  0.00    +0.001 A 
ATOM     15  C   LIG    1        1.812  -5.333  -1.794  0.00  0.00    +0.009 A 
ATOM     16  C   LIG    1        1.005  -4.328  -2.352  0.00  0.00    -0.010 A 
ENDROOT
BRANCH   1  17
ATOM     17  C   LIG    1        2.265  -1.034  -0.644  0.00  0.00    +0.043 C 
BRANCH  17  18
ATOM     18  C   LIG    1        1.350  -0.328   0.382  0.00  0.00    +0.088 C 
BRANCH  18  19
ATOM     19  N   LIG    1       -0.058  -0.249  -0.025  0.00  0.00    -0.308 NA
ATOM     20  C   LIG    1       -0.865   0.266   1.078  0.00  0.00    +0.104 C 
ATOM     21  C   LIG    1       -0.250   0.600  -1.200  0.00  0.00    +0.104 C 
ENDBRANCH  18  19
ENDBRANCH  17  18
ENDBRANCH   1  17
TORSDOF 3
