REMARK  Name = DB00569
REMARK                            x       y       z     vdW  Elec       q    Type
REMARK                         _______ _______ _______ _____ _____    ______ ____
ROOT
ATOM      1  C   LIG    1       -1.398   0.057  -2.166  0.00  0.00    +0.206 C 
ATOM      2  C   LIG    1       -1.111   1.552  -2.455  0.00  0.00    +0.185 C 
ATOM      3  C   LIG    1       -0.223   2.191  -1.351  0.00  0.00    +0.181 C 
ATOM      4  O   LIG    1       -0.761   1.924  -0.047  0.00  0.00    -0.341 OA
ATOM      5  C   LIG    1       -0.881   0.561   0.273  0.00  0.00    +0.272 C 
ATOM      6  C   LIG    1       -1.862  -0.109  -0.701  0.00  0.00    +0.168 C 
ENDROOT
BRANCH   6   7
ATOM      7  N   LIG    1       -1.929  -1.548  -0.367  0.00  0.00    -0.159 NA
ATOM      8  H   LIG    1       -1.045  -2.058  -0.282  0.00  0.00    +0.151 HD
BRANCH   7   9
ATOM      9  S   LIG    1       -3.345  -2.210   0.432  0.00  0.00    +0.149 S 
ATOM     10  O   LIG    1       -3.122  -3.644   0.638  0.00  0.00    -0.130 OA
ATOM     11  O   LIG    1       -4.542  -1.705  -0.250  0.00  0.00    -0.130 OA
BRANCH   9  12
ATOM     12  O   LIG    1       -3.239  -1.464   1.912  0.00  0.00    -0.240 OA
ATOM     13  H   LIG    1       -2.597  -1.926   2.485  0.00  0.00    +0.246 HD
ENDBRANCH   9  12
ENDBRANCH   7   9
ENDBRANCH   6   7
BRANCH   1  14
ATOM     14  O   LIG    1       -2.405  -0.382  -3.074  0.00  0.00    -0.208 OA
BRANCH  14  15
ATOM     15  S   LIG    1       -2.215  -1.849  -3.853  0.00  0.00    +0.208 S 
ATOM     16  O   LIG    1       -2.585  -2.928  -2.930  0.00  0.00    -0.118 OA
ATOM     17  O   LIG    1       -0.924  -1.853  -4.548  0.00  0.00    -0.118 OA
BRANCH  15  18
ATOM     18  O   LIG    1       -3.414  -1.709  -4.993  0.00  0.00    -0.231 OA
ATOM     19  H   LIG    1       -3.153  -1.083  -5.696  0.00  0.00    +0.247 HD
ENDBRANCH  15  18
ENDBRANCH  14  15
ENDBRANCH   1  14
BRANCH   5  20
ATOM     20  O   LIG    1        0.351  -0.108   0.223  0.00  0.00    -0.341 OA
BRANCH  20  21
ATOM     21  C   LIG    1        1.358   0.299   1.155  0.00  0.00    +0.192 C 
ATOM     22  C   LIG    1        1.482  -0.720   2.309  0.00  0.00    +0.182 C 
ATOM     23  C   LIG    1        2.664  -0.359   3.235  0.00  0.00    +0.238 C 
ATOM     24  C   LIG    1        3.950  -0.198   2.419  0.00  0.00    +0.285 C 
ATOM     25  O   LIG    1        3.765   0.792   1.433  0.00  0.00    -0.331 OA
ATOM     26  C   LIG    1        2.732   0.547   0.463  0.00  0.00    +0.260 C 
BRANCH  22  27
ATOM     27  O   LIG    1        0.281  -0.786   3.056  0.00  0.00    -0.386 OA
ATOM     28  H   LIG    1        0.129   0.069   3.466  0.00  0.00    +0.210 HD
ENDBRANCH  22  27
BRANCH  26  29
ATOM     29  C   LIG    1        3.209  -0.529  -0.554  0.00  0.00    +0.337 C 
ATOM     30  O   LIG    1        4.345  -1.001  -0.562  0.00  0.00    -0.248 OA
BRANCH  29  31
ATOM     31  O   LIG    1        2.264  -0.831  -1.490  0.00  0.00    -0.479 OA
ATOM     32  H   LIG    1        2.572  -1.480  -2.125  0.00  0.00    +0.295 HD
ENDBRANCH  29  31
ENDBRANCH  26  29
BRANCH  23  33
ATOM     33  O   LIG    1        2.856  -1.374   4.215  0.00  0.00    -0.205 OA
BRANCH  33  34
ATOM     34  S   LIG    1        2.754  -0.936   5.822  0.00  0.00    +0.208 S 
ATOM     35  O   LIG    1        1.383  -0.492   6.097  0.00  0.00    -0.118 OA
ATOM     36  O   LIG    1        3.908  -0.090   6.144  0.00  0.00    -0.118 OA
BRANCH  34  37
ATOM     37  O   LIG    1        2.980  -2.420   6.531  0.00  0.00    -0.231 OA
ATOM     38  H   LIG    1        3.914  -2.698   6.464  0.00  0.00    +0.247 HD
ENDBRANCH  34  37
ENDBRANCH  33  34
ENDBRANCH  23  33
BRANCH  24  39
ATOM     39  O   LIG    1        4.949   0.184   3.321  0.00  0.00    -0.340 OA
BRANCH  39  40
ATOM     40  C   LIG    1        6.311   0.279   2.880  0.00  0.00    +0.183 C 
ATOM     41  C   LIG    1        6.591   1.507   1.979  0.00  0.00    +0.181 C 
ATOM     42  O   LIG    1        8.001   1.625   1.735  0.00  0.00    -0.341 OA
ATOM     43  C   LIG    1        8.560   0.532   1.043  0.00  0.00    +0.271 C 
ATOM     44  C   LIG    1        8.373  -0.766   1.859  0.00  0.00    +0.165 C 
ATOM     45  C   LIG    1        6.894  -1.002   2.240  0.00  0.00    +0.169 C 
BRANCH  43  46
ATOM     46  O   LIG    1        7.997   0.383  -0.233  0.00  0.00    -0.353 OA
ATOM     47  C   LIG    1        8.358   1.404  -1.154  0.00  0.00    +0.197 C 
ENDBRANCH  43  46
BRANCH  44  48
ATOM     48  N   LIG    1        8.842  -1.904   1.036  0.00  0.00    -0.160 NA
ATOM     49  H   LIG    1        8.495  -1.971   0.075  0.00  0.00    +0.151 HD
BRANCH  48  50
ATOM     50  S   LIG    1       10.284  -2.806   1.468  0.00  0.00    +0.149 S 
ATOM     51  O   LIG    1       10.461  -3.873   0.478  0.00  0.00    -0.130 OA
ATOM     52  O   LIG    1       10.245  -3.086   2.908  0.00  0.00    -0.130 OA
BRANCH  50  53
ATOM     53  O   LIG    1       11.457  -1.663   1.198  0.00  0.00    -0.240 OA
ATOM     54  H   LIG    1       11.585  -1.106   1.989  0.00  0.00    +0.246 HD
ENDBRANCH  50  53
ENDBRANCH  48  50
ENDBRANCH  44  48
BRANCH  45  55
ATOM     55  O   LIG    1        6.767  -2.092   3.137  0.00  0.00    -0.387 OA
ATOM     56  H   LIG    1        7.265  -1.893   3.933  0.00  0.00    +0.210 HD
ENDBRANCH  45  55
BRANCH  41  57
ATOM     57  C   LIG    1        6.090   2.827   2.605  0.00  0.00    +0.230 C 
BRANCH  57  58
ATOM     58  O   LIG    1        6.176   3.933   1.714  0.00  0.00    -0.213 OA
BRANCH  58  59
ATOM     59  S   LIG    1        5.087   4.018   0.447  0.00  0.00    +0.208 S 
ATOM     60  O   LIG    1        3.726   3.856   0.972  0.00  0.00    -0.118 OA
ATOM     61  O   LIG    1        5.589   3.181  -0.647  0.00  0.00    -0.118 OA
BRANCH  59  62
ATOM     62  O   LIG    1        5.290   5.607   0.011  0.00  0.00    -0.231 OA
ATOM     63  H   LIG    1        4.488   6.128   0.209  0.00  0.00    +0.247 HD
ENDBRANCH  59  62
ENDBRANCH  58  59
ENDBRANCH  57  58
ENDBRANCH  41  57
ENDBRANCH  39  40
ENDBRANCH  24  39
ENDBRANCH  20  21
ENDBRANCH   5  20
BRANCH   3  64
ATOM     64  C   LIG    1       -0.098   3.725  -1.443  0.00  0.00    +0.230 C 
BRANCH  64  65
ATOM     65  O   LIG    1        0.594   4.113  -2.616  0.00  0.00    -0.213 OA
BRANCH  65  66
ATOM     66  S   LIG    1        1.388   5.578  -2.586  0.00  0.00    +0.208 S 
ATOM     67  O   LIG    1        2.467   5.500  -1.595  0.00  0.00    -0.118 OA
ATOM     68  O   LIG    1        0.384   6.646  -2.539  0.00  0.00    -0.118 OA
BRANCH  66  69
ATOM     69  O   LIG    1        2.067   5.557  -4.101  0.00  0.00    -0.231 OA
ATOM     70  H   LIG    1        2.864   4.993  -4.114  0.00  0.00    +0.247 HD
ENDBRANCH  66  69
ENDBRANCH  65  66
ENDBRANCH  64  65
ENDBRANCH   3  64
BRANCH   2  71
ATOM     71  O   LIG    1       -0.686   1.824  -3.798  0.00  0.00    -0.340 OA
BRANCH  71  72
ATOM     72  C   LIG    1        0.483   1.234  -4.300  0.00  0.00    +0.283 C 
ATOM     73  C   LIG    1        0.469   1.446  -5.821  0.00  0.00    +0.201 C 
ATOM     74  C   LIG    1        1.782   0.910  -6.444  0.00  0.00    +0.180 C 
ATOM     75  C   LIG    1        3.044   1.415  -5.706  0.00  0.00    +0.192 C 
ATOM     76  C   LIG    1        2.846   1.268  -4.171  0.00  0.00    +0.260 C 
ATOM     77  O   LIG    1        1.612   1.869  -3.772  0.00  0.00    -0.331 OA
BRANCH  73  78
ATOM     78  O   LIG    1       -0.665   0.836  -6.414  0.00  0.00    -0.384 OA
ATOM     79  H   LIG    1       -0.503   0.748  -7.356  0.00  0.00    +0.210 HD
ENDBRANCH  73  78
BRANCH  74  80
ATOM     80  O   LIG    1        1.847   1.218  -7.827  0.00  0.00    -0.386 OA
ATOM     81  H   LIG    1        1.870   2.172  -7.930  0.00  0.00    +0.210 HD
ENDBRANCH  74  80
BRANCH  76  82
ATOM     82  C   LIG    1        3.911   2.060  -3.393  0.00  0.00    +0.337 C 
ATOM     83  O   LIG    1        3.894   3.284  -3.272  0.00  0.00    -0.248 OA
BRANCH  82  84
ATOM     84  O   LIG    1        4.852   1.245  -2.837  0.00  0.00    -0.479 OA
ATOM     85  H   LIG    1        5.503   1.734  -2.327  0.00  0.00    +0.295 HD
ENDBRANCH  82  84
ENDBRANCH  76  82
BRANCH  75  86
ATOM     86  O   LIG    1        4.146   0.642  -6.195  0.00  0.00    -0.341 OA
BRANCH  86  87
ATOM     87  C   LIG    1        5.405   1.260  -6.298  0.00  0.00    +0.272 C 
ATOM     88  O   LIG    1        6.272   0.820  -5.286  0.00  0.00    -0.341 OA
ATOM     89  C   LIG    1        6.501  -0.598  -5.267  0.00  0.00    +0.180 C 
ATOM     90  C   LIG    1        7.159  -1.057  -6.595  0.00  0.00    +0.176 C 
ATOM     91  C   LIG    1        6.351  -0.559  -7.817  0.00  0.00    +0.169 C 
ATOM     92  C   LIG    1        6.021   0.945  -7.673  0.00  0.00    +0.165 C 
BRANCH  90  93
ATOM     93  O   LIG    1        7.335  -2.463  -6.646  0.00  0.00    -0.387 OA
ATOM     94  H   LIG    1        6.472  -2.881  -6.665  0.00  0.00    +0.210 HD
ENDBRANCH  90  93
BRANCH  91  95
ATOM     95  O   LIG    1        7.061  -0.812  -9.019  0.00  0.00    -0.387 OA
ATOM     96  H   LIG    1        7.907  -0.360  -8.977  0.00  0.00    +0.210 HD
ENDBRANCH  91  95
BRANCH  92  97
ATOM     97  N   LIG    1        5.036   1.334  -8.710  0.00  0.00    -0.160 NA
ATOM     98  H   LIG    1        4.189   0.768  -8.813  0.00  0.00    +0.151 HD
BRANCH  97  99
ATOM     99  S   LIG    1        5.430   2.516  -9.948  0.00  0.00    +0.149 S 
ATOM    100  O   LIG    1        6.168   3.618  -9.323  0.00  0.00    -0.130 OA
ATOM    101  O   LIG    1        4.220   2.752 -10.742  0.00  0.00    -0.130 OA
BRANCH  99 102
ATOM    102  O   LIG    1        6.490   1.651 -10.888  0.00  0.00    -0.240 OA
ATOM    103  H   LIG    1        7.396   1.708 -10.532  0.00  0.00    +0.246 HD
ENDBRANCH  99 102
ENDBRANCH  97  99
ENDBRANCH  92  97
BRANCH  89 104
ATOM    104  C   LIG    1        7.341  -0.883  -4.006  0.00  0.00    +0.230 C 
BRANCH 104 105
ATOM    105  O   LIG    1        7.552  -2.270  -3.812  0.00  0.00    -0.213 OA
BRANCH 105 106
ATOM    106  S   LIG    1        8.098  -2.735  -2.308  0.00  0.00    +0.208 S 
ATOM    107  O   LIG    1        6.986  -2.599  -1.361  0.00  0.00    -0.118 OA
ATOM    108  O   LIG    1        9.394  -2.091  -2.063  0.00  0.00    -0.118 OA
BRANCH 106 109
ATOM    109  O   LIG    1        8.357  -4.351  -2.583  0.00  0.00    -0.231 OA
ATOM    110  H   LIG    1        9.304  -4.570  -2.492  0.00  0.00    +0.247 HD
ENDBRANCH 106 109
ENDBRANCH 105 106
ENDBRANCH 104 105
ENDBRANCH  89 104
ENDBRANCH  86  87
ENDBRANCH  75  86
ENDBRANCH  71  72
ENDBRANCH   2  71
TORSDOF 46
