REMARK  Name = DB00276
REMARK                            x       y       z     vdW  Elec       q    Type
REMARK                         _______ _______ _______ _____ _____    ______ ____
ROOT
ATOM      1  N   LIG    1        5.488   0.009   0.445  0.00  0.00    -0.311 N 
ATOM      2  H   LIG    1        5.997   0.547  -0.241  0.00  0.00    +0.152 HD
ENDROOT
BRANCH   1   3
ATOM      3  C   LIG    1        6.292  -0.872   1.198  0.00  0.00    +0.050 A 
ATOM      4  C   LIG    1        6.013  -1.173   2.574  0.00  0.00    +0.022 A 
ATOM      5  C   LIG    1        4.970  -0.574   3.341  0.00  0.00    +0.012 A 
ATOM      6  C   LIG    1        4.762  -0.933   4.670  0.00  0.00    +0.001 A 
ATOM      7  C   LIG    1        5.578  -1.875   5.283  0.00  0.00    +0.002 A 
ATOM      8  C   LIG    1        6.626  -2.463   4.581  0.00  0.00    +0.028 A 
ATOM      9  C   LIG    1        6.863  -2.114   3.229  0.00  0.00    +0.073 A 
ATOM     10  N   LIG    1        7.919  -2.686   2.602  0.00  0.00    -0.247 NA
ATOM     11  C   LIG    1        8.224  -2.367   1.321  0.00  0.00    +0.073 A 
ATOM     12  C   LIG    1        9.359  -2.977   0.733  0.00  0.00    +0.028 A 
ATOM     13  C   LIG    1        9.710  -2.684  -0.580  0.00  0.00    +0.002 A 
ATOM     14  C   LIG    1        8.953  -1.792  -1.330  0.00  0.00    +0.001 A 
ATOM     15  C   LIG    1        7.831  -1.178  -0.780  0.00  0.00    +0.012 A 
ATOM     16  C   LIG    1        7.438  -1.448   0.565  0.00  0.00    +0.022 A 
ENDBRANCH   1   3
BRANCH   1  20
ATOM     17  C   LIG    1        1.319   0.143  -0.150  0.00  0.00    +0.051 A 
ATOM     18  C   LIG    1        1.898  -0.965   0.464  0.00  0.00    +0.026 A 
ATOM     19  C   LIG    1        3.275  -1.011   0.664  0.00  0.00    +0.029 A 
ATOM     20  C   LIG    1        4.092   0.055   0.262  0.00  0.00    +0.074 A 
ATOM     21  C   LIG    1        3.520   1.168  -0.379  0.00  0.00    +0.143 A 
ATOM     22  C   LIG    1        2.127   1.198  -0.577  0.00  0.00    +0.072 A 
BRANCH  17  23
ATOM     23  N   LIG    1       -0.063   0.174  -0.353  0.00  0.00    -0.221 N 
ATOM     24  H   LIG    1       -0.453  -0.756  -0.387  0.00  0.00    +0.173 HD
BRANCH  23  25
ATOM     25  S   LIG    1       -1.044   1.256   0.648  0.00  0.00    +0.040 S 
ATOM     26  C   LIG    1       -2.693   1.244  -0.266  0.00  0.00    +0.218 C 
ATOM     27  O   LIG    1       -0.458   2.598   0.558  0.00  0.00    -0.155 OA
ATOM     28  O   LIG    1       -1.210   0.593   1.945  0.00  0.00    -0.155 OA
ENDBRANCH  23  25
ENDBRANCH  17  23
BRANCH  21  29
ATOM     29  O   LIG    1        4.367   2.189  -0.783  0.00  0.00    -0.493 OA
ATOM     30  C   LIG    1        3.825   3.344  -1.414  0.00  0.00    +0.277 C 
ENDBRANCH  21  29
ENDBRANCH   1  20
TORSDOF 5
