REMARK  Name = DB00943
REMARK                            x       y       z     vdW  Elec       q    Type
REMARK                         _______ _______ _______ _____ _____    ______ ____
ROOT
ATOM      1  N   LIG    1        0.084  -0.132  -0.009  0.00  0.00    -0.273 N 
ATOM      2  C   LIG    1       -0.629  -1.290  -0.300  0.00  0.00    +0.352 A 
ATOM      3  N   LIG    1       -2.038  -1.173  -0.317  0.00  0.00    -0.178 NA
ATOM      4  C   LIG    1       -2.651  -0.074  -0.039  0.00  0.00    +0.123 A 
ATOM      5  C   LIG    1       -1.927   1.117   0.292  0.00  0.00    +0.061 A 
ATOM      6  O   LIG    1       -0.020  -2.340  -0.511  0.00  0.00    -0.244 OA
ATOM      7  C   LIG    1       -0.589   1.034   0.290  0.00  0.00    +0.096 A 
ENDROOT
BRANCH   1  12
ATOM      8  O   LIG    1        2.142   1.042   0.340  0.00  0.00    -0.351 OA
ATOM      9  C   LIG    1        3.435   1.221  -0.231  0.00  0.00    +0.146 C 
ATOM     10  C   LIG    1        3.609   0.002  -1.137  0.00  0.00    +0.038 C 
ATOM     11  C   LIG    1        2.197  -0.478  -1.415  0.00  0.00    +0.057 C 
ATOM     12  C   LIG    1        1.549  -0.162  -0.067  0.00  0.00    +0.224 C 
BRANCH   9  13
ATOM     13  C   LIG    1        3.511   2.607  -0.908  0.00  0.00    +0.187 C 
BRANCH  13  14
ATOM     14  O   LIG    1        2.647   2.719  -2.023  0.00  0.00    -0.392 OA
ATOM     15  H   LIG    1        2.741   3.599  -2.396  0.00  0.00    +0.210 HD
ENDBRANCH  13  14
ENDBRANCH   9  13
ENDBRANCH   1  12
BRANCH   4  16
ATOM     16  N   LIG    1       -3.990  -0.005  -0.055  0.00  0.00    -0.343 N 
ATOM     17  H   LIG    1       -4.539  -0.822  -0.280  0.00  0.00    +0.144 HD
ATOM     18  H   LIG    1       -4.462   0.862   0.156  0.00  0.00    +0.144 HD
ENDBRANCH   4  16
TORSDOF 4
