REMARK  Name = DB00366
REMARK                            x       y       z     vdW  Elec       q    Type
REMARK                         _______ _______ _______ _____ _____    ______ ____
ROOT
ATOM      1  C   LIG    1       -0.661   1.290   0.078  0.00  0.00    +0.133 C 
ATOM      2  C   LIG    1       -0.433   1.968   1.458  0.00  0.00    +0.053 C 
ENDROOT
BRANCH   1   3
ATOM      3  C   LIG    1        0.061   1.982  -1.105  0.00  0.00    +0.077 A 
ATOM      4  C   LIG    1        0.805   3.165  -0.961  0.00  0.00    +0.026 A 
ATOM      5  C   LIG    1        1.436   3.707  -2.083  0.00  0.00    +0.003 A 
ATOM      6  C   LIG    1        1.316   3.069  -3.317  0.00  0.00    +0.020 A 
ATOM      7  C   LIG    1        0.561   1.899  -3.389  0.00  0.00    +0.111 A 
ATOM      8  N   LIG    1       -0.060   1.357  -2.312  0.00  0.00    -0.257 NA
ENDBRANCH   1   3
BRANCH   1   9
ATOM      9  C   LIG    1       -2.188   1.247  -0.165  0.00  0.00    -0.010 A 
ATOM     10  C   LIG    1       -2.859   2.397  -0.607  0.00  0.00    +0.007 A 
ATOM     11  C   LIG    1       -4.234   2.377  -0.823  0.00  0.00    +0.000 A 
ATOM     12  C   LIG    1       -4.951   1.207  -0.594  0.00  0.00    +0.000 A 
ATOM     13  C   LIG    1       -4.305   0.057  -0.149  0.00  0.00    +0.000 A 
ATOM     14  C   LIG    1       -2.929   0.078   0.067  0.00  0.00    +0.007 A 
ENDBRANCH   1   9
BRANCH   1  15
ATOM     15  O   LIG    1       -0.189  -0.069   0.142  0.00  0.00    -0.362 OA
BRANCH  15  16
ATOM     16  C   LIG    1        1.172  -0.323   0.499  0.00  0.00    +0.177 C 
BRANCH  16  17
ATOM     17  C   LIG    1        1.508  -1.801   0.214  0.00  0.00    +0.112 C 
BRANCH  17  18
ATOM     18  N   LIG    1        1.321  -2.190  -1.189  0.00  0.00    -0.306 NA
ATOM     19  C   LIG    1        2.276  -1.535  -2.081  0.00  0.00    +0.104 C 
ATOM     20  C   LIG    1        1.454  -3.638  -1.323  0.00  0.00    +0.104 C 
ENDBRANCH  17  18
ENDBRANCH  16  17
ENDBRANCH  15  16
ENDBRANCH   1  15
TORSDOF 6
