REMARK  Name = DB00445
REMARK                            x       y       z     vdW  Elec       q    Type
REMARK                         _______ _______ _______ _____ _____    ______ ____
ROOT
ATOM      1  C   LIG    1        1.312  -0.100  -0.093  0.00  0.00    +0.158 C 
ATOM      2  C   LIG    1        1.739  -1.583  -0.174  0.00  0.00    +0.030 A 
ATOM      3  C   LIG    1        1.533  -2.302  -1.365  0.00  0.00    +0.134 A 
ATOM      4  C   LIG    1        1.804  -3.686  -1.467  0.00  0.00    +0.078 A 
ATOM      5  C   LIG    1        1.573  -4.443  -2.765  0.00  0.00    +0.202 C 
ATOM      6  C   LIG    1        2.343  -5.730  -2.943  0.00  0.00    +0.075 A 
ATOM      7  C   LIG    1        2.590  -6.281  -4.227  0.00  0.00    +0.132 A 
ATOM      8  C   LIG    1        3.296  -7.491  -4.330  0.00  0.00    +0.046 A 
ATOM      9  C   LIG    1        3.761  -8.147  -3.200  0.00  0.00    +0.004 A 
ATOM     10  C   LIG    1        3.533  -7.604  -1.944  0.00  0.00    +0.012 A 
ATOM     11  C   LIG    1        2.830  -6.401  -1.795  0.00  0.00    +0.037 A 
ATOM     12  C   LIG    1        2.623  -5.848  -0.415  0.00  0.00    +0.198 C 
ATOM     13  O   LIG    1        2.851  -6.544   0.578  0.00  0.00    -0.286 OA
ATOM     14  O   LIG    1        0.898  -3.974  -3.684  0.00  0.00    -0.286 OA
ATOM     15  C   LIG    1        2.303  -4.367  -0.329  0.00  0.00    +0.078 A 
ATOM     16  C   LIG    1        2.511  -3.639   0.865  0.00  0.00    +0.132 A 
ATOM     17  C   LIG    1        2.227  -2.266   0.961  0.00  0.00    +0.007 A 
ATOM     18  C   LIG    1        2.505  -1.504   2.273  0.00  0.00    +0.082 C 
ATOM     19  C   LIG    1        1.654  -0.222   2.448  0.00  0.00    +0.133 C 
ATOM     20  C   LIG    1        1.840   0.621   1.170  0.00  0.00    +0.079 C 
ENDROOT
BRANCH   7  21
ATOM     21  O   LIG    1        2.136  -5.605  -5.351  0.00  0.00    -0.494 OA
ATOM     22  C   LIG    1        2.372  -6.130  -6.653  0.00  0.00    +0.277 C 
ENDBRANCH   7  21
BRANCH  16  23
ATOM     23  O   LIG    1        3.031  -4.249   1.985  0.00  0.00    -0.506 OA
ATOM     24  H   LIG    1        3.125  -3.648   2.728  0.00  0.00    +0.292 HD
ENDBRANCH  16  23
BRANCH   3  25
ATOM     25  O   LIG    1        1.055  -1.592  -2.445  0.00  0.00    -0.506 OA
ATOM     26  H   LIG    1        0.888  -0.669  -2.241  0.00  0.00    +0.292 HD
ENDBRANCH   3  25
BRANCH  19  27
ATOM     27  C   LIG    1        2.144   0.607   3.672  0.00  0.00    +0.190 C 
ATOM     28  O   LIG    1        3.352   0.725   3.898  0.00  0.00    -0.292 OA
BRANCH  27  29
ATOM     29  C   LIG    1        1.093   1.292   4.575  0.00  0.00    +0.233 C 
BRANCH  29  30
ATOM     30  O   LIG    1        1.718   2.042   5.601  0.00  0.00    -0.387 OA
ATOM     31  H   LIG    1        1.039   2.439   6.152  0.00  0.00    +0.210 HD
ENDBRANCH  29  30
ENDBRANCH  27  29
ENDBRANCH  19  27
BRANCH  19  32
ATOM     32  O   LIG    1        0.293  -0.569   2.660  0.00  0.00    -0.381 OA
ATOM     33  H   LIG    1       -0.239   0.228   2.599  0.00  0.00    +0.211 HD
ENDBRANCH  19  32
BRANCH   1  34
ATOM     34  O   LIG    1       -0.111  -0.038  -0.232  0.00  0.00    -0.343 OA
BRANCH  34  35
ATOM     35  C   LIG    1       -0.675   1.219  -0.484  0.00  0.00    +0.253 C 
ATOM     36  C   LIG    1       -1.757   1.061  -1.560  0.00  0.00    +0.082 C 
ATOM     37  C   LIG    1       -2.990   0.299  -1.044  0.00  0.00    +0.087 C 
ATOM     38  C   LIG    1       -3.486   0.934   0.271  0.00  0.00    +0.160 C 
ATOM     39  C   LIG    1       -2.312   1.085   1.267  0.00  0.00    +0.148 C 
ATOM     40  C   LIG    1       -2.702   1.826   2.558  0.00  0.00    +0.041 C 
ATOM     41  O   LIG    1       -1.208   1.793   0.685  0.00  0.00    -0.346 OA
BRANCH  37  42
ATOM     42  N   LIG    1       -4.014   0.180  -2.068  0.00  0.00    -0.325 NA
ATOM     43  H   LIG    1       -3.621  -0.252  -2.893  0.00  0.00    +0.119 HD
ATOM     44  H   LIG    1       -4.325   1.099  -2.349  0.00  0.00    +0.119 HD
ENDBRANCH  37  42
BRANCH  38  45
ATOM     45  O   LIG    1       -4.559   0.192   0.827  0.00  0.00    -0.388 OA
ATOM     46  H   LIG    1       -5.273   0.169   0.185  0.00  0.00    +0.210 HD
ENDBRANCH  38  45
ENDBRANCH  34  35
ENDBRANCH   1  34
TORSDOF 11
