REMARK  Name = DB00389
REMARK                            x       y       z     vdW  Elec       q    Type
REMARK                         _______ _______ _______ _____ _____    ______ ____
ROOT
ATOM      1  S   LIG    1       -2.234   4.306  -0.000  0.00  0.00    -0.012 S 
ATOM      2  C   LIG    1       -2.596   2.664   0.000  0.00  0.00    +0.169 A 
ATOM      3  N   LIG    1       -1.769   1.552   0.000  0.00  0.00    -0.231 N 
ATOM      4  C   LIG    1       -0.345   1.492   0.000  0.00  0.00    +0.421 C 
ATOM      5  O   LIG    1        0.416   2.464   0.000  0.00  0.00    -0.223 OA
ATOM      6  C   LIG    1       -2.538   0.427   0.000  0.00  0.00    +0.117 A 
ATOM      7  C   LIG    1       -3.812   0.783   0.000  0.00  0.00    +0.106 A 
ATOM      8  N   LIG    1       -3.855   2.119   0.000  0.00  0.00    -0.329 N 
ATOM      9  C   LIG    1       -5.150   2.806  -0.000  0.00  0.00    +0.151 C 
ENDROOT
BRANCH   4  10
ATOM     10  O   LIG    1        0.130   0.210   0.000  0.00  0.00    -0.448 OA
BRANCH  10  11
ATOM     11  C   LIG    1        1.526  -0.063   0.000  0.00  0.00    +0.230 C 
ATOM     12  C   LIG    1        1.748  -1.578   0.000  0.00  0.00    +0.048 C 
ENDBRANCH  10  11
ENDBRANCH   4  10
TORSDOF 2
