REMARK  Name = DB00883
REMARK                            x       y       z     vdW  Elec       q    Type
REMARK                         _______ _______ _______ _____ _____    ______ ____
ROOT
ATOM      1  C   LIG    1       -2.375  -1.485   2.011  0.00  0.00    +0.210 C 
ATOM      2  C   LIG    1       -2.065  -2.536   0.941  0.00  0.00    +0.265 C 
ATOM      3  C   LIG    1       -0.673  -2.138   0.459  0.00  0.00    +0.196 C 
ATOM      4  C   LIG    1       -0.457  -0.716   0.981  0.00  0.00    +0.196 C 
ATOM      5  C   LIG    1       -0.073   0.102  -0.242  0.00  0.00    +0.265 C 
ATOM      6  C   LIG    1       -0.667  -0.709  -1.388  0.00  0.00    +0.210 C 
ATOM      7  O   LIG    1       -0.523  -2.060  -0.963  0.00  0.00    -0.366 OA
ATOM      8  O   LIG    1       -1.706  -0.321   1.546  0.00  0.00    -0.366 OA
ENDROOT
BRANCH   2   9
ATOM      9  O   LIG    1       -3.006  -2.425  -0.140  0.00  0.00    -0.346 OA
BRANCH   9  10
ATOM     10  N   LIG    1       -4.288  -3.021   0.092  0.00  0.00    +0.171 N 
ATOM     11  O   LIG    1       -5.034  -2.884  -0.847  0.00  0.00    -0.094 OA
BRANCH  10  12
ATOM     12  O   LIG    1       -4.474  -3.573   1.154  0.00  0.00    -0.370 OA
ATOM     13  H   LIG    1       -3.790  -3.599   1.794  0.00  0.00    +0.332 HD
ENDBRANCH  10  12
ENDBRANCH   9  10
ENDBRANCH   2   9
BRANCH   5  14
ATOM     14  O   LIG    1        1.351   0.150  -0.424  0.00  0.00    -0.346 OA
BRANCH  14  15
ATOM     15  N   LIG    1        2.050   1.063   0.431  0.00  0.00    +0.171 N 
ATOM     16  O   LIG    1        3.242   1.042   0.248  0.00  0.00    -0.094 OA
BRANCH  15  17
ATOM     17  O   LIG    1        1.398   1.726   1.208  0.00  0.00    -0.370 OA
ATOM     18  H   LIG    1        0.466   1.631   1.236  0.00  0.00    +0.332 HD
ENDBRANCH  15  17
ENDBRANCH  14  15
ENDBRANCH   5  14
TORSDOF 6
