REMARK  Name = DB00975
REMARK                            x       y       z     vdW  Elec       q    Type
REMARK                         _______ _______ _______ _____ _____    ______ ____
ROOT
ATOM      1  C   LIG    1        1.459  -0.365  -0.192  0.00  0.00    +0.220 A 
ATOM      2  N   LIG    1        2.144   0.491  -0.997  0.00  0.00    -0.209 NA
ATOM      3  C   LIG    1        3.504   0.546  -0.892  0.00  0.00    +0.136 A 
ATOM      4  C   LIG    1        4.204  -0.266   0.049  0.00  0.00    +0.136 A 
ATOM      5  C   LIG    1        3.404  -1.129   0.860  0.00  0.00    +0.153 A 
ATOM      6  N   LIG    1        5.564  -0.217   0.151  0.00  0.00    -0.209 NA
ATOM      7  C   LIG    1        6.253   0.648  -0.643  0.00  0.00    +0.220 A 
ATOM      8  N   LIG    1        5.651   1.476  -1.540  0.00  0.00    -0.197 NA
ATOM      9  C   LIG    1        4.300   1.433  -1.680  0.00  0.00    +0.153 A 
ATOM     10  N   LIG    1        2.051  -1.169   0.731  0.00  0.00    -0.197 NA
ENDROOT
BRANCH   5  11
ATOM     11  N   LIG    1        3.948  -1.879   1.904  0.00  0.00    -0.313 N 
ATOM     12  C   LIG    1        4.378  -1.110   3.089  0.00  0.00    +0.106 C 
ATOM     13  C   LIG    1        5.289  -1.903   4.052  0.00  0.00    +0.019 C 
ATOM     14  C   LIG    1        4.661  -3.232   4.482  0.00  0.00    +0.003 C 
ATOM     15  C   LIG    1        4.183  -4.000   3.246  0.00  0.00    +0.019 C 
ATOM     16  C   LIG    1        3.288  -3.125   2.345  0.00  0.00    +0.106 C 
ENDBRANCH   5  11
BRANCH   9  17
ATOM     17  N   LIG    1        3.747   2.272  -2.651  0.00  0.00    -0.313 N 
ATOM     18  C   LIG    1        4.473   3.465  -3.136  0.00  0.00    +0.106 C 
ATOM     19  C   LIG    1        3.547   4.499  -3.813  0.00  0.00    +0.019 C 
ATOM     20  C   LIG    1        2.738   3.883  -4.960  0.00  0.00    +0.003 C 
ATOM     21  C   LIG    1        2.054   2.598  -4.479  0.00  0.00    +0.019 C 
ATOM     22  C   LIG    1        3.052   1.643  -3.793  0.00  0.00    +0.106 C 
ENDBRANCH   9  17
BRANCH   1  23
ATOM     23  N   LIG    1        0.044  -0.423  -0.326  0.00  0.00    -0.295 N 
BRANCH  23  24
ATOM     24  C   LIG    1       -0.699  -1.507   0.339  0.00  0.00    +0.136 C 
BRANCH  24  25
ATOM     25  C   LIG    1       -1.163  -1.244   1.786  0.00  0.00    +0.174 C 
BRANCH  25  26
ATOM     26  O   LIG    1       -1.967  -0.102   1.985  0.00  0.00    -0.393 OA
ATOM     27  H   LIG    1       -1.983   0.102   2.923  0.00  0.00    +0.209 HD
ENDBRANCH  25  26
ENDBRANCH  24  25
ENDBRANCH  23  24
BRANCH  23  28
ATOM     28  C   LIG    1       -0.648   0.388  -1.344  0.00  0.00    +0.136 C 
BRANCH  28  29
ATOM     29  C   LIG    1       -0.776   1.906  -1.081  0.00  0.00    +0.174 C 
BRANCH  29  30
ATOM     30  O   LIG    1       -1.388   2.279   0.134  0.00  0.00    -0.393 OA
ATOM     31  H   LIG    1       -1.219   3.211   0.289  0.00  0.00    +0.209 HD
ENDBRANCH  29  30
ENDBRANCH  28  29
ENDBRANCH  23  28
ENDBRANCH   1  23
BRANCH   7  32
ATOM     32  N   LIG    1        7.677   0.687  -0.536  0.00  0.00    -0.295 N 
BRANCH  32  33
ATOM     33  C   LIG    1        8.408  -0.509  -0.082  0.00  0.00    +0.136 C 
BRANCH  33  34
ATOM     34  C   LIG    1        8.101  -1.030   1.339  0.00  0.00    +0.174 C 
BRANCH  34  35
ATOM     35  O   LIG    1        7.697  -2.383   1.368  0.00  0.00    -0.393 OA
ATOM     36  H   LIG    1        7.636  -2.666   2.283  0.00  0.00    +0.209 HD
ENDBRANCH  34  35
ENDBRANCH  33  34
ENDBRANCH  32  33
BRANCH  32  37
ATOM     37  C   LIG    1        8.418   1.558  -1.468  0.00  0.00    +0.136 C 
BRANCH  37  38
ATOM     38  C   LIG    1        8.458   3.060  -1.114  0.00  0.00    +0.174 C 
BRANCH  38  39
ATOM     39  O   LIG    1        8.957   3.366   0.172  0.00  0.00    -0.393 OA
ATOM     40  H   LIG    1        8.743   4.280   0.373  0.00  0.00    +0.209 HD
ENDBRANCH  38  39
ENDBRANCH  37  38
ENDBRANCH  32  37
ENDBRANCH   7  32
TORSDOF 16
