REMARK  Name = DB00148
REMARK                            x       y       z     vdW  Elec       q    Type
REMARK                         _______ _______ _______ _____ _____    ______ ____
ROOT
ATOM      1  C   LIG    1       -0.560   1.162   0.204  0.00  0.00    +0.243 C 
ATOM      2  N   LIG    1       -0.039  -0.202   0.088  0.00  0.00    -0.255 N 
ENDROOT
BRANCH   2   3
ATOM      3  C   LIG    1       -0.919  -1.319  -0.132  0.00  0.00    +0.379 C 
ATOM      4  N   LIG    1       -2.177  -1.230  -0.195  0.00  0.00    -0.130 NA
ATOM      5  H   LIG    1       -2.626  -2.121  -0.348  0.00  0.00    +0.306 HD
BRANCH   3   6
ATOM      6  N   LIG    1       -0.287  -2.578  -0.268  0.00  0.00    -0.289 N 
ATOM      7  H   LIG    1        0.715  -2.690  -0.205  0.00  0.00    +0.255 HD
ATOM      8  H   LIG    1       -0.807  -3.431  -0.414  0.00  0.00    +0.255 HD
ENDBRANCH   3   6
ENDBRANCH   2   3
BRANCH   2   9
ATOM      9  C   LIG    1        1.428  -0.286  -0.022  0.00  0.00    +0.318 C 
BRANCH   9  10
ATOM     10  C   LIG    1        2.074  -0.556   1.350  0.00  0.00    +0.339 C 
ATOM     11  O   LIG    1        1.456  -0.688   2.406  0.00  0.00    -0.247 OA
BRANCH  10  12
ATOM     12  O   LIG    1        3.430  -0.631   1.234  0.00  0.00    -0.478 OA
ATOM     13  H   LIG    1        3.859  -0.797   2.076  0.00  0.00    +0.295 HD
ENDBRANCH  10  12
ENDBRANCH   9  10
ENDBRANCH   2   9
TORSDOF 5
