REMARK  Name = DB00555
REMARK                            x       y       z     vdW  Elec       q    Type
REMARK                         _______ _______ _______ _____ _____    ______ ____
ROOT
ATOM      1  C   LIG    1        2.138   1.178  -0.000  0.00  0.00    +0.134 A 
ATOM      2  C   LIG    1        1.435  -0.037   0.003  0.00  0.00    +0.148 A 
ATOM      3  N   LIG    1        2.097  -1.220   0.014  0.00  0.00    -0.197 NA
ATOM      4  C   LIG    1        3.450  -1.146   0.019  0.00  0.00    +0.234 A 
ATOM      5  N   LIG    1        4.168   0.008   0.018  0.00  0.00    -0.113 NA
ATOM      6  N   LIG    1        3.501   1.177   0.009  0.00  0.00    -0.142 NA
ENDROOT
BRANCH   1  14
ATOM      7 CL   LIG    1        1.522   2.397  -2.747  0.00  0.00    -0.081 Cl
ATOM      8  C   LIG    1        1.161   3.157  -1.229  0.00  0.00    +0.069 A 
ATOM      9  C   LIG    1        0.538   4.415  -1.205  0.00  0.00    +0.060 A 
ATOM     10  C   LIG    1        0.243   5.023   0.015  0.00  0.00    +0.021 A 
ATOM     11  C   LIG    1        0.562   4.387   1.212  0.00  0.00    +0.002 A 
ATOM     12  C   LIG    1        1.181   3.139   1.191  0.00  0.00    +0.012 A 
ATOM     13 CL   LIG    1        0.120   5.243  -2.665  0.00  0.00    -0.082 Cl
ATOM     14  C   LIG    1        1.492   2.515  -0.022  0.00  0.00    +0.025 A 
ENDBRANCH   1  14
BRANCH   2  15
ATOM     15  N   LIG    1        0.041  -0.087  -0.006  0.00  0.00    -0.341 N 
ATOM     16  H   LIG    1       -0.419  -0.986  -0.005  0.00  0.00    +0.144 HD
ATOM     17  H   LIG    1       -0.488   0.772  -0.022  0.00  0.00    +0.144 HD
ENDBRANCH   2  15
BRANCH   4  18
ATOM     18  N   LIG    1        4.159  -2.342   0.025  0.00  0.00    -0.326 N 
ATOM     19  H   LIG    1        3.653  -3.216   0.014  0.00  0.00    +0.145 HD
ATOM     20  H   LIG    1        5.168  -2.319   0.022  0.00  0.00    +0.145 HD
ENDBRANCH   4  18
TORSDOF 3
