REMARK  Name = DB00871
REMARK                            x       y       z     vdW  Elec       q    Type
REMARK                         _______ _______ _______ _____ _____    ______ ____
ROOT
ATOM      1  C   LIG    1        1.520  -0.064   0.165  0.00  0.00    +0.158 C 
ENDROOT
BRANCH   1   2
ATOM      2  C   LIG    1        2.095  -1.478   0.080  0.00  0.00    -0.011 A 
ATOM      3  C   LIG    1        2.373  -2.036  -1.174  0.00  0.00    +0.051 A 
ATOM      4  C   LIG    1        2.882  -3.332  -1.275  0.00  0.00    +0.121 A 
ATOM      5  C   LIG    1        3.113  -4.082  -0.122  0.00  0.00    +0.090 A 
ATOM      6  C   LIG    1        2.832  -3.539   1.131  0.00  0.00    +0.121 A 
ATOM      7  C   LIG    1        2.322  -2.243   1.232  0.00  0.00    +0.051 A 
BRANCH   6   8
ATOM      8  O   LIG    1        3.055  -4.278   2.263  0.00  0.00    -0.507 OA
ATOM      9  H   LIG    1        2.829  -3.807   3.068  0.00  0.00    +0.292 HD
ENDBRANCH   6   8
BRANCH   4  10
ATOM     10  O   LIG    1        3.151  -3.869  -2.506  0.00  0.00    -0.507 OA
ATOM     11  H   LIG    1        2.950  -3.270  -3.228  0.00  0.00    +0.292 HD
ENDBRANCH   4  10
ENDBRANCH   1   2
BRANCH   1  12
ATOM     12  O   LIG    1        1.994   0.655   1.293  0.00  0.00    -0.386 OA
ATOM     13  H   LIG    1        2.938   0.796   1.188  0.00  0.00    +0.210 HD
ENDBRANCH   1  12
BRANCH   1  14
ATOM     14  C   LIG    1       -0.025  -0.099   0.176  0.00  0.00    +0.117 C 
BRANCH  14  15
ATOM     15  N   LIG    1       -0.580   1.242  -0.016  0.00  0.00    -0.309 NA
ATOM     16  H   LIG    1       -0.175   1.878   0.656  0.00  0.00    +0.123 HD
BRANCH  15  17
ATOM     17  C   LIG    1       -2.043   1.377  -0.019  0.00  0.00    +0.011 C 
ATOM     18  C   LIG    1       -2.662   0.572  -1.186  0.00  0.00    +0.027 C 
ATOM     19  C   LIG    1       -2.636   0.929   1.338  0.00  0.00    +0.027 C 
ATOM     20  C   LIG    1       -2.322   2.882  -0.229  0.00  0.00    +0.027 C 
ENDBRANCH  15  17
ENDBRANCH  14  15
ENDBRANCH   1  14
TORSDOF 7
