REMARK  Name = DB00642
REMARK                            x       y       z     vdW  Elec       q    Type
REMARK                         _______ _______ _______ _____ _____    ______ ____
ROOT
ATOM      1  C   UNK A  0       -2.162   1.315   0.001  0.00  0.00    +0.004 A 
ATOM      2  C   UNK A  0       -0.770   1.320  -0.004  0.00  0.00    +0.013 A 
ATOM      3  C   UNK A  0       -0.053   0.113  -0.054  0.00  0.00    +0.037 A 
ATOM      4  C   UNK A  0       -0.763  -1.095  -0.089  0.00  0.00    +0.013 A 
ATOM      5  C   UNK A  0       -2.155  -1.099  -0.084  0.00  0.00    +0.004 A 
ATOM      6  C   UNK A  0       -2.857   0.106  -0.041  0.00  0.00    -0.047 A 
ENDROOT
BRANCH   3   7
ATOM      7  C   UNK A  0        1.460   0.094  -0.056  0.00  0.00    +0.245 C 
ATOM      8  O   UNK A  0        2.078  -0.928   0.250  0.00  0.00    -0.270 OA
ATOM      9  N   GLU A  1        2.069   1.236  -0.433  0.00  0.00    -0.298 N 
ATOM     10  H   GLU A  1        1.497   2.032  -0.670  0.00  0.00    +0.150 HD
BRANCH   9  11
ATOM     11  CA  GLU A  1        3.519   1.461  -0.515  0.00  0.00    +0.182 C 
BRANCH  11  12
ATOM     12  C   GLU A  1        3.948   2.599   0.436  0.00  0.00    +0.325 C 
ATOM     13  OXT GLU A  1        3.182   3.325   1.038  0.00  0.00    -0.249 OA
BRANCH  12  14
ATOM     14  O   GLU A  1        5.311   2.644   0.508  0.00  0.00    -0.479 OA
ATOM     15  H   GLU A  1        5.622   3.333   1.100  0.00  0.00    +0.295 HD
ENDBRANCH  12  14
ENDBRANCH  11  12
BRANCH  11  16
ATOM     16  CB  GLU A  1        3.918   1.756  -1.985  0.00  0.00    +0.045 C 
BRANCH  16  17
ATOM     17  CG  GLU A  1        3.629   0.595  -2.958  0.00  0.00    +0.123 C 
BRANCH  17  18
ATOM     18  CD  GLU A  1        4.090   0.916  -4.379  0.00  0.00    +0.305 C 
ATOM     19  OE2 GLU A  1        3.345   1.339  -5.260  0.00  0.00    -0.251 OA
BRANCH  18  20
ATOM     20  OE1 GLU A  1        5.423   0.688  -4.553  0.00  0.00    -0.481 OA
ATOM     21  HE1 GLU A  1        5.719   0.890  -5.444  0.00  0.00    +0.295 HD
ENDBRANCH  18  20
ENDBRANCH  17  18
ENDBRANCH  16  17
ENDBRANCH  11  16
ENDBRANCH   9  11
ENDBRANCH   3   7
BRANCH   6  22
ATOM     22  C   UNK A  0       -4.379   0.102  -0.032  0.00  0.00    +0.040 C 
BRANCH  22  23
ATOM     23  C   UNK A  0       -4.961   0.076   1.396  0.00  0.00    +0.042 C 
BRANCH  23  24
ATOM     24  C   UNK A  0       -6.481   0.029   1.437  0.00  0.00    -0.015 A 
ATOM     25  C   UNK A  0       -7.369   0.518   0.475  0.00  0.00    +0.088 A 
ATOM     26  N   UNK A  0       -8.661   0.283   0.863  0.00  0.00    -0.347 N 
ATOM     27  H   UNK A  0       -9.491   0.530   0.343  0.00  0.00    +0.167 HD
ATOM     28  C   UNK A  0       -8.632  -0.346   2.073  0.00  0.00    +0.124 A 
ATOM     29  N   UNK A  0       -9.681  -0.803   2.840  0.00  0.00    -0.314 N 
ATOM     30  H   UNK A  0      -10.662  -0.756   2.607  0.00  0.00    +0.170 HD
ATOM     31  C   UNK A  0       -9.337  -1.517   4.030  0.00  0.00    +0.195 A 
ATOM     32  N   UNK A  0       -8.116  -1.680   4.419  0.00  0.00    -0.177 NA
ATOM     33  C   UNK A  0       -6.984  -1.155   3.747  0.00  0.00    +0.284 A 
ATOM     34  O   UNK A  0       -5.834  -1.212   4.176  0.00  0.00    -0.265 OA
ATOM     35  C   UNK A  0       -7.300  -0.514   2.458  0.00  0.00    +0.086 A 
BRANCH  31  36
ATOM     36  N   UNK A  0      -10.372  -2.087   4.802  0.00  0.00    -0.329 N 
ATOM     37  H   UNK A  0      -11.173  -2.455   4.311  0.00  0.00    +0.145 HD
ATOM     38  H   UNK A  0      -10.101  -2.701   5.556  0.00  0.00    +0.145 HD
ENDBRANCH  31  36
ENDBRANCH  23  24
ENDBRANCH  22  23
ENDBRANCH   6  22
TORSDOF 12
