REMARK  Name = DB00643
REMARK                            x       y       z     vdW  Elec       q    Type
REMARK                         _______ _______ _______ _____ _____    ______ ____
ROOT
ATOM      1  C   LIG    1        5.824  -0.941   0.287  0.00  0.00    +0.024 A 
ATOM      2  C   LIG    1        5.892   0.450   0.098  0.00  0.00    +0.014 A 
ATOM      3  C   LIG    1        4.748   1.232  -0.059  0.00  0.00    +0.030 A 
ATOM      4  C   LIG    1        3.501   0.598  -0.006  0.00  0.00    +0.091 A 
ATOM      5  C   LIG    1        3.437  -0.799   0.207  0.00  0.00    +0.068 A 
ATOM      6  N   LIG    1        2.088  -1.071   0.210  0.00  0.00    -0.326 N 
ATOM      7  H   LIG    1        1.619  -1.956   0.335  0.00  0.00    +0.169 HD
ATOM      8  C   LIG    1        1.427   0.118   0.008  0.00  0.00    +0.203 A 
ATOM      9  N   LIG    1        2.247   1.138  -0.127  0.00  0.00    -0.214 NA
ATOM     10  C   LIG    1        4.579  -1.588   0.367  0.00  0.00    +0.039 A 
ENDROOT
BRANCH   8  11
ATOM     11  N   LIG    1        0.042   0.111  -0.018  0.00  0.00    -0.221 N 
ATOM     12  H   LIG    1       -0.428  -0.781   0.032  0.00  0.00    +0.161 HD
ATOM     13  C   LIG    1       -0.752   1.254  -0.061  0.00  0.00    +0.406 C 
ATOM     14  O   LIG    1       -0.370   2.428  -0.091  0.00  0.00    -0.226 OA
BRANCH  13  15
ATOM     15  O   LIG    1       -2.046   0.874  -0.060  0.00  0.00    -0.453 OA
ATOM     16  C   LIG    1       -3.088   1.839  -0.089  0.00  0.00    +0.282 C 
ENDBRANCH  13  15
ENDBRANCH   8  11
BRANCH   1  18
ATOM     17  O   LIG    1        8.065  -1.160   1.023  0.00  0.00    -0.287 OA
ATOM     18  C   LIG    1        7.097  -1.713   0.493  0.00  0.00    +0.193 C 
BRANCH  18  19
ATOM     19  C   LIG    1        7.209  -3.148   0.060  0.00  0.00    +0.022 A 
ATOM     20  C   LIG    1        6.479  -3.638  -1.034  0.00  0.00    +0.012 A 
ATOM     21  C   LIG    1        6.624  -4.960  -1.443  0.00  0.00    +0.001 A 
ATOM     22  C   LIG    1        7.513  -5.797  -0.774  0.00  0.00    +0.000 A 
ATOM     23  C   LIG    1        8.266  -5.319   0.295  0.00  0.00    +0.001 A 
ATOM     24  C   LIG    1        8.122  -3.996   0.704  0.00  0.00    +0.012 A 
ENDBRANCH  18  19
ENDBRANCH   1  18
TORSDOF 4
