REMARK  Name = DB00309
REMARK                            x       y       z     vdW  Elec       q    Type
REMARK                         _______ _______ _______ _____ _____    ______ ____
ROOT
ATOM      1  C   LIG    1        1.599  -0.045   0.199  0.00  0.00    +0.017 A 
ATOM      2  C   LIG    1        2.334   0.186   1.394  0.00  0.00    +0.126 A 
ATOM      3  C   LIG    1        3.739   0.270   1.334  0.00  0.00    +0.069 A 
ATOM      4  C   LIG    1        4.411   0.219   0.115  0.00  0.00    +0.037 A 
ATOM      5  N   LIG    1        5.770   0.160  -0.197  0.00  0.00    -0.325 N 
ATOM      6  C   LIG    1        6.789   0.810   0.626  0.00  0.00    +0.129 C 
ATOM      7  C   LIG    1        5.967   0.352  -1.648  0.00  0.00    +0.128 C 
ATOM      8  C   LIG    1        7.136  -0.403  -2.399  0.00  0.00    +0.187 C 
ATOM      9  C   LIG    1        6.948  -1.959  -2.286  0.00  0.00    +0.168 C 
ATOM     10  C   LIG    1        5.487  -2.515  -2.612  0.00  0.00    +0.034 C 
ATOM     11  C   LIG    1        5.497  -3.551  -3.765  0.00  0.00    -0.019 C 
ATOM     12  C   LIG    1        4.845  -3.418  -4.934  0.00  0.00    -0.015 C 
ATOM     13  C   LIG    1        4.021  -2.191  -5.264  0.00  0.00    +0.111 C 
ATOM     14  N   LIG    1        4.404  -1.045  -4.447  0.00  0.00    -0.294 NA
ATOM     15  C   LIG    1        3.619   0.169  -4.519  0.00  0.00    +0.086 C 
ATOM     16  C   LIG    1        4.170   1.025  -3.385  0.00  0.00    +0.030 C 
ATOM     17  C   LIG    1        4.476  -1.354  -3.016  0.00  0.00    +0.082 C 
ATOM     18  C   LIG    1        4.592   0.018  -2.281  0.00  0.00    +0.037 C 
ATOM     19  C   LIG    1        3.697   0.070  -1.063  0.00  0.00    -0.016 A 
ATOM     20  C   LIG    1        2.312  -0.031  -1.012  0.00  0.00    +0.014 A 
ENDROOT
BRANCH   1  21
ATOM     21  C   LIG    1        0.029  -0.202   0.133  0.00  0.00    +0.136 C 
ATOM     22  C   LIG    1       -0.534   1.273   0.135  0.00  0.00    +0.034 C 
ATOM     23  C   LIG    1       -0.092   2.262  -1.010  0.00  0.00    +0.008 C 
ATOM     24  C   LIG    1       -0.517   3.721  -0.660  0.00  0.00    +0.041 C 
ATOM     25  C   LIG    1       -2.002   4.133  -0.960  0.00  0.00    +0.079 C 
ATOM     26  C   LIG    1       -2.647   3.315  -2.137  0.00  0.00    +0.119 C 
ATOM     27  N   LIG    1       -2.160   1.939  -2.166  0.00  0.00    -0.299 NA
ATOM     28  C   LIG    1       -2.972   0.894  -2.764  0.00  0.00    +0.089 C 
ATOM     29  C   LIG    1       -2.913  -0.342  -1.830  0.00  0.00    +0.053 C 
ATOM     30  C   LIG    1       -1.615  -1.145  -1.878  0.00  0.00    -0.016 A 
ATOM     31  C   LIG    1       -1.389  -2.175  -2.863  0.00  0.00    +0.003 A 
ATOM     32  C   LIG    1       -0.149  -2.794  -2.569  0.00  0.00    +0.047 A 
ATOM     33  N   LIG    1        0.337  -2.149  -1.464  0.00  0.00    -0.357 N 
ATOM     34  H   LIG    1        1.209  -2.348  -0.996  0.00  0.00    +0.166 HD
ATOM     35  C   LIG    1        0.375  -3.849  -3.324  0.00  0.00    +0.026 A 
ATOM     36  C   LIG    1       -0.385  -4.285  -4.409  0.00  0.00    +0.002 A 
ATOM     37  C   LIG    1       -1.610  -3.703  -4.724  0.00  0.00    +0.001 A 
ATOM     38  C   LIG    1       -2.125  -2.655  -3.962  0.00  0.00    +0.010 A 
ATOM     39  C   LIG    1       -0.720   1.896  -2.366  0.00  0.00    +0.088 C 
ATOM     40  C   LIG    1       -0.455  -1.084  -1.072  0.00  0.00    +0.042 A 
BRANCH  21  41
ATOM     41  C   LIG    1       -0.507  -0.975   1.384  0.00  0.00    +0.323 C 
ATOM     42  O   LIG    1       -1.397  -0.520   2.111  0.00  0.00    -0.249 OA
BRANCH  41  43
ATOM     43  O   LIG    1        0.120  -2.164   1.586  0.00  0.00    -0.467 OA
ATOM     44  C   LIG    1       -0.231  -2.990   2.685  0.00  0.00    +0.280 C 
ENDBRANCH  41  43
ENDBRANCH  21  41
BRANCH  25  45
ATOM     45  C   LIG    1       -2.197   5.651  -1.200  0.00  0.00    +0.032 C 
ATOM     46  C   LIG    1       -1.744   6.561  -0.044  0.00  0.00    +0.007 C 
ENDBRANCH  25  45
BRANCH  25  47
ATOM     47  O   LIG    1       -2.785   3.713   0.150  0.00  0.00    -0.387 OA
ATOM     48  H   LIG    1       -2.408   4.091   0.948  0.00  0.00    +0.210 HD
ENDBRANCH  25  47
ENDBRANCH   1  21
BRANCH   8  49
ATOM     49  C   LIG    1        8.527   0.070  -1.843  0.00  0.00    +0.247 C 
ATOM     50  N   LIG    1        9.049   1.226  -2.279  0.00  0.00    -0.327 N 
ATOM     51  H   LIG    1        8.564   1.769  -2.977  0.00  0.00    +0.145 HD
ATOM     52  H   LIG    1        9.942   1.543  -1.932  0.00  0.00    +0.145 HD
ATOM     53  O   LIG    1        9.142  -0.604  -1.017  0.00  0.00    -0.273 OA
ENDBRANCH   8  49
BRANCH   2  54
ATOM     54  O   LIG    1        1.647   0.337   2.586  0.00  0.00    -0.495 OA
ATOM     55  C   LIG    1        2.350   0.564   3.803  0.00  0.00    +0.277 C 
ENDBRANCH   2  54
BRANCH   9  56
ATOM     56  O   LIG    1        7.991  -2.668  -2.950  0.00  0.00    -0.387 OA
ATOM     57  H   LIG    1        8.832  -2.371  -2.594  0.00  0.00    +0.210 HD
ENDBRANCH   9  56
BRANCH  10  58
ATOM     58  C   LIG    1        4.942  -3.280  -1.357  0.00  0.00    +0.012 C 
ATOM     59  C   LIG    1        5.713  -4.533  -0.886  0.00  0.00    +0.005 C 
ENDBRANCH  10  58
BRANCH   8  60
ATOM     60  O   LIG    1        7.127  -0.004  -3.769  0.00  0.00    -0.375 OA
ATOM     61  H   LIG    1        6.307  -0.312  -4.167  0.00  0.00    +0.211 HD
ENDBRANCH   8  60
TORSDOF 10
