REMARK  Name = DB00140
REMARK                            x       y       z     vdW  Elec       q    Type
REMARK                         _______ _______ _______ _____ _____    ______ ____
ROOT
ATOM      1  C   LIG    1       -0.582   0.618  -3.006  0.00  0.00    +0.170 A 
ATOM      2  C   LIG    1       -1.374   1.730  -3.700  0.00  0.00    +0.171 A 
ATOM      3  C   LIG    1       -0.663   2.525  -4.718  0.00  0.00    +0.282 A 
ATOM      4  O   LIG    1       -1.148   3.454  -5.365  0.00  0.00    -0.265 OA
ATOM      5  N   LIG    1        0.637   2.140  -4.905  0.00  0.00    -0.272 N 
ATOM      6  H   LIG    1        1.153   2.666  -5.594  0.00  0.00    +0.174 HD
ATOM      7  C   LIG    1        1.339   1.136  -4.280  0.00  0.00    +0.351 A 
ATOM      8  O   LIG    1        2.506   1.016  -4.645  0.00  0.00    -0.245 OA
ATOM      9  N   LIG    1       -2.597   2.007  -3.460  0.00  0.00    -0.237 NA
ATOM     10  C   LIG    1       -3.287   1.245  -2.498  0.00  0.00    +0.089 A 
ATOM     11  C   LIG    1       -4.626   1.580  -2.290  0.00  0.00    +0.033 A 
ATOM     12  C   LIG    1       -5.397   0.886  -1.356  0.00  0.00    -0.045 A 
ATOM     13  C   LIG    1       -6.856   1.281  -1.162  0.00  0.00    +0.044 C 
ATOM     14  C   LIG    1       -4.819  -0.160  -0.619  0.00  0.00    -0.045 A 
ATOM     15  C   LIG    1       -5.625  -0.937   0.414  0.00  0.00    +0.044 C 
ATOM     16  C   LIG    1       -3.477  -0.497  -0.826  0.00  0.00    +0.031 A 
ATOM     17  C   LIG    1       -2.688   0.193  -1.760  0.00  0.00    +0.069 A 
ATOM     18  N   LIG    1        0.651   0.373  -3.308  0.00  0.00    -0.173 NA
ATOM     19  N   LIG    1       -1.304  -0.104  -2.019  0.00  0.00    -0.320 N 
ENDROOT
BRANCH  19  20
ATOM     20  C   LIG    1       -0.601  -1.149  -1.235  0.00  0.00    +0.158 C 
BRANCH  20  21
ATOM     21  C   LIG    1        0.069  -0.684   0.096  0.00  0.00    +0.165 C 
BRANCH  21  22
ATOM     22  O   LIG    1       -0.892  -0.042   0.917  0.00  0.00    -0.387 OA
ATOM     23  H   LIG    1       -1.666  -0.606   0.978  0.00  0.00    +0.210 HD
ENDBRANCH  21  22
BRANCH  21  24
ATOM     24  C   LIG    1        1.368   0.171  -0.063  0.00  0.00    +0.175 C 
BRANCH  24  25
ATOM     25  O   LIG    1        2.288  -0.596  -0.823  0.00  0.00    -0.387 OA
ATOM     26  H   LIG    1        3.108  -0.101  -0.899  0.00  0.00    +0.210 HD
ENDBRANCH  24  25
BRANCH  24  27
ATOM     27  C   LIG    1        2.051   0.636   1.265  0.00  0.00    +0.171 C 
BRANCH  27  28
ATOM     28  O   LIG    1        1.210   1.555   1.940  0.00  0.00    -0.387 OA
ATOM     29  H   LIG    1        0.331   1.172   1.999  0.00  0.00    +0.210 HD
ENDBRANCH  27  28
BRANCH  27  30
ATOM     30  C   LIG    1        3.424   1.338   1.095  0.00  0.00    +0.189 C 
BRANCH  30  31
ATOM     31  O   LIG    1        4.470   0.427   0.820  0.00  0.00    -0.392 OA
ATOM     32  H   LIG    1        5.295   0.915   0.767  0.00  0.00    +0.210 HD
ENDBRANCH  30  31
ENDBRANCH  27  30
ENDBRANCH  24  27
ENDBRANCH  21  24
ENDBRANCH  20  21
ENDBRANCH  19  20
TORSDOF 9
