REMARK  Name = DB00787
REMARK                            x       y       z     vdW  Elec       q    Type
REMARK                         _______ _______ _______ _____ _____    ______ ____
ROOT
ATOM      1  N   LIG    1        1.667  -1.378  -0.138  0.00  0.00    -0.292 N 
ATOM      2  C   LIG    1        2.262  -1.999   0.939  0.00  0.00    +0.203 A 
ATOM      3  N   LIG    1        2.543  -3.270   0.751  0.00  0.00    -0.229 NA
ATOM      4  C   LIG    1        2.128  -3.524  -0.479  0.00  0.00    +0.172 A 
ATOM      5  C   LIG    1        2.192  -4.796  -1.210  0.00  0.00    +0.302 A 
ATOM      6  N   LIG    1        1.643  -4.723  -2.515  0.00  0.00    -0.176 NA
ATOM      7  C   LIG    1        1.136  -3.654  -3.041  0.00  0.00    +0.195 A 
ATOM      8  N   LIG    1        1.071  -2.404  -2.346  0.00  0.00    -0.312 N 
ATOM      9  H   LIG    1        0.656  -1.628  -2.840  0.00  0.00    +0.170 HD
ATOM     10  O   LIG    1        2.680  -5.808  -0.708  0.00  0.00    -0.263 OA
ATOM     11  C   LIG    1        1.579  -2.388  -1.065  0.00  0.00    +0.148 A 
ENDROOT
BRANCH   7  12
ATOM     12  N   LIG    1        0.620  -3.729  -4.353  0.00  0.00    -0.329 N 
ATOM     13  H   LIG    1       -0.150  -3.126  -4.602  0.00  0.00    +0.145 HD
ATOM     14  H   LIG    1        0.540  -4.639  -4.783  0.00  0.00    +0.145 HD
ENDBRANCH   7  12
BRANCH   1  15
ATOM     15  C   LIG    1        1.234  -0.011  -0.252  0.00  0.00    +0.287 C 
BRANCH  15  16
ATOM     16  O   LIG    1       -0.105   0.092   0.115  0.00  0.00    -0.357 OA
BRANCH  16  17
ATOM     17  C   LIG    1       -0.621   1.415   0.039  0.00  0.00    +0.190 C 
BRANCH  17  18
ATOM     18  C   LIG    1       -2.092   1.394   0.474  0.00  0.00    +0.184 C 
BRANCH  18  19
ATOM     19  O   LIG    1       -2.647   2.692   0.423  0.00  0.00    -0.393 OA
ATOM     20  H   LIG    1       -3.566   2.644   0.699  0.00  0.00    +0.209 HD
ENDBRANCH  18  19
ENDBRANCH  17  18
ENDBRANCH  16  17
ENDBRANCH  15  16
ENDBRANCH   1  15
TORSDOF 6
