REMARK  Name = DB00289
REMARK                            x       y       z     vdW  Elec       q    Type
REMARK                         _______ _______ _______ _____ _____    ______ ____
ROOT
ATOM      1  C   LIG    1       -0.014  -0.078  -0.054  0.00  0.00    +0.205 C 
ENDROOT
BRANCH   1   2
ATOM      2  C   LIG    1       -0.473  -0.800  -1.325  0.00  0.00    -0.007 A 
ATOM      3  C   LIG    1       -0.678  -2.183  -1.297  0.00  0.00    +0.007 A 
ATOM      4  C   LIG    1       -1.099  -2.849  -2.445  0.00  0.00    +0.000 A 
ATOM      5  C   LIG    1       -1.315  -2.133  -3.619  0.00  0.00    +0.000 A 
ATOM      6  C   LIG    1       -1.113  -0.755  -3.658  0.00  0.00    +0.000 A 
ATOM      7  C   LIG    1       -0.692  -0.088  -2.511  0.00  0.00    +0.007 A 
ENDBRANCH   1   2
BRANCH   1   8
ATOM      8  O   LIG    1       -0.595   1.228   0.045  0.00  0.00    -0.484 OA
BRANCH   8   9
ATOM      9  C   LIG    1       -1.948   1.399   0.293  0.00  0.00    +0.124 A 
ATOM     10  C   LIG    1       -2.840   0.342   0.549  0.00  0.00    +0.046 A 
ATOM     11  C   LIG    1       -4.190   0.591   0.790  0.00  0.00    +0.004 A 
ATOM     12  C   LIG    1       -4.669   1.898   0.784  0.00  0.00    +0.000 A 
ATOM     13  C   LIG    1       -3.797   2.957   0.537  0.00  0.00    +0.007 A 
ATOM     14  C   LIG    1       -2.442   2.714   0.292  0.00  0.00    -0.009 A 
ATOM     15  C   LIG    1       -1.510   3.885   0.019  0.00  0.00    +0.047 C 
ENDBRANCH   8   9
ENDBRANCH   1   8
BRANCH   1  16
ATOM     16  C   LIG    1        1.520   0.080  -0.021  0.00  0.00    +0.064 C 
BRANCH  16  17
ATOM     17  C   LIG    1        2.035   0.727   1.278  0.00  0.00    +0.084 C 
BRANCH  17  18
ATOM     18  N   LIG    1        3.487   0.824   1.242  0.00  0.00    -0.319 NA
ATOM     19  H   LIG    1        3.888  -0.095   1.121  0.00  0.00    +0.122 HD
ATOM     20  C   LIG    1        3.991   1.426   2.466  0.00  0.00    +0.101 C 
ENDBRANCH  17  18
ENDBRANCH  16  17
ENDBRANCH   1  16
TORSDOF 6
