REMARK  Name = DB00886
REMARK                            x       y       z     vdW  Elec       q    Type
REMARK                         _______ _______ _______ _____ _____    ______ ____
ROOT
ATOM      1  S   UNK A  1       -5.080   2.814   0.650  0.00  0.00    -0.138 S 
ATOM      2  C   UNK A  1       -3.905   1.835   1.635  0.00  0.00    +0.073 C 
ATOM      3  C   UNK A  1       -2.414   2.058   1.317  0.00  0.00    +0.042 C 
ATOM      4  C   UNK A  1       -1.937   1.599  -0.094  0.00  0.00    +0.160 C 
ATOM      5  C   UNK A  1       -2.176   2.666  -1.215  0.00  0.00    +0.237 C 
ATOM      6  O   UNK A  1       -1.234   3.333  -1.663  0.00  0.00    -0.274 OA
ATOM      7  N   UNK A  2       -3.481   2.873  -1.603  0.00  0.00    -0.275 N 
ATOM      8  C   UNK A  2       -3.750   4.042  -2.527  0.00  0.00    +0.186 C 
ATOM      9  C   UNK A  2       -5.023   3.800  -3.395  0.00  0.00    +0.034 C 
ATOM     10  C   UNK A  2       -6.228   3.322  -2.593  0.00  0.00    +0.005 C 
ATOM     11  C   UNK A  2       -5.848   2.017  -1.907  0.00  0.00    +0.034 C 
ATOM     12  C   UNK A  2       -4.621   2.124  -0.974  0.00  0.00    +0.135 C 
ENDROOT
BRANCH   4  13
ATOM     13  N   UNK A  1       -0.490   1.321  -0.087  0.00  0.00    -0.303 N 
ATOM     14  H   UNK A  1        0.060   1.887  -0.718  0.00  0.00    +0.149 HD
ATOM     15  C   UNK A  0        0.112   0.256   0.476  0.00  0.00    +0.227 C 
ATOM     16  O   UNK A  0       -0.500  -0.615   1.098  0.00  0.00    -0.275 OA
BRANCH  15  17
ATOM     17  C   UNK A  0        1.638   0.167   0.300  0.00  0.00    +0.133 C 
BRANCH  17  18
ATOM     18  S   UNK A  0        2.389   0.701   1.870  0.00  0.00    -0.165 S 
ATOM     19  H   UNK A  0        2.052   1.989   1.756  0.00  0.00    +0.102 HD
ENDBRANCH  17  18
BRANCH  17  20
ATOM     20  C   UNK A  0        2.113  -1.264  -0.064  0.00  0.00    +0.058 C 
BRANCH  20  21
ATOM     21  C   UNK A  0        3.589  -1.346  -0.435  0.00  0.00    -0.046 A 
ATOM     22  C   UNK A  0        4.519  -1.841   0.483  0.00  0.00    +0.004 A 
ATOM     23  C   UNK A  0        5.867  -1.912   0.139  0.00  0.00    +0.000 A 
ATOM     24  C   UNK A  0        6.280  -1.489  -1.123  0.00  0.00    +0.000 A 
ATOM     25  C   UNK A  0        5.357  -0.997  -2.045  0.00  0.00    +0.000 A 
ATOM     26  C   UNK A  0        4.010  -0.926  -1.700  0.00  0.00    +0.004 A 
ENDBRANCH  20  21
ENDBRANCH  17  20
ENDBRANCH  15  17
ENDBRANCH   4  13
BRANCH   8  27
ATOM     27  C   UNK A  2       -3.807   5.444  -1.808  0.00  0.00    +0.325 C 
ATOM     28  O   UNK A  2       -4.148   6.436  -2.494  0.00  0.00    -0.249 OA
BRANCH  27  29
ATOM     29  O   UNK A  2       -3.468   5.552  -0.607  0.00  0.00    -0.479 OA
ATOM     30  H   UNK A  2       -3.218   4.792  -0.120  0.00  0.00    +0.295 HD
ENDBRANCH  27  29
ENDBRANCH   8  27
TORSDOF 7
