REMARK  Name = DB00599
REMARK                            x       y       z     vdW  Elec       q    Type
REMARK                         _______ _______ _______ _____ _____    ______ ____
ROOT
ATOM      1  S   LIG    1       -2.239  -3.958  -0.190  0.00  0.00    -0.018 S 
ATOM      2  C   LIG    1       -1.464  -2.497  -0.091  0.00  0.00    +0.143 C 
ATOM      3  N   LIG    1       -1.205  -1.923   1.119  0.00  0.00    -0.267 N 
ATOM      4  H   LIG    1       -1.561  -2.446   1.906  0.00  0.00    +0.157 HD
ATOM      5  C   LIG    1       -0.610  -0.734   1.365  0.00  0.00    +0.234 C 
ATOM      6  C   LIG    1       -0.037  -0.005   0.086  0.00  0.00    +0.126 C 
ATOM      7  C   LIG    1       -0.434  -0.646  -1.302  0.00  0.00    +0.234 C 
ATOM      8  O   LIG    1       -0.176  -0.140  -2.395  0.00  0.00    -0.274 OA
ATOM      9  O   LIG    1       -0.533  -0.290   2.510  0.00  0.00    -0.274 OA
ATOM     10  N   LIG    1       -1.077  -1.832  -1.217  0.00  0.00    -0.267 N 
ATOM     11  H   LIG    1       -1.334  -2.296  -2.077  0.00  0.00    +0.157 HD
ENDROOT
BRANCH   6  12
ATOM     12  C   LIG    1       -0.671   1.437   0.081  0.00  0.00    +0.022 C 
ATOM     13  C   LIG    1       -2.205   1.555  -0.095  0.00  0.00    +0.005 C 
ENDBRANCH   6  12
BRANCH   6  14
ATOM     14  C   LIG    1        1.551  -0.038   0.157  0.00  0.00    +0.010 C 
ATOM     15  C   LIG    1        2.160   0.907   1.227  0.00  0.00    +0.009 C 
BRANCH  14  16
ATOM     16  C   LIG    1        2.181  -1.465   0.256  0.00  0.00    +0.004 C 
BRANCH  16  17
ATOM     17  C   LIG    1        3.686  -1.541  -0.075  0.00  0.00    -0.003 C 
ATOM     18  C   LIG    1        4.218  -2.980  -0.101  0.00  0.00    +0.004 C 
ENDBRANCH  16  17
ENDBRANCH  14  16
ENDBRANCH   6  14
TORSDOF 4
