REMARK  Name = DB00259
REMARK                            x       y       z     vdW  Elec       q    Type
REMARK                         _______ _______ _______ _____ _____    ______ ____
ROOT
ATOM      1  C   LIG    1        1.749  -0.023  -0.066  0.00  0.00    +0.105 A 
ATOM      2  C   LIG    1        2.426   0.214   1.132  0.00  0.00    +0.030 A 
ATOM      3  C   LIG    1        3.818   0.246   1.146  0.00  0.00    +0.024 A 
ATOM      4  C   LIG    1        4.527   0.041  -0.037  0.00  0.00    +0.025 A 
ATOM      5  C   LIG    1        3.853  -0.198  -1.235  0.00  0.00    +0.024 A 
ATOM      6  C   LIG    1        2.461  -0.231  -1.250  0.00  0.00    +0.030 A 
ENDROOT
BRANCH   1   7
ATOM      7  S   LIG    1       -0.040  -0.063  -0.061  0.00  0.00    +0.056 S 
ATOM      8  O   LIG    1       -0.495  -0.167  -1.452  0.00  0.00    -0.153 OA
ATOM      9  O   LIG    1       -0.435  -1.058   0.941  0.00  0.00    -0.153 OA
BRANCH   7  10
ATOM     10  N   LIG    1       -0.520   1.512   0.541  0.00  0.00    -0.204 NA
ATOM     11  H   LIG    1       -0.302   2.291  -0.085  0.00  0.00    +0.144 HD
ATOM     12  H   LIG    1       -0.265   1.691   1.516  0.00  0.00    +0.144 HD
ENDBRANCH   7  10
ENDBRANCH   1   7
BRANCH   4  13
ATOM     13  N   LIG    1        5.921   0.073  -0.023  0.00  0.00    -0.358 N 
ATOM     14  H   LIG    1        6.431  -0.083  -0.880  0.00  0.00    +0.142 HD
ATOM     15  H   LIG    1        6.405   0.241   0.847  0.00  0.00    +0.142 HD
ENDBRANCH   4  13
TORSDOF 3
