REMARK  Name = DB00192
REMARK                            x       y       z     vdW  Elec       q    Type
REMARK                         _______ _______ _______ _____ _____    ______ ____
ROOT
ATOM      1  C   LIG    1        3.994  -2.908   0.013  0.00  0.00    +0.098 C 
ATOM      2  C   LIG    1        3.417  -3.740  -1.136  0.00  0.00    -0.020 A 
ATOM      3  C   LIG    1        3.503  -3.537  -2.518  0.00  0.00    +0.005 A 
ATOM      4  C   LIG    1        2.885  -4.428  -3.396  0.00  0.00    +0.000 A 
ATOM      5  C   LIG    1        2.175  -5.521  -2.899  0.00  0.00    +0.001 A 
ATOM      6  C   LIG    1        2.083  -5.728  -1.522  0.00  0.00    +0.009 A 
ATOM      7  C   LIG    1        2.706  -4.837  -0.646  0.00  0.00    -0.013 A 
ATOM      8  C   LIG    1        2.775  -4.822   0.823  0.00  0.00    -0.013 A 
ATOM      9  C   LIG    1        2.233  -5.695   1.768  0.00  0.00    +0.009 A 
ATOM     10  C   LIG    1        2.445  -5.461   3.126  0.00  0.00    +0.001 A 
ATOM     11  C   LIG    1        3.194  -4.358   3.538  0.00  0.00    +0.000 A 
ATOM     12  C   LIG    1        3.733  -3.487   2.591  0.00  0.00    +0.005 A 
ATOM     13  C   LIG    1        3.529  -3.716   1.225  0.00  0.00    -0.020 A 
ENDROOT
BRANCH   1  15
ATOM     14  O   LIG    1        6.194  -3.545  -0.846  0.00  0.00    -0.275 OA
ATOM     15  C   LIG    1        5.556  -2.872  -0.035  0.00  0.00    +0.225 C 
ATOM     16  N   LIG    1        6.202  -2.097   0.845  0.00  0.00    -0.328 N 
ATOM     17  H   LIG    1        7.211  -2.061   0.841  0.00  0.00    +0.145 HD
ATOM     18  H   LIG    1        5.686  -1.548   1.517  0.00  0.00    +0.145 HD
ENDBRANCH   1  15
BRANCH   1  19
ATOM     19  C   LIG    1        3.442  -1.445   0.010  0.00  0.00    +0.027 C 
BRANCH  19  20
ATOM     20  C   LIG    1        1.902  -1.312   0.045  0.00  0.00    +0.017 C 
BRANCH  20  21
ATOM     21  C   LIG    1        1.442   0.155   0.069  0.00  0.00    +0.081 C 
BRANCH  21  22
ATOM     22  N   LIG    1       -0.013   0.216   0.138  0.00  0.00    -0.314 NA
ATOM     23  H   LIG    1       -0.423  -0.369  -0.576  0.00  0.00    +0.122 HD
BRANCH  22  24
ATOM     24  C   LIG    1       -0.554   1.571   0.055  0.00  0.00    +0.047 C 
ATOM     25  C   LIG    1       -2.078   1.453  -0.116  0.00  0.00    +0.023 C 
ATOM     26  C   LIG    1       -0.194   2.414   1.295  0.00  0.00    +0.023 C 
ENDBRANCH  22  24
ENDBRANCH  21  22
ENDBRANCH  20  21
ENDBRANCH  19  20
ENDBRANCH   1  19
TORSDOF 6
