REMARK  Name = DB00524
REMARK                            x       y       z     vdW  Elec       q    Type
REMARK                         _______ _______ _______ _____ _____    ______ ____
ROOT
ATOM      1 CL   LIG    1        1.691   1.442   2.329  0.00  0.00    -0.081 Cl
ATOM      2  C   LIG    1        2.462   0.603   1.026  0.00  0.00    +0.069 A 
ATOM      3  C   LIG    1        1.731  -0.045   0.015  0.00  0.00    +0.124 A 
ATOM      4  C   LIG    1        2.415  -0.698  -1.018  0.00  0.00    +0.045 A 
ATOM      5  C   LIG    1        3.815  -0.696  -1.063  0.00  0.00    +0.060 A 
ATOM      6  C   LIG    1        4.511  -1.472  -2.163  0.00  0.00    +0.254 C 
ATOM      7  N   LIG    1        5.868  -1.276  -2.193  0.00  0.00    -0.249 N 
ATOM      8  C   LIG    1        6.527  -0.189  -1.415  0.00  0.00    +0.163 C 
ATOM      9  C   LIG    1        6.548   1.190  -2.108  0.00  0.00    +0.050 C 
ATOM     10  N   LIG    1        5.933  -0.051  -0.079  0.00  0.00    -0.325 N 
ATOM     11  H   LIG    1        6.485   0.432   0.614  0.00  0.00    +0.148 HD
ATOM     12  O   LIG    1        3.930  -2.273  -2.902  0.00  0.00    -0.270 OA
ATOM     13  C   LIG    1        4.531  -0.086  -0.023  0.00  0.00    +0.042 A 
ATOM     14  C   LIG    1        3.857   0.583   0.997  0.00  0.00    +0.045 A 
ENDROOT
BRANCH   7  15
ATOM     15  C   LIG    1        6.678  -1.976  -3.110  0.00  0.00    +0.041 A 
ATOM     16  C   LIG    1        6.738  -1.538  -4.440  0.00  0.00    +0.024 A 
ATOM     17  C   LIG    1        7.539  -2.207  -5.364  0.00  0.00    +0.002 A 
ATOM     18  C   LIG    1        8.286  -3.314  -4.966  0.00  0.00    +0.000 A 
ATOM     19  C   LIG    1        8.233  -3.754  -3.643  0.00  0.00    +0.005 A 
ATOM     20  C   LIG    1        7.434  -3.092  -2.704  0.00  0.00    -0.029 A 
ATOM     21  C   LIG    1        7.392  -3.610  -1.272  0.00  0.00    +0.045 C 
ENDBRANCH   7  15
BRANCH   3  22
ATOM     22  S   LIG    1       -0.068  -0.063   0.013  0.00  0.00    +0.057 S 
ATOM     23  O   LIG    1       -0.513  -0.716  -1.223  0.00  0.00    -0.153 OA
ATOM     24  O   LIG    1       -0.495  -0.572   1.321  0.00  0.00    -0.153 OA
BRANCH  22  25
ATOM     25  N   LIG    1       -0.541   1.622  -0.091  0.00  0.00    -0.203 NA
ATOM     26  H   LIG    1       -0.303   2.075  -0.978  0.00  0.00    +0.144 HD
ATOM     27  H   LIG    1       -0.294   2.183   0.729  0.00  0.00    +0.144 HD
ENDBRANCH  22  25
ENDBRANCH   3  22
TORSDOF 3
