REMARK  Name = DB00615
REMARK                            x       y       z     vdW  Elec       q    Type
REMARK                         _______ _______ _______ _____ _____    ______ ____
ROOT
ATOM      1  C   LIG    1       -2.742   0.583  -0.996  0.00  0.00    +0.128 C 
ATOM      2  N   LIG    1       -2.446   1.309  -2.206  0.00  0.00    -0.256 NA
ATOM      3  C   LIG    1       -3.545   1.704  -2.711  0.00  0.00    +0.092 C 
ATOM      4  C   LIG    1       -4.684   1.323  -1.929  0.00  0.00    +0.080 C 
ATOM      5  C   LIG    1       -5.962   1.723  -2.110  0.00  0.00    +0.105 C 
ATOM      6  N   LIG    1       -6.949   1.185  -1.325  0.00  0.00    -0.277 N 
ATOM      7  H   LIG    1       -6.991   0.177  -1.318  0.00  0.00    +0.155 HD
ATOM      8  C   LIG    1       -7.862   1.835  -0.566  0.00  0.00    +0.244 C 
ATOM      9  O   LIG    1       -7.866   3.057  -0.394  0.00  0.00    -0.270 OA
ATOM     10  C   LIG    1       -8.832   0.959   0.075  0.00  0.00    +0.012 C 
ATOM     11  C   LIG    1       -9.481  -0.058  -0.552  0.00  0.00    +0.008 C 
ATOM     12  C   LIG    1       -9.409  -0.424  -1.963  0.00  0.00    -0.003 C 
ATOM     13  C   LIG    1       -9.903  -1.575  -2.450  0.00  0.00    -0.021 C 
ATOM     14  C   LIG    1       -9.840  -2.003  -3.914  0.00  0.00    +0.037 C 
ATOM     15  C   LIG    1      -11.253  -2.200  -4.498  0.00  0.00    +0.014 C 
ATOM     16  C   LIG    1       -8.924  -3.245  -4.169  0.00  0.00    +0.126 C 
ATOM     17  C   LIG    1       -7.374  -2.960  -4.067  0.00  0.00    +0.044 C 
ATOM     18  C   LIG    1       -6.585  -4.245  -3.691  0.00  0.00    +0.013 C 
ATOM     19  C   LIG    1       -6.710  -2.293  -5.338  0.00  0.00    +0.126 C 
ATOM     20  C   LIG    1       -5.604  -1.206  -5.062  0.00  0.00    +0.056 C 
ATOM     21  C   LIG    1       -4.578  -1.624  -3.979  0.00  0.00    +0.014 C 
ATOM     22  C   LIG    1       -4.843  -0.592  -6.308  0.00  0.00    +0.187 C 
ATOM     23  C   LIG    1       -4.304  -1.552  -7.439  0.00  0.00    +0.060 C 
ATOM     24  C   LIG    1       -3.389  -0.852  -8.505  0.00  0.00    +0.150 C 
ATOM     25  C   LIG    1       -2.201  -0.100  -7.912  0.00  0.00    +0.042 C 
ATOM     26  C   LIG    1       -2.019   1.231  -7.941  0.00  0.00    +0.190 C 
ATOM     27  O   LIG    1       -0.916   1.868  -7.468  0.00  0.00    -0.453 OA
ATOM     28  C   LIG    1       -1.116   2.879  -6.503  0.00  0.00    +0.314 C 
ATOM     29  C   LIG    1        0.191   3.662  -6.438  0.00  0.00    +0.114 C 
ATOM     30  O   LIG    1       -2.127   3.769  -6.838  0.00  0.00    -0.444 OA
ATOM     31  C   LIG    1       -3.163   3.614  -5.958  0.00  0.00    +0.143 A 
ATOM     32  C   LIG    1       -4.377   4.271  -6.099  0.00  0.00    +0.034 A 
ATOM     33  C   LIG    1       -4.607   5.251  -7.248  0.00  0.00    +0.051 C 
ATOM     34  C   LIG    1       -5.393   3.982  -5.177  0.00  0.00    +0.135 A 
ATOM     35  C   LIG    1       -5.185   3.068  -4.107  0.00  0.00    +0.075 A 
ATOM     36  C   LIG    1       -2.899   2.753  -4.906  0.00  0.00    +0.077 A 
ATOM     37  C   LIG    1       -1.529   2.226  -5.132  0.00  0.00    +0.250 C 
ATOM     38  O   LIG    1       -0.792   1.435  -4.545  0.00  0.00    -0.284 OA
ATOM     39  C   LIG    1       -3.545  -2.781  -6.882  0.00  0.00    +0.014 C 
ATOM     40  C   LIG    1       -9.031   1.257   1.558  0.00  0.00    +0.049 C 
ATOM     41  C   LIG    1       -6.348   2.647  -3.212  0.00  0.00    +0.213 C 
ATOM     42  O   LIG    1       -7.509   3.013  -3.415  0.00  0.00    -0.285 OA
ATOM     43  C   LIG    1       -3.880   2.520  -3.915  0.00  0.00    +0.031 A 
ATOM     44  N   LIG    1       -4.179   0.457  -0.994  0.00  0.00    -0.317 N 
ATOM     45  H   LIG    1       -4.631   0.293  -0.106  0.00  0.00    +0.148 HD
ATOM     46  C   LIG    1       -2.195   1.387   0.213  0.00  0.00    +0.065 C 
ATOM     47  C   LIG    1       -0.652   1.445   0.271  0.00  0.00    +0.088 C 
ATOM     48  N   LIG    1       -0.055   0.103   0.241  0.00  0.00    -0.302 NA
ATOM     49  C   LIG    1       -0.473  -0.660  -0.945  0.00  0.00    +0.088 C 
ATOM     50  C   LIG    1       -2.011  -0.782  -1.034  0.00  0.00    +0.065 C 
ENDROOT
BRANCH  16  51
ATOM     51  O   LIG    1       -9.354  -4.295  -3.312  0.00  0.00    -0.391 OA
ATOM     52  H   LIG    1       -8.834  -5.078  -3.507  0.00  0.00    +0.210 HD
ENDBRANCH  16  51
BRANCH  19  53
ATOM     53  O   LIG    1       -7.694  -1.732  -6.177  0.00  0.00    -0.391 OA
ATOM     54  H   LIG    1       -8.078  -0.972  -5.734  0.00  0.00    +0.210 HD
ENDBRANCH  19  53
BRANCH  24  55
ATOM     55  O   LIG    1       -4.127   0.010  -9.371  0.00  0.00    -0.375 OA
ATOM     56  C   LIG    1       -4.736  -0.625 -10.489  0.00  0.00    +0.194 C 
ENDBRANCH  24  55
BRANCH  34  57
ATOM     57  O   LIG    1       -6.593   4.635  -5.350  0.00  0.00    -0.506 OA
ATOM     58  H   LIG    1       -6.588   5.231  -6.102  0.00  0.00    +0.292 HD
ENDBRANCH  34  57
BRANCH  22  59
ATOM     59  O   LIG    1       -5.450   0.642  -6.739  0.00  0.00    -0.461 OA
BRANCH  59  60
ATOM     60  C   LIG    1       -6.459   0.766  -7.640  0.00  0.00    +0.304 C 
ATOM     61  O   LIG    1       -6.960  -0.125  -8.324  0.00  0.00    -0.251 OA
ATOM     62  C   LIG    1       -6.923   2.206  -7.788  0.00  0.00    +0.136 C 
ENDBRANCH  59  60
ENDBRANCH  22  59
BRANCH  48  63
ATOM     63  C   LIG    1        1.408   0.152   0.376  0.00  0.00    +0.087 C 
BRANCH  63  64
ATOM     64  C   LIG    1        1.957  -0.868   1.408  0.00  0.00    -0.003 C 
ATOM     65  C   LIG    1        1.529  -2.330   1.166  0.00  0.00    +0.008 C 
ATOM     66  C   LIG    1        3.490  -0.763   1.493  0.00  0.00    +0.008 C 
ENDBRANCH  63  64
ENDBRANCH  48  63
TORSDOF 8
