REMARK  Name = DB00825
REMARK                            x       y       z     vdW  Elec       q    Type
REMARK                         _______ _______ _______ _____ _____    ______ ____
ROOT
ATOM      1  C   LIG    1        1.493  -0.108   0.097  0.00  0.00    +0.020 C 
ATOM      2  C   LIG    1        2.077   0.709   1.290  0.00  0.00    +0.118 C 
ATOM      3  C   LIG    1        3.621   0.747   1.222  0.00  0.00    +0.035 C 
ATOM      4  C   LIG    1        4.214  -0.683   1.242  0.00  0.00    -0.012 C 
ATOM      5  C   LIG    1        5.752  -0.664   1.222  0.00  0.00    +0.007 C 
ATOM      6  C   LIG    1        3.634  -1.503   0.068  0.00  0.00    +0.004 C 
ATOM      7  C   LIG    1        2.092  -1.542   0.120  0.00  0.00    +0.006 C 
ENDROOT
BRANCH   1   9
ATOM      8  C   LIG    1       -0.795  -0.703   1.182  0.00  0.00    +0.007 C 
ATOM      9  C   LIG    1       -0.064  -0.061  -0.015  0.00  0.00    -0.012 C 
ATOM     10  C   LIG    1       -0.582  -0.640  -1.347  0.00  0.00    +0.007 C 
ENDBRANCH   1   9
BRANCH   2  11
ATOM     11  O   LIG    1        1.548   2.017   1.395  0.00  0.00    -0.391 OA
ATOM     12  H   LIG    1        1.980   2.573   0.742  0.00  0.00    +0.210 HD
ENDBRANCH   2  11
TORSDOF 2
