REMARK  Name = DB00805
REMARK                            x       y       z     vdW  Elec       q    Type
REMARK                         _______ _______ _______ _____ _____    ______ ____
ROOT
ATOM      1  C   LIG    1       -0.613   1.313   0.237  0.00  0.00    +0.144 A 
ATOM      2  C   LIG    1       -2.017   1.293   0.250  0.00  0.00    -0.007 A 
ATOM      3  C   LIG    1       -2.813   0.002   0.394  0.00  0.00    +0.047 C 
ATOM      4  C   LIG    1       -2.691   2.510   0.122  0.00  0.00    +0.037 A 
ATOM      5  C   LIG    1       -1.950   3.690  -0.008  0.00  0.00    +0.094 A 
ATOM      6  N   LIG    1       -0.587   3.651  -0.019  0.00  0.00    -0.147 NA
ATOM      7  N   LIG    1        0.068   2.487   0.105  0.00  0.00    -0.134 NA
ENDROOT
BRANCH   5   8
ATOM      8  C   LIG    1       -2.589   5.036  -0.167  0.00  0.00    +0.002 A 
ATOM      9  C   LIG    1       -1.916   6.088  -0.811  0.00  0.00    +0.010 A 
ATOM     10  C   LIG    1       -2.513   7.337  -0.959  0.00  0.00    +0.001 A 
ATOM     11  C   LIG    1       -3.795   7.551  -0.463  0.00  0.00    +0.000 A 
ATOM     12  C   LIG    1       -4.481   6.527   0.181  0.00  0.00    +0.001 A 
ATOM     13  C   LIG    1       -3.880   5.279   0.327  0.00  0.00    +0.010 A 
ENDBRANCH   5   8
BRANCH   1  14
ATOM     14  N   LIG    1        0.109   0.109   0.355  0.00  0.00    -0.326 N 
ATOM     15  H   LIG    1       -0.409  -0.756   0.299  0.00  0.00    +0.148 HD
BRANCH  14  16
ATOM     16  C   LIG    1        1.558   0.041   0.185  0.00  0.00    +0.118 C 
BRANCH  16  17
ATOM     17  C   LIG    1        1.956  -0.214  -1.283  0.00  0.00    +0.103 C 
BRANCH  17  21
ATOM     18  O   LIG    1        5.796   0.398  -2.878  0.00  0.00    -0.377 OA
ATOM     19  C   LIG    1        5.216  -0.882  -3.100  0.00  0.00    +0.175 C 
ATOM     20  C   LIG    1        3.699  -0.829  -2.824  0.00  0.00    +0.112 C 
ATOM     21  N   LIG    1        3.406  -0.319  -1.478  0.00  0.00    -0.297 NA
ATOM     22  C   LIG    1        4.112   0.944  -1.206  0.00  0.00    +0.112 C 
ATOM     23  C   LIG    1        5.616   0.844  -1.539  0.00  0.00    +0.175 C 
ENDBRANCH  17  21
ENDBRANCH  16  17
ENDBRANCH  14  16
ENDBRANCH   1  14
TORSDOF 5
