REMARK  Name = DB00692
REMARK                            x       y       z     vdW  Elec       q    Type
REMARK                         _______ _______ _______ _____ _____    ______ ____
ROOT
ATOM      1  N   LIG    1       -0.319  -0.271  -0.198  0.00  0.00    -0.288 N 
ENDROOT
BRANCH   1   2
ATOM      2  C   LIG    1       -0.808   1.062  -0.043  0.00  0.00    +0.035 A 
ATOM      3  C   LIG    1        0.019   2.127   0.360  0.00  0.00    +0.024 A 
ATOM      4  C   LIG    1       -0.483   3.419   0.487  0.00  0.00    +0.005 A 
ATOM      5  C   LIG    1       -1.823   3.678   0.208  0.00  0.00    -0.050 A 
ATOM      6  C   LIG    1       -2.364   5.090   0.336  0.00  0.00    +0.044 C 
ATOM      7  C   LIG    1       -2.656   2.643  -0.211  0.00  0.00    +0.005 A 
ATOM      8  C   LIG    1       -2.151   1.352  -0.337  0.00  0.00    +0.024 A 
ENDBRANCH   1   2
BRANCH   1  13
ATOM      9  C   LIG    1       -1.571  -3.653  -1.189  0.00  0.00    +0.119 A 
ATOM     10  C   LIG    1       -2.646  -3.805  -0.315  0.00  0.00    +0.045 A 
ATOM     11  C   LIG    1       -2.952  -2.793   0.592  0.00  0.00    +0.005 A 
ATOM     12  C   LIG    1       -2.183  -1.630   0.625  0.00  0.00    +0.024 A 
ATOM     13  C   LIG    1       -1.100  -1.455  -0.251  0.00  0.00    +0.038 A 
ATOM     14  C   LIG    1       -0.803  -2.489  -1.155  0.00  0.00    +0.068 A 
BRANCH   9  15
ATOM     15  O   LIG    1       -1.268  -4.647  -2.081  0.00  0.00    -0.507 OA
ATOM     16  H   LIG    1       -1.861  -5.399  -2.017  0.00  0.00    +0.292 HD
ENDBRANCH   9  15
ENDBRANCH   1  13
BRANCH   1  17
ATOM     17  C   LIG    1        1.146  -0.510  -0.190  0.00  0.00    +0.238 C 
BRANCH  17  18
ATOM     18  C   LIG    1        1.798  -0.076  -1.511  0.00  0.00    +0.299 C 
ATOM     19  N   LIG    1        1.235   0.194  -2.622  0.00  0.00    -0.082 NA
ATOM     20  C   LIG    1        2.267   0.563  -3.558  0.00  0.00    +0.333 C 
ATOM     21  C   LIG    1        3.597   0.210  -2.907  0.00  0.00    +0.273 C 
ATOM     22  N   LIG    1        3.171  -0.020  -1.553  0.00  0.00    -0.232 N 
ATOM     23  H   LIG    1        3.850  -0.570  -1.046  0.00  0.00    +0.291 HD
ENDBRANCH  17  18
ENDBRANCH   1  17
TORSDOF 5
