REMARK  Name = DB00981
REMARK                            x       y       z     vdW  Elec       q    Type
REMARK                         _______ _______ _______ _____ _____    ______ ____
ROOT
ATOM      1  C   LIG    1        1.390   0.094  -0.077  0.00  0.00    +0.134 A 
ATOM      2  C   LIG    1        2.065   0.105  -1.303  0.00  0.00    +0.048 A 
ATOM      3  C   LIG    1        3.458   0.175  -1.338  0.00  0.00    +0.027 A 
ATOM      4  C   LIG    1        4.180   0.204  -0.143  0.00  0.00    +0.035 A 
ATOM      5  C   LIG    1        3.517   0.191   1.087  0.00  0.00    -0.014 A 
ATOM      6  C   LIG    1        4.492   0.236   2.247  0.00  0.00    +0.028 C 
ATOM      7  C   LIG    1        4.295  -0.984   3.177  0.00  0.00    +0.019 C 
ATOM      8  C   LIG    1        4.531   1.542   3.064  0.00  0.00    +0.030 C 
ATOM      9  C   LIG    1        5.740   2.288   2.496  0.00  0.00    +0.087 C 
ATOM     10  N   LIG    1        6.694   1.259   2.094  0.00  0.00    -0.287 NA
ATOM     11  C   LIG    1        7.501   0.788   3.220  0.00  0.00    +0.106 C 
ATOM     12  C   LIG    1        5.853   0.201   1.521  0.00  0.00    +0.154 C 
ATOM     13  N   LIG    1        5.541   0.374   0.103  0.00  0.00    -0.316 N 
ATOM     14  C   LIG    1        6.629  -0.107  -0.740  0.00  0.00    +0.131 C 
ATOM     15  C   LIG    1        2.121   0.132   1.116  0.00  0.00    +0.052 A 
ENDROOT
BRANCH   1  16
ATOM     16  O   LIG    1        0.016   0.014  -0.048  0.00  0.00    -0.412 OA
BRANCH  16  17
ATOM     17  C   LIG    1       -0.722   1.155   0.009  0.00  0.00    +0.405 C 
ATOM     18  N   LIG    1       -2.065   0.813   0.040  0.00  0.00    -0.284 N 
ATOM     19  H   LIG    1       -2.321  -0.163   0.018  0.00  0.00    +0.152 HD
ATOM     20  C   LIG    1       -3.120   1.816   0.104  0.00  0.00    +0.131 C 
ATOM     21  O   LIG    1       -0.268   2.303   0.028  0.00  0.00    -0.226 OA
ENDBRANCH  16  17
ENDBRANCH   1  16
TORSDOF 2
