REMARK  Name = DB00786
REMARK                            x       y       z     vdW  Elec       q    Type
REMARK                         _______ _______ _______ _____ _____    ______ ____
ROOT
ATOM      1  C   LIG    1       -0.150  -0.110  -0.119  0.00  0.00    +0.113 C 
ENDROOT
BRANCH   1   2
ATOM      2  C   LIG    1        1.391  -0.064  -0.258  0.00  0.00    +0.220 C 
ATOM      3  N   LIG    1        1.933   1.136  -0.526  0.00  0.00    -0.303 N 
ATOM      4  H   LIG    1        1.325   1.936  -0.622  0.00  0.00    +0.149 HD
ATOM      5  O   LIG    1        2.056  -1.092  -0.122  0.00  0.00    -0.275 OA
BRANCH   3   6
ATOM      6  C   LIG    1        3.365   1.422  -0.675  0.00  0.00    +0.164 C 
BRANCH   6   7
ATOM      7  C   LIG    1        3.682   2.664   0.188  0.00  0.00    +0.234 C 
ATOM      8  N   LIG    1        4.864   2.651   0.823  0.00  0.00    -0.317 N 
ATOM      9  H   LIG    1        5.478   1.858   0.708  0.00  0.00    +0.148 HD
ATOM     10  C   LIG    1        5.341   3.736   1.669  0.00  0.00    +0.128 C 
ATOM     11  O   LIG    1        2.874   3.593   0.249  0.00  0.00    -0.274 OA
ENDBRANCH   6   7
BRANCH   6  12
ATOM     12  C   LIG    1        3.823   1.535  -2.182  0.00  0.00    -0.011 C 
ATOM     13  C   LIG    1        5.340   1.833  -2.312  0.00  0.00    +0.013 C 
ATOM     14  C   LIG    1        3.551   0.199  -2.922  0.00  0.00    +0.013 C 
ATOM     15  C   LIG    1        3.038   2.644  -2.932  0.00  0.00    +0.013 C 
ENDBRANCH   6  12
ENDBRANCH   3   6
ENDBRANCH   1   2
BRANCH   1  16
ATOM     16  C   LIG    1       -0.786  -0.941  -1.289  0.00  0.00    +0.214 C 
BRANCH  16  17
ATOM     17  C   LIG    1       -2.326  -1.064  -1.199  0.00  0.00    +0.265 C 
ATOM     18  N   LIG    1       -2.791  -2.183  -0.614  0.00  0.00    -0.195 N 
ATOM     19  H   LIG    1       -2.267  -2.970  -0.259  0.00  0.00    +0.182 HD
ATOM     20  O   LIG    1       -3.057  -0.172  -1.641  0.00  0.00    -0.271 OA
BRANCH  18  21
ATOM     21  O   LIG    1       -4.175  -2.360  -0.522  0.00  0.00    -0.295 OA
ATOM     22  H   LIG    1       -4.353  -3.050  -1.165  0.00  0.00    +0.241 HD
ENDBRANCH  18  21
ENDBRANCH  16  17
BRANCH  16  23
ATOM     23  O   LIG    1       -0.472  -0.335  -2.539  0.00  0.00    -0.382 OA
ATOM     24  H   LIG    1       -0.805  -0.894  -3.244  0.00  0.00    +0.210 HD
ENDBRANCH  16  23
ENDBRANCH   1  16
BRANCH   1  25
ATOM     25  C   LIG    1       -0.563  -0.619   1.302  0.00  0.00    +0.018 C 
BRANCH  25  26
ATOM     26  C   LIG    1        0.064   0.096   2.532  0.00  0.00    -0.016 C 
ATOM     27  C   LIG    1       -0.236   1.607   2.562  0.00  0.00    +0.007 C 
ATOM     28  C   LIG    1       -0.387  -0.575   3.842  0.00  0.00    +0.007 C 
ENDBRANCH  25  26
ENDBRANCH   1  25
TORSDOF 10
