REMARK  Name = DB00779
REMARK                            x       y       z     vdW  Elec       q    Type
REMARK                         _______ _______ _______ _____ _____    ______ ____
ROOT
ATOM      1  O   LIG    1       -4.091   0.122  -0.035  0.00  0.00    -0.286 OA
ATOM      2  C   LIG    1       -2.860   0.063   0.023  0.00  0.00    +0.205 A 
ATOM      3  C   LIG    1       -2.066  -1.194   0.092  0.00  0.00    +0.122 A 
ATOM      4  C   LIG    1       -0.710  -1.134   0.149  0.00  0.00    +0.106 A 
ATOM      5  N   LIG    1        0.047   0.026   0.135  0.00  0.00    -0.331 N 
ATOM      6  C   LIG    1       -0.605   1.284   0.069  0.00  0.00    +0.145 A 
ATOM      7  N   LIG    1        0.153   2.417   0.051  0.00  0.00    -0.234 NA
ATOM      8  C   LIG    1       -0.473   3.617  -0.013  0.00  0.00    +0.041 A 
ATOM      9  C   LIG    1        0.432   4.834  -0.028  0.00  0.00    +0.065 C 
ATOM     10  C   LIG    1       -1.861   3.740  -0.062  0.00  0.00    +0.024 A 
ATOM     11  C   LIG    1       -2.632   2.579  -0.046  0.00  0.00    +0.017 A 
ATOM     12  C   LIG    1       -2.019   1.316   0.020  0.00  0.00    +0.065 A 
ENDROOT
BRANCH   3  13
ATOM     13  C   LIG    1       -2.720  -2.492   0.133  0.00  0.00    +0.342 C 
ATOM     14  O   LIG    1       -3.766  -2.721   0.739  0.00  0.00    -0.245 OA
BRANCH  13  15
ATOM     15  O   LIG    1       -2.073  -3.443  -0.607  0.00  0.00    -0.477 OA
ATOM     16  H   LIG    1       -2.526  -4.288  -0.583  0.00  0.00    +0.295 HD
ENDBRANCH  13  15
ENDBRANCH   3  13
BRANCH   5  17
ATOM     17  C   LIG    1        1.505  -0.106   0.033  0.00  0.00    +0.120 C 
ATOM     18  C   LIG    1        2.012  -0.079  -1.417  0.00  0.00    +0.027 C 
ENDBRANCH   5  17
TORSDOF 3
