REMARK  Name = DB00572
REMARK                            x       y       z     vdW  Elec       q    Type
REMARK                         _______ _______ _______ _____ _____    ______ ____
ROOT
ATOM      1  C   LIG    1        0.032   0.092  -0.360  0.00  0.00    +0.317 C 
ATOM      2  O   LIG    1       -0.596   0.947  -0.990  0.00  0.00    -0.250 OA
ENDROOT
BRANCH   1   3
ATOM      3  O   LIG    1       -0.503  -0.979   0.269  0.00  0.00    -0.461 OA
BRANCH   3   4
ATOM      4  C   LIG    1       -1.909  -1.229   0.266  0.00  0.00    +0.179 C 
ATOM      5  C   LIG    1       -2.346  -1.925  -1.063  0.00  0.00    +0.063 C 
ATOM      6  C   LIG    1       -2.253  -3.477  -1.031  0.00  0.00    +0.060 C 
ATOM      7  N   LIG    1       -3.051  -3.924   0.112  0.00  0.00    -0.299 NA
ATOM      8  C   LIG    1       -3.441  -5.332   0.025  0.00  0.00    +0.105 C 
ATOM      9  C   LIG    1       -2.155  -3.645   1.236  0.00  0.00    +0.060 C 
ATOM     10  C   LIG    1       -0.756  -4.101   0.768  0.00  0.00    +0.020 C 
ATOM     11  C   LIG    1       -0.822  -3.985  -0.760  0.00  0.00    +0.020 C 
ATOM     12  C   LIG    1       -2.237  -2.115   1.504  0.00  0.00    +0.063 C 
ENDBRANCH   3   4
ENDBRANCH   1   3
BRANCH   1  13
ATOM     13  C   LIG    1        1.567   0.126  -0.234  0.00  0.00    +0.153 C 
BRANCH  13  14
ATOM     14  C   LIG    1        1.938   0.754   1.115  0.00  0.00    -0.032 A 
ATOM     15  C   LIG    1        1.691   2.109   1.377  0.00  0.00    +0.004 A 
ATOM     16  C   LIG    1        2.040   2.658   2.608  0.00  0.00    +0.000 A 
ATOM     17  C   LIG    1        2.639   1.855   3.576  0.00  0.00    +0.000 A 
ATOM     18  C   LIG    1        2.895   0.509   3.323  0.00  0.00    +0.000 A 
ATOM     19  C   LIG    1        2.545  -0.040   2.093  0.00  0.00    +0.004 A 
ENDBRANCH  13  14
BRANCH  13  20
ATOM     20  C   LIG    1        2.254   0.813  -1.442  0.00  0.00    +0.175 C 
BRANCH  20  21
ATOM     21  O   LIG    1        3.659   0.693  -1.358  0.00  0.00    -0.394 OA
ATOM     22  H   LIG    1        4.049   1.114  -2.127  0.00  0.00    +0.209 HD
ENDBRANCH  20  21
ENDBRANCH  13  20
ENDBRANCH   1  13
TORSDOF 6
