REMARK  Name = DB00106
REMARK                            x       y       z     vdW  Elec       q    Type
REMARK                         _______ _______ _______ _____ _____    ______ ____
ROOT
ATOM      1  C   LIG    1       -1.792  -1.011  -0.495  0.00  0.00    +0.166 C 
ENDROOT
BRANCH   1   2
ATOM      2  C   LIG    1       -0.326  -0.585  -0.256  0.00  0.00    +0.234 C 
ATOM      3  N   LIG    1        0.257  -1.095   0.847  0.00  0.00    -0.302 N 
ATOM      4  H   LIG    1       -0.294  -1.697   1.441  0.00  0.00    +0.150 HD
ATOM      5  O   LIG    1        0.229   0.180  -1.045  0.00  0.00    -0.274 OA
BRANCH   3   6
ATOM      6  C   LIG    1        1.651  -0.905   1.280  0.00  0.00    +0.168 C 
BRANCH   6   7
ATOM      7  C   LIG    1        2.633  -1.417   0.211  0.00  0.00    +0.234 C 
ATOM      8  O   LIG    1        3.404  -0.638  -0.353  0.00  0.00    -0.274 OA
ATOM      9  N   LIG    1        2.544  -2.727  -0.067  0.00  0.00    -0.302 N 
ATOM     10  H   LIG    1        1.883  -3.297   0.441  0.00  0.00    +0.150 HD
BRANCH   9  11
ATOM     11  C   LIG    1        3.240  -3.390  -1.169  0.00  0.00    +0.159 C 
BRANCH  11  12
ATOM     12  C   LIG    1        2.575  -3.043  -2.512  0.00  0.00    +0.234 C 
ATOM     13  O   LIG    1        1.357  -2.860  -2.563  0.00  0.00    -0.274 OA
ATOM     14  N   LIG    1        3.398  -2.977  -3.568  0.00  0.00    -0.302 N 
ATOM     15  H   LIG    1        4.384  -3.158  -3.445  0.00  0.00    +0.150 HD
BRANCH  14  16
ATOM     16  C   LIG    1        2.987  -2.588  -4.914  0.00  0.00    +0.159 C 
BRANCH  16  17
ATOM     17  C   LIG    1        3.633  -3.553  -5.928  0.00  0.00    +0.237 C 
ATOM     18  N   LIG    1        2.939  -4.666  -6.272  0.00  0.00    -0.288 N 
ATOM     19  C   LIG    1        1.741  -5.178  -5.605  0.00  0.00    +0.109 C 
ATOM     20  C   LIG    1        1.752  -6.670  -5.903  0.00  0.00    +0.021 C 
ATOM     21  C   LIG    1        2.337  -6.728  -7.302  0.00  0.00    +0.033 C 
ATOM     22  C   LIG    1        3.365  -5.581  -7.354  0.00  0.00    +0.162 C 
ATOM     23  O   LIG    1        4.743  -3.276  -6.385  0.00  0.00    -0.274 OA
BRANCH  22  24
ATOM     24  C   LIG    1        3.438  -4.968  -8.770  0.00  0.00    +0.234 C 
ATOM     25  N   LIG    1        2.750  -3.835  -8.991  0.00  0.00    -0.303 N 
ATOM     26  H   LIG    1        2.209  -3.431  -8.240  0.00  0.00    +0.149 HD
ATOM     27  O   LIG    1        4.118  -5.539  -9.622  0.00  0.00    -0.274 OA
BRANCH  25  28
ATOM     28  C   LIG    1        2.718  -3.102 -10.255  0.00  0.00    +0.156 C 
ATOM     29  C   LIG    1        4.013  -2.281 -10.411  0.00  0.00    +0.038 C 
BRANCH  28  30
ATOM     30  C   LIG    1        1.475  -2.194 -10.303  0.00  0.00    +0.231 C 
ATOM     31  O   LIG    1        1.220  -1.434  -9.369  0.00  0.00    -0.274 OA
ATOM     32  N   LIG    1        0.727  -2.256 -11.408  0.00  0.00    -0.328 N 
ATOM     33  H   LIG    1        0.975  -2.883 -12.159  0.00  0.00    +0.145 HD
ATOM     34  H   LIG    1       -0.092  -1.673 -11.497  0.00  0.00    +0.145 HD
ENDBRANCH  28  30
ENDBRANCH  25  28
ENDBRANCH  22  24
ENDBRANCH  16  17
BRANCH  16  35
ATOM     35  C   LIG    1        3.317  -1.098  -5.175  0.00  0.00    +0.032 C 
BRANCH  35  36
ATOM     36  C   LIG    1        2.932  -0.579  -6.579  0.00  0.00    +0.003 C 
BRANCH  36  37
ATOM     37  C   LIG    1        3.248   0.911  -6.808  0.00  0.00    +0.015 C 
BRANCH  37  38
ATOM     38  C   LIG    1        2.401   1.866  -5.948  0.00  0.00    +0.081 C 
BRANCH  38  39
ATOM     39  N   LIG    1        2.713   3.250  -6.285  0.00  0.00    -0.314 NA
ATOM     40  H   LIG    1        3.711   3.400  -6.255  0.00  0.00    +0.122 HD
BRANCH  39  41
ATOM     41  C   LIG    1        2.032   4.228  -5.438  0.00  0.00    +0.047 C 
ATOM     42  C   LIG    1        2.642   5.608  -5.738  0.00  0.00    +0.023 C 
ATOM     43  C   LIG    1        0.505   4.228  -5.667  0.00  0.00    +0.023 C 
ENDBRANCH  39  41
ENDBRANCH  38  39
ENDBRANCH  37  38
ENDBRANCH  36  37
ENDBRANCH  35  36
ENDBRANCH  16  35
ENDBRANCH  14  16
ENDBRANCH  11  12
BRANCH  11  44
ATOM     44  C   LIG    1        3.229  -4.917  -0.935  0.00  0.00    +0.034 C 
BRANCH  44  45
ATOM     45  C   LIG    1        3.978  -5.383   0.336  0.00  0.00    -0.015 C 
ATOM     46  C   LIG    1        3.784  -6.896   0.568  0.00  0.00    +0.007 C 
ATOM     47  C   LIG    1        5.469  -4.982   0.328  0.00  0.00    +0.007 C 
ENDBRANCH  44  45
ENDBRANCH  11  44
ENDBRANCH   9  11
ENDBRANCH   6   7
BRANCH   6  48
ATOM     48  C   LIG    1        1.932   0.563   1.702  0.00  0.00    +0.127 C 
BRANCH  48  49
ATOM     49  C   LIG    1        1.048   1.047   2.854  0.00  0.00    +0.213 C 
ATOM     50  O   LIG    1        0.277   1.988   2.689  0.00  0.00    -0.276 OA
ATOM     51  N   LIG    1        1.161   0.408   4.021  0.00  0.00    -0.329 N 
ATOM     52  H   LIG    1        1.811  -0.358   4.126  0.00  0.00    +0.145 HD
ATOM     53  H   LIG    1        0.582   0.678   4.804  0.00  0.00    +0.145 HD
ENDBRANCH  48  49
ENDBRANCH   6  48
ENDBRANCH   3   6
ENDBRANCH   1   2
BRANCH   1  56
ATOM     54  C   LIG    1       -3.088   0.446   1.097  0.00  0.00    +0.239 C 
ATOM     55  O   LIG    1       -2.776   1.490   0.521  0.00  0.00    -0.273 OA
ATOM     56  N   LIG    1       -2.662  -0.787   0.692  0.00  0.00    -0.291 N 
ATOM     57  C   LIG    1       -2.898  -1.985   1.509  0.00  0.00    +0.133 C 
BRANCH  54  58
ATOM     58  CA  LIG    1       -4.055   0.585   2.301  0.00  0.00    +0.185 C 
BRANCH  58  61
ATOM     59  C   LIG    1       -2.750   1.671   4.111  0.00  0.00    +0.234 C 
ATOM     60  O   LIG    1       -2.159   0.641   4.441  0.00  0.00    -0.274 OA
ATOM     61  N   LIG    1       -3.674   1.722   3.139  0.00  0.00    -0.301 N 
ATOM     62  H   LIG    1       -4.128   2.598   2.927  0.00  0.00    +0.150 HD
BRANCH  59  63
ATOM     63  CA  LIG    1       -2.456   3.012   4.819  0.00  0.00    +0.163 C 
BRANCH  63  64
ATOM     64  N   LIG    1       -1.075   3.091   5.311  0.00  0.00    -0.302 N 
ATOM     65  H   LIG    1       -0.464   3.662   4.745  0.00  0.00    +0.150 HD
ATOM     66  C   LIG    1       -0.548   2.480   6.387  0.00  0.00    +0.234 C 
ATOM     67  O   LIG    1       -1.184   1.754   7.151  0.00  0.00    -0.274 OA
BRANCH  66  68
ATOM     68  CA  LIG    1        0.958   2.740   6.619  0.00  0.00    +0.163 C 
BRANCH  68  69
ATOM     69  N   LIG    1        1.611   1.643   7.347  0.00  0.00    -0.302 N 
ATOM     70  H   LIG    1        2.176   1.035   6.773  0.00  0.00    +0.150 HD
ATOM     71  C   LIG    1        1.510   1.356   8.658  0.00  0.00    +0.234 C 
ATOM     72  O   LIG    1        0.845   2.018   9.456  0.00  0.00    -0.274 OA
BRANCH  71  73
ATOM     73  CA  LIG    1        2.250   0.081   9.135  0.00  0.00    +0.163 C 
BRANCH  73  74
ATOM     74  N   LIG    1        2.121  -0.132  10.585  0.00  0.00    -0.304 N 
ATOM     75  H   LIG    1        1.503  -0.885  10.850  0.00  0.00    +0.149 HD
ATOM     76  C   LIG    1        2.718   0.579  11.559  0.00  0.00    +0.211 C 
ATOM     77  O   LIG    1        3.480   1.522  11.351  0.00  0.00    -0.276 OA
ATOM     78  C   LIG    1        2.405   0.164  12.993  0.00  0.00    +0.109 C 
ENDBRANCH  73  74
BRANCH  73  79
ATOM     79  C   LIG    1        3.733   0.003   8.656  0.00  0.00    +0.067 C 
BRANCH  79  80
ATOM     80  C   LIG    1        3.914  -0.483   7.218  0.00  0.00    -0.045 A 
ATOM     81  C   LIG    1        4.562   0.329   6.285  0.00  0.00    +0.012 A 
ATOM     82  C   LIG    1        4.808  -0.135   4.969  0.00  0.00    -0.018 A 
ATOM     83  C   LIG    1        5.488   0.659   4.012  0.00  0.00    +0.008 A 
ATOM     84  C   LIG    1        5.747   0.158   2.739  0.00  0.00    +0.001 A 
ATOM     85  C   LIG    1        5.335  -1.122   2.385  0.00  0.00    +0.001 A 
ATOM     86  C   LIG    1        4.646  -1.921   3.294  0.00  0.00    +0.008 A 
ATOM     87  C   LIG    1        4.373  -1.446   4.601  0.00  0.00    -0.018 A 
ATOM     88  C   LIG    1        3.694  -2.238   5.557  0.00  0.00    +0.009 A 
ATOM     89  C   LIG    1        3.480  -1.756   6.846  0.00  0.00    +0.004 A 
ENDBRANCH  79  80
ENDBRANCH  73  79
ENDBRANCH  71  73
ENDBRANCH  68  69
BRANCH  68  90
ATOM     90  C   LIG    1        1.230   4.142   7.244  0.00  0.00    +0.067 C 
BRANCH  90  91
ATOM     91  C   LIG    1        0.916   5.312   6.310  0.00  0.00    -0.045 A 
ATOM     92  C   LIG    1        0.009   6.297   6.715  0.00  0.00    +0.005 A 
ATOM     93  C   LIG    1       -0.301   7.353   5.863  0.00  0.00    +0.020 A 
ATOM     94  C   LIG    1        0.301   7.428   4.608  0.00  0.00    +0.041 A 
ATOM     95 CL   LIG    1       -0.086   8.737   3.551  0.00  0.00    -0.084 Cl
ATOM     96  C   LIG    1        1.214   6.457   4.201  0.00  0.00    +0.020 A 
ATOM     97  C   LIG    1        1.524   5.400   5.053  0.00  0.00    +0.005 A 
ENDBRANCH  90  91
ENDBRANCH  68  90
ENDBRANCH  66  68
ENDBRANCH  63  64
BRANCH  63  98
ATOM     98  C   LIG    1       -3.510   3.363   5.909  0.00  0.00    +0.068 C 
BRANCH  98 100
ATOM     99  C   LIG    1       -5.022   5.029   4.725  0.00  0.00    +0.114 A 
ATOM    100  C   LIG    1       -4.856   3.775   5.323  0.00  0.00    -0.027 A 
ATOM    101  C   LIG    1       -5.955   2.909   5.358  0.00  0.00    +0.006 A 
ATOM    102  C   LIG    1       -7.168   3.312   4.796  0.00  0.00    +0.020 A 
ATOM    103  C   LIG    1       -7.245   4.579   4.215  0.00  0.00    +0.111 A 
ATOM    104  N   LIG    1       -6.194   5.436   4.173  0.00  0.00    -0.263 NA
ENDBRANCH  98 100
ENDBRANCH  63  98
ENDBRANCH  59  63
ENDBRANCH  58  61
BRANCH  58 105
ATOM    105  C   LIG    1       -5.498   0.794   1.803  0.00  0.00    +0.187 C 
BRANCH 105 106
ATOM    106  O   LIG    1       -6.422   0.468   2.820  0.00  0.00    -0.393 OA
ATOM    107  H   LIG    1       -7.309   0.622   2.486  0.00  0.00    +0.209 HD
ENDBRANCH 105 106
ENDBRANCH  58 105
ENDBRANCH  54  58
ENDBRANCH   1  56
BRANCH   1 108
ATOM    108  C   LIG    1       -2.423  -0.456  -1.806  0.00  0.00    +0.067 C 
BRANCH 108 109
ATOM    109  C   LIG    1       -1.826  -0.978  -3.109  0.00  0.00    -0.045 A 
ATOM    110  C   LIG    1       -1.222  -0.090  -4.026  0.00  0.00    +0.007 A 
ATOM    111  C   LIG    1       -0.721  -0.569  -5.252  0.00  0.00    +0.045 A 
ATOM    112  C   LIG    1       -0.811  -1.939  -5.566  0.00  0.00    +0.117 A 
ATOM    113  C   LIG    1       -1.396  -2.832  -4.648  0.00  0.00    +0.045 A 
ATOM    114  C   LIG    1       -1.907  -2.351  -3.426  0.00  0.00    +0.007 A 
BRANCH 112 115
ATOM    115  O   LIG    1       -0.337  -2.400  -6.760  0.00  0.00    -0.507 OA
ATOM    116  H   LIG    1        0.020  -1.703  -7.318  0.00  0.00    +0.292 HD
ENDBRANCH 112 115
ENDBRANCH 108 109
ENDBRANCH   1 108
TORSDOF 40
