REMARK  Name = DB00552
REMARK                            x       y       z     vdW  Elec       q    Type
REMARK                         _______ _______ _______ _____ _____    ______ ____
ROOT
ATOM      1  C   LIG    1       -3.251   1.246  -0.216  0.00  0.00    +0.183 C 
ATOM      2  C   LIG    1       -3.301   2.284   0.920  0.00  0.00    +0.140 C 
ATOM      3  N   LIG    1       -2.369   3.396   0.778  0.00  0.00    -0.332 N 
ATOM      4  H   LIG    1       -2.806   4.236   0.428  0.00  0.00    +0.147 HD
ATOM      5  C   LIG    1       -0.995   3.325   0.607  0.00  0.00    +0.184 C 
ATOM      6  N   LIG    1       -0.202   2.363   0.326  0.00  0.00    -0.221 NA
ATOM      7  C   LIG    1       -0.627   1.121  -0.057  0.00  0.00    +0.162 A 
ATOM      8  N   LIG    1        0.278   0.100  -0.296  0.00  0.00    -0.288 N 
ATOM      9  C   LIG    1       -0.511  -0.932  -0.748  0.00  0.00    +0.203 A 
ATOM     10  N   LIG    1       -1.788  -0.666  -0.764  0.00  0.00    -0.236 NA
ATOM     11  C   LIG    1       -1.895   0.581  -0.341  0.00  0.00    +0.115 A 
ENDROOT
BRANCH   8  12
ATOM     12  C1* LIG    1        1.730   0.122  -0.203  0.00  0.00    +0.225 C 
ATOM     13  O4* LIG    1        2.255  -1.162  -0.378  0.00  0.00    -0.348 OA
ATOM     14  C4* LIG    1        3.477  -1.340   0.337  0.00  0.00    +0.175 C 
ATOM     15  C3* LIG    1        3.684  -0.001   1.064  0.00  0.00    +0.150 C 
ATOM     16  C2* LIG    1        2.285   0.590   1.137  0.00  0.00    +0.088 C 
BRANCH  15  17
ATOM     17  O3* LIG    1        4.587   0.850   0.380  0.00  0.00    -0.389 OA
ATOM     18  H3* LIG    1        4.544   1.724   0.776  0.00  0.00    +0.210 HD
ENDBRANCH  15  17
BRANCH  14  19
ATOM     19  C5* LIG    1        3.316  -2.551   1.279  0.00  0.00    +0.190 C 
BRANCH  19  20
ATOM     20  O5* LIG    1        3.158  -3.747   0.543  0.00  0.00    -0.392 OA
ATOM     21  H5* LIG    1        3.070  -4.477   1.159  0.00  0.00    +0.210 HD
ENDBRANCH  19  20
ENDBRANCH  14  19
ENDBRANCH   8  12
BRANCH   1  22
ATOM     22  O   LIG    1       -3.599   1.834  -1.455  0.00  0.00    -0.384 OA
ATOM     23  H   LIG    1       -3.657   1.138  -2.114  0.00  0.00    +0.210 HD
ENDBRANCH   1  22
TORSDOF 5
