REMARK  Name = DB00635
REMARK                            x       y       z     vdW  Elec       q    Type
REMARK                         _______ _______ _______ _____ _____    ______ ____
ROOT
ATOM      1  C   LIG    1       -1.817  -1.561  -0.695  0.00  0.00    +0.008 C 
ATOM      2  C   LIG    1       -0.562  -0.828  -1.217  0.00  0.00    +0.043 C 
ATOM      3  C   LIG    1        0.018  -0.024  -0.011  0.00  0.00    +0.132 C 
ATOM      4  C   LIG    1       -0.475  -0.851   1.234  0.00  0.00    +0.013 C 
ATOM      5  C   LIG    1        0.363  -2.164   1.444  0.00  0.00    +0.015 C 
ATOM      6  C   LIG    1       -0.562  -0.075   2.581  0.00  0.00    +0.084 C 
ATOM      7  C   LIG    1       -1.359  -0.843   3.657  0.00  0.00    +0.138 C 
ATOM      8  O   LIG    1       -0.885  -1.031   4.776  0.00  0.00    -0.297 OA
ATOM      9  C   LIG    1       -2.764  -1.358   3.200  0.00  0.00    +0.072 C 
ATOM     10  C   LIG    1       -2.706  -2.037   1.784  0.00  0.00    +0.004 C 
ATOM     11  C   LIG    1       -4.132  -2.360   1.292  0.00  0.00    +0.009 C 
ATOM     12  C   LIG    1       -4.882  -3.270   2.275  0.00  0.00    +0.032 C 
ATOM     13  C   LIG    1       -4.951  -2.569   3.630  0.00  0.00    -0.056 C 
ATOM     14  C   LIG    1       -6.139  -2.259   4.203  0.00  0.00    +0.051 C 
ATOM     15  C   LIG    1       -6.308  -1.554   5.472  0.00  0.00    +0.179 C 
ATOM     16  O   LIG    1       -7.406  -1.312   5.969  0.00  0.00    -0.288 OA
ATOM     17  C   LIG    1       -5.046  -1.155   6.086  0.00  0.00    +0.047 C 
ATOM     18  C   LIG    1       -3.835  -1.433   5.564  0.00  0.00    -0.012 C 
ATOM     19  C   LIG    1       -3.570  -2.213   4.260  0.00  0.00    +0.017 C 
ATOM     20  C   LIG    1       -2.851  -3.530   4.662  0.00  0.00    +0.021 C 
ATOM     21  C   LIG    1       -1.928  -1.148   0.780  0.00  0.00    +0.002 C 
ENDROOT
BRANCH   3  22
ATOM     22  C   LIG    1        1.573   0.126  -0.072  0.00  0.00    +0.190 C 
ATOM     23  O   LIG    1        2.261  -0.673  -0.714  0.00  0.00    -0.292 OA
BRANCH  22  24
ATOM     24  C   LIG    1        2.223   1.295   0.702  0.00  0.00    +0.233 C 
BRANCH  24  25
ATOM     25  O   LIG    1        3.635   1.246   0.600  0.00  0.00    -0.387 OA
ATOM     26  H   LIG    1        4.003   2.002   1.064  0.00  0.00    +0.210 HD
ENDBRANCH  24  25
ENDBRANCH  22  24
ENDBRANCH   3  22
BRANCH   3  27
ATOM     27  O   LIG    1       -0.500   1.304  -0.033  0.00  0.00    -0.380 OA
ATOM     28  H   LIG    1       -1.457   1.255  -0.071  0.00  0.00    +0.211 HD
ENDBRANCH   3  27
TORSDOF 4
