REMARK  Name = DB00465
REMARK                            x       y       z     vdW  Elec       q    Type
REMARK                         _______ _______ _______ _____ _____    ______ ____
ROOT
ATOM      1  C   LIG    1       -2.862  -2.257  -0.208  0.00  0.00    +0.146 C 
ATOM      2  C   LIG    1       -2.093  -0.990   0.120  0.00  0.00    +0.033 A 
ATOM      3  C   LIG    1       -2.268   0.349   0.436  0.00  0.00    +0.024 A 
ATOM      4  C   LIG    1       -1.000   0.888   0.675  0.00  0.00    +0.031 A 
ATOM      5  C   LIG    1       -0.056  -0.123   0.497  0.00  0.00    +0.090 A 
ATOM      6  N   LIG    1       -0.749  -1.274   0.162  0.00  0.00    -0.340 N 
ATOM      7  C   LIG    1       -0.456  -2.624  -0.292  0.00  0.00    +0.123 C 
ATOM      8  C   LIG    1       -1.780  -3.337  -0.011  0.00  0.00    +0.042 C 
ENDROOT
BRANCH   1   9
ATOM      9  C   LIG    1       -4.049  -2.479   0.751  0.00  0.00    +0.314 C 
ATOM     10  O   LIG    1       -4.133  -1.987   1.877  0.00  0.00    -0.250 OA
BRANCH   9  11
ATOM     11  O   LIG    1       -4.979  -3.312   0.202  0.00  0.00    -0.480 OA
ATOM     12  H   LIG    1       -5.720  -3.469   0.790  0.00  0.00    +0.295 HD
ENDBRANCH   9  11
ENDBRANCH   1   9
BRANCH   5  13
ATOM     13  C   LIG    1        1.419  -0.128   0.548  0.00  0.00    +0.209 C 
ATOM     14  O   LIG    1        2.057  -1.020  -0.019  0.00  0.00    -0.285 OA
BRANCH  13  15
ATOM     15  C   LIG    1        2.140   1.022   1.190  0.00  0.00    +0.024 A 
ATOM     16  C   LIG    1        1.597   1.712   2.285  0.00  0.00    +0.012 A 
ATOM     17  C   LIG    1        2.301   2.754   2.883  0.00  0.00    +0.001 A 
ATOM     18  C   LIG    1        3.559   3.104   2.403  0.00  0.00    +0.000 A 
ATOM     19  C   LIG    1        4.125   2.413   1.335  0.00  0.00    +0.001 A 
ATOM     20  C   LIG    1        3.422   1.371   0.737  0.00  0.00    +0.012 A 
ENDBRANCH  13  15
ENDBRANCH   5  13
TORSDOF 4
