REMARK  Name = DB00903
REMARK                            x       y       z     vdW  Elec       q    Type
REMARK                         _______ _______ _______ _____ _____    ______ ____
ROOT
ATOM      1 CL   LIG    1       -0.151   2.889  -0.359  0.00  0.00    -0.081 Cl
ATOM      2  C   LIG    1       -0.847   1.301  -0.224  0.00  0.00    +0.074 A 
ATOM      3  C   LIG    1       -2.244   1.155  -0.217  0.00  0.00    +0.101 A 
ATOM      4  C   LIG    1       -2.832  -0.114  -0.120  0.00  0.00    +0.141 A 
ATOM      5  C   LIG    1       -2.001  -1.241  -0.030  0.00  0.00    +0.048 A 
ATOM      6  C   LIG    1       -0.616  -1.105  -0.035  0.00  0.00    +0.017 A 
ATOM      7 CL   LIG    1       -3.271   2.549  -0.333  0.00  0.00    -0.078 Cl
ATOM      8  C   LIG    1       -0.029   0.160  -0.126  0.00  0.00    +0.042 A 
ENDROOT
BRANCH   8   9
ATOM      9  C   LIG    1        1.461   0.248  -0.141  0.00  0.00    +0.190 C 
ATOM     10  O   LIG    1        2.046   0.621   0.877  0.00  0.00    -0.287 OA
BRANCH   9  11
ATOM     11  C   LIG    1        2.208  -0.061  -1.385  0.00  0.00    -0.007 C 
ATOM     12  C   LIG    1        1.576  -0.415  -2.524  0.00  0.00    +0.016 C 
BRANCH  11  13
ATOM     13  C   LIG    1        3.735   0.022  -1.312  0.00  0.00    +0.035 C 
ATOM     14  C   LIG    1        4.292   1.455  -1.341  0.00  0.00    +0.009 C 
ENDBRANCH  11  13
ENDBRANCH   9  11
ENDBRANCH   8   9
BRANCH   4  15
ATOM     15  O   LIG    1       -4.214  -0.181  -0.120  0.00  0.00    -0.479 OA
BRANCH  15  16
ATOM     16  C   LIG    1       -4.863  -1.451  -0.028  0.00  0.00    +0.349 C 
BRANCH  16  17
ATOM     17  C   LIG    1       -6.390  -1.279  -0.051  0.00  0.00    +0.343 C 
ATOM     18  O   LIG    1       -7.153  -2.242  -0.017  0.00  0.00    -0.247 OA
BRANCH  17  19
ATOM     19  O   LIG    1       -6.800   0.023  -0.108  0.00  0.00    -0.478 OA
ATOM     20  H   LIG    1       -7.755   0.106  -0.121  0.00  0.00    +0.295 HD
ENDBRANCH  17  19
ENDBRANCH  16  17
ENDBRANCH  15  16
ENDBRANCH   4  15
TORSDOF 7
