REMARK  Name = DB00771
REMARK                            x       y       z     vdW  Elec       q    Type
REMARK                         _______ _______ _______ _____ _____    ______ ____
ROOT
ATOM      1  C   LIG    1        1.615   0.375   0.250  0.00  0.00    +0.213 C 
ENDROOT
BRANCH   1   2
ATOM      2  C   LIG    1        2.261   1.722   0.681  0.00  0.00    -0.001 A 
ATOM      3  C   LIG    1        2.078   2.194   1.993  0.00  0.00    +0.007 A 
ATOM      4  C   LIG    1        2.653   3.390   2.410  0.00  0.00    +0.000 A 
ATOM      5  C   LIG    1        3.425   4.130   1.520  0.00  0.00    +0.000 A 
ATOM      6  C   LIG    1        3.627   3.680   0.219  0.00  0.00    +0.000 A 
ATOM      7  C   LIG    1        3.052   2.483  -0.197  0.00  0.00    +0.007 A 
ENDBRANCH   1   2
BRANCH   1   8
ATOM      8  C   LIG    1        2.000  -0.072  -1.196  0.00  0.00    -0.001 A 
ATOM      9  C   LIG    1        3.076  -0.955  -1.391  0.00  0.00    +0.007 A 
ATOM     10  C   LIG    1        3.460  -1.344  -2.671  0.00  0.00    +0.000 A 
ATOM     11  C   LIG    1        2.782  -0.843  -3.778  0.00  0.00    +0.000 A 
ATOM     12  C   LIG    1        1.729   0.051  -3.614  0.00  0.00    +0.000 A 
ATOM     13  C   LIG    1        1.346   0.439  -2.334  0.00  0.00    +0.007 A 
ENDBRANCH   1   8
BRANCH   1  14
ATOM     14  C   LIG    1        0.054   0.508   0.328  0.00  0.00    +0.349 C 
ATOM     15  O   LIG    1       -0.517   1.603   0.280  0.00  0.00    -0.247 OA
BRANCH  14  16
ATOM     16  O   LIG    1       -0.590  -0.692   0.370  0.00  0.00    -0.460 OA
BRANCH  16  22
ATOM     17  N   LIG    1       -3.451  -1.905   2.132  0.00  0.00    +0.381 N 
ATOM     18  C   LIG    1       -2.548  -3.168   2.054  0.00  0.00    -0.075 C 
ATOM     19  C   LIG    1       -1.974  -3.293   0.618  0.00  0.00    -0.011 C 
ATOM     20  C   LIG    1       -2.448  -2.127  -0.287  0.00  0.00    +0.025 C 
ATOM     21  C   LIG    1       -3.996  -2.146  -0.327  0.00  0.00    -0.011 C 
ATOM     22  C   LIG    1       -2.015  -0.788   0.371  0.00  0.00    +0.164 C 
ATOM     23  C   LIG    1       -4.604  -2.027   1.096  0.00  0.00    -0.075 C 
ATOM     24  C   LIG    1       -4.044  -1.779   3.553  0.00  0.00    -0.092 C 
ATOM     25  C   LIG    1       -2.605  -0.643   1.804  0.00  0.00    -0.030 C 
ENDBRANCH  16  22
ENDBRANCH  14  16
ENDBRANCH   1  14
BRANCH   1  26
ATOM     26  O   LIG    1        1.959  -0.630   1.203  0.00  0.00    -0.370 OA
ATOM     27  H   LIG    1        2.916  -0.711   1.222  0.00  0.00    +0.212 HD
ENDBRANCH   1  26
TORSDOF 6
