REMARK  Name = DB00132
REMARK                            x       y       z     vdW  Elec       q    Type
REMARK                         _______ _______ _______ _____ _____    ______ ____
ROOT
ATOM      1  C   LIG    1        2.198  -0.499  -0.260  0.00  0.00    +0.027 C 
ENDROOT
BRANCH   1   2
ATOM      2  C   LIG    1        2.697  -1.928  -0.387  0.00  0.00    -0.031 C 
ATOM      3  C   LIG    1        3.314  -2.646   0.571  0.00  0.00    -0.027 C 
BRANCH   3   4
ATOM      4  C   LIG    1        3.587  -2.209   2.001  0.00  0.00    +0.053 C 
BRANCH   4   5
ATOM      5  C   LIG    1        5.035  -1.836   2.267  0.00  0.00    -0.027 C 
ATOM      6  C   LIG    1        5.524  -0.636   2.641  0.00  0.00    -0.027 C 
BRANCH   6   7
ATOM      7  C   LIG    1        4.757   0.657   2.869  0.00  0.00    +0.053 C 
BRANCH   7   8
ATOM      8  C   LIG    1        4.527   0.970   4.338  0.00  0.00    -0.027 C 
ATOM      9  C   LIG    1        3.352   1.032   4.997  0.00  0.00    -0.031 C 
BRANCH   9  10
ATOM     10  C   LIG    1        1.956   0.790   4.446  0.00  0.00    +0.023 C 
ATOM     11  C   LIG    1        1.092   2.056   4.400  0.00  0.00    +0.008 C 
ENDBRANCH   9  10
ENDBRANCH   7   8
ENDBRANCH   6   7
ENDBRANCH   4   5
ENDBRANCH   3   4
ENDBRANCH   1   2
BRANCH   1  12
ATOM     12  C   LIG    1        0.761  -0.389   0.278  0.00  0.00    +0.004 C 
BRANCH  12  13
ATOM     13  C   LIG    1        0.320   1.069   0.495  0.00  0.00    +0.000 C 
BRANCH  13  14
ATOM     14  C   LIG    1       -1.095   1.187   1.091  0.00  0.00    +0.000 C 
BRANCH  14  15
ATOM     15  C   LIG    1       -1.531   2.631   1.410  0.00  0.00    +0.001 C 
BRANCH  15  16
ATOM     16  C   LIG    1       -1.726   3.526   0.171  0.00  0.00    +0.011 C 
BRANCH  16  17
ATOM     17  C   LIG    1       -2.226   4.938   0.537  0.00  0.00    +0.120 C 
BRANCH  17  18
ATOM     18  C   LIG    1       -2.457   5.818  -0.695  0.00  0.00    +0.305 C 
ATOM     19  O   LIG    1       -3.574   6.081  -1.135  0.00  0.00    -0.251 OA
BRANCH  18  20
ATOM     20  O   LIG    1       -1.282   6.263  -1.226  0.00  0.00    -0.481 OA
ATOM     21  H   LIG    1       -1.419   6.816  -1.999  0.00  0.00    +0.295 HD
ENDBRANCH  18  20
ENDBRANCH  17  18
ENDBRANCH  16  17
ENDBRANCH  15  16
ENDBRANCH  14  15
ENDBRANCH  13  14
ENDBRANCH  12  13
ENDBRANCH   1  12
TORSDOF 14
