REMARK  Name = DB00803
REMARK                            x       y       z     vdW  Elec       q    Type
REMARK                         _______ _______ _______ _____ _____    ______ ____
ROOT
ATOM      1  C   LIG    1       -6.405   5.736   4.630  0.00  0.00    +0.234 C 
ATOM      2  O   LIG    1       -6.024   4.611   4.958  0.00  0.00    -0.274 OA
ATOM      3  N   LIG    1       -5.686   6.547   3.838  0.00  0.00    -0.300 N 
ATOM      4  H   LIG    1       -6.030   7.475   3.636  0.00  0.00    +0.150 HD
ATOM      5  C   LIG    1       -4.472   6.147   3.124  0.00  0.00    +0.187 C 
ATOM      6  C   LIG    1       -3.287   5.765   4.060  0.00  0.00    +0.236 C 
ATOM      7  O   LIG    1       -3.008   6.519   4.990  0.00  0.00    -0.274 OA
ATOM      8  N   LIG    1       -2.594   4.627   3.847  0.00  0.00    -0.314 N 
ATOM      9  H   LIG    1       -1.837   4.418   4.481  0.00  0.00    +0.149 HD
ATOM     10  C   LIG    1       -2.895   3.588   2.865  0.00  0.00    +0.106 C 
ATOM     11  C   LIG    1       -1.679   2.719   2.480  0.00  0.00    +0.050 C 
ATOM     12  C   LIG    1       -2.015   1.513   1.560  0.00  0.00    +0.160 C 
ATOM     13  C   LIG    1       -2.932   1.911   0.386  0.00  0.00    +0.234 C 
ATOM     14  N   LIG    1       -4.063   1.229   0.127  0.00  0.00    -0.302 N 
ATOM     15  H   LIG    1       -4.644   1.593  -0.614  0.00  0.00    +0.150 HD
ATOM     16  C   LIG    1       -4.496  -0.083   0.602  0.00  0.00    +0.160 C 
ATOM     17  C   LIG    1       -5.399  -0.721  -0.478  0.00  0.00    +0.234 C 
ATOM     18  O   LIG    1       -5.036  -1.801  -0.940  0.00  0.00    -0.274 OA
ATOM     19  N   LIG    1       -6.526  -0.127  -0.937  0.00  0.00    -0.302 N 
ATOM     20  H   LIG    1       -7.005  -0.619  -1.677  0.00  0.00    +0.150 HD
ATOM     21  C   LIG    1       -7.243   1.086  -0.509  0.00  0.00    +0.159 C 
ATOM     22  C   LIG    1       -6.650   2.386  -1.099  0.00  0.00    +0.234 C 
ATOM     23  O   LIG    1       -6.013   2.307  -2.148  0.00  0.00    -0.274 OA
ATOM     24  N   LIG    1       -6.824   3.581  -0.493  0.00  0.00    -0.302 N 
ATOM     25  H   LIG    1       -6.378   4.360  -0.957  0.00  0.00    +0.150 HD
ATOM     26  C   LIG    1       -7.572   4.009   0.707  0.00  0.00    +0.159 C 
ATOM     27  C   LIG    1       -7.149   3.303   2.016  0.00  0.00    +0.234 C 
ATOM     28  O   LIG    1       -6.011   2.848   2.080  0.00  0.00    -0.274 OA
ATOM     29  N   LIG    1       -7.989   3.188   3.069  0.00  0.00    -0.302 N 
ATOM     30  H   LIG    1       -7.641   2.639   3.842  0.00  0.00    +0.150 HD
ATOM     31  C   LIG    1       -9.209   3.928   3.422  0.00  0.00    +0.160 C 
ATOM     32  C   LIG    1       -9.209   4.101   4.967  0.00  0.00    +0.234 C 
ATOM     33  O   LIG    1       -9.760   3.229   5.639  0.00  0.00    -0.274 OA
ATOM     34  N   LIG    1       -8.626   5.141   5.602  0.00  0.00    -0.302 N 
ATOM     35  H   LIG    1       -8.730   5.131   6.607  0.00  0.00    +0.150 HD
ATOM     36  O   LIG    1       -2.617   2.892  -0.287  0.00  0.00    -0.274 OA
ATOM     37  C   LIG    1       -7.766   6.248   5.159  0.00  0.00    +0.160 C 
ENDROOT
BRANCH  12  38
ATOM     38  N   LIG    1       -0.799   0.899   1.035  0.00  0.00    -0.302 N 
ATOM     39  H   LIG    1       -0.171   1.520   0.545  0.00  0.00    +0.150 HD
ATOM     40  C   LIG    1       -0.472  -0.396   1.169  0.00  0.00    +0.234 C 
ATOM     41  O   LIG    1       -1.167  -1.243   1.733  0.00  0.00    -0.274 OA
BRANCH  40  42
ATOM     42  C   LIG    1        0.875  -0.818   0.558  0.00  0.00    +0.160 C 
BRANCH  42  43
ATOM     43  N   LIG    1        1.703  -1.477   1.569  0.00  0.00    -0.302 N 
ATOM     44  H   LIG    1        1.766  -2.482   1.502  0.00  0.00    +0.150 HD
ATOM     45  C   LIG    1        2.299  -0.844   2.594  0.00  0.00    +0.236 C 
ATOM     46  O   LIG    1        2.286   0.377   2.761  0.00  0.00    -0.274 OA
BRANCH  45  47
ATOM     47  C   LIG    1        3.014  -1.742   3.621  0.00  0.00    +0.187 C 
BRANCH  47  48
ATOM     48  N   LIG    1        4.365  -1.248   3.877  0.00  0.00    -0.300 N 
ATOM     49  H   LIG    1        4.492  -0.729   4.734  0.00  0.00    +0.150 HD
ATOM     50  C   LIG    1        5.405  -1.423   3.047  0.00  0.00    +0.234 C 
ATOM     51  O   LIG    1        5.357  -2.063   1.995  0.00  0.00    -0.274 OA
BRANCH  50  52
ATOM     52  C   LIG    1        6.730  -0.778   3.483  0.00  0.00    +0.160 C 
BRANCH  52  53
ATOM     53  N   LIG    1        7.610  -1.818   4.010  0.00  0.00    -0.304 N 
ATOM     54  H   LIG    1        8.236  -2.241   3.341  0.00  0.00    +0.149 HD
ATOM     55  C   LIG    1        7.542  -2.323   5.255  0.00  0.00    +0.214 C 
ATOM     56  O   LIG    1        6.818  -1.857   6.135  0.00  0.00    -0.276 OA
BRANCH  55  57
ATOM     57  C   LIG    1        8.406  -3.557   5.553  0.00  0.00    +0.096 C 
BRANCH  57  58
ATOM     58  C   LIG    1        8.253  -4.709   4.530  0.00  0.00    +0.009 C 
BRANCH  58  59
ATOM     59  C   LIG    1        6.824  -5.301   4.442  0.00  0.00    +0.004 C 
BRANCH  59  60
ATOM     60  C   LIG    1        6.608  -6.380   3.351  0.00  0.00    -0.014 C 
ATOM     61  C   LIG    1        6.664  -5.780   1.932  0.00  0.00    +0.007 C 
BRANCH  60  62
ATOM     62  C   LIG    1        7.541  -7.610   3.474  0.00  0.00    -0.000 C 
ATOM     63  C   LIG    1        7.440  -8.359   4.813  0.00  0.00    +0.004 C 
ENDBRANCH  60  62
ENDBRANCH  59  60
ENDBRANCH  58  59
ENDBRANCH  57  58
ENDBRANCH  55  57
ENDBRANCH  52  53
BRANCH  52  64
ATOM     64  C   LIG    1        7.405   0.008   2.336  0.00  0.00    +0.046 C 
BRANCH  64  65
ATOM     65  C   LIG    1        6.512   1.100   1.712  0.00  0.00    +0.080 C 
BRANCH  65  66
ATOM     66  N   LIG    1        7.233   1.809   0.672  0.00  0.00    -0.330 NA
ATOM     67  H   LIG    1        6.635   2.517   0.270  0.00  0.00    +0.118 HD
ATOM     68  H   LIG    1        7.463   1.171  -0.076  0.00  0.00    +0.118 HD
ENDBRANCH  65  66
ENDBRANCH  64  65
ENDBRANCH  52  64
ENDBRANCH  50  52
ENDBRANCH  47  48
BRANCH  47  69
ATOM     69  C   LIG    1        2.178  -1.753   4.930  0.00  0.00    +0.141 C 
ATOM     70  C   LIG    1        0.700  -2.163   4.774  0.00  0.00    +0.040 C 
BRANCH  69  71
ATOM     71  O   LIG    1        2.779  -2.648   5.846  0.00  0.00    -0.390 OA
ATOM     72  H   LIG    1        2.679  -3.543   5.515  0.00  0.00    +0.210 HD
ENDBRANCH  69  71
ENDBRANCH  47  69
ENDBRANCH  45  47
ENDBRANCH  42  43
BRANCH  42  73
ATOM     73  C   LIG    1        0.688  -1.717  -0.684  0.00  0.00    +0.046 C 
BRANCH  73  74
ATOM     74  C   LIG    1       -0.184  -1.096  -1.794  0.00  0.00    +0.080 C 
BRANCH  74  75
ATOM     75  N   LIG    1       -0.219  -1.967  -2.953  0.00  0.00    -0.330 NA
ATOM     76  H   LIG    1       -0.597  -2.868  -2.695  0.00  0.00    +0.118 HD
ATOM     77  H   LIG    1        0.719  -2.130  -3.290  0.00  0.00    +0.118 HD
ENDBRANCH  74  75
ENDBRANCH  73  74
ENDBRANCH  42  73
ENDBRANCH  40  42
ENDBRANCH  12  38
BRANCH   5  78
ATOM     78  C   LIG    1       -4.034   7.243   2.108  0.00  0.00    +0.141 C 
ATOM     79  C   LIG    1       -3.705   8.617   2.723  0.00  0.00    +0.040 C 
BRANCH  78  80
ATOM     80  O   LIG    1       -2.891   6.838   1.377  0.00  0.00    -0.390 OA
ATOM     81  H   LIG    1       -3.108   6.048   0.876  0.00  0.00    +0.210 HD
ENDBRANCH  78  80
ENDBRANCH   5  78
BRANCH  21  82
ATOM     82  C   LIG    1       -8.717   0.937  -0.951  0.00  0.00    +0.034 C 
BRANCH  82  83
ATOM     83  C   LIG    1       -9.492  -0.231  -0.290  0.00  0.00    -0.015 C 
ATOM     84  C   LIG    1       -9.457  -0.207   1.255  0.00  0.00    +0.007 C 
ATOM     85  C   LIG    1      -10.932  -0.312  -0.841  0.00  0.00    +0.007 C 
ENDBRANCH  82  83
ENDBRANCH  21  82
BRANCH  26  86
ATOM     86  C   LIG    1       -7.380   5.541   0.828  0.00  0.00    +0.034 C 
BRANCH  86  87
ATOM     87  C   LIG    1       -8.453   6.391   0.113  0.00  0.00    -0.015 C 
ATOM     88  C   LIG    1       -8.278   7.887   0.450  0.00  0.00    +0.007 C 
ATOM     89  C   LIG    1       -8.505   6.148  -1.410  0.00  0.00    +0.007 C 
ENDBRANCH  86  87
ENDBRANCH  26  86
BRANCH  31  90
ATOM     90  C   LIG    1      -10.536   3.214   3.019  0.00  0.00    +0.046 C 
BRANCH  90  91
ATOM     91  C   LIG    1      -10.905   3.214   1.531  0.00  0.00    +0.080 C 
BRANCH  91  92
ATOM     92  N   LIG    1      -12.245   2.695   1.335  0.00  0.00    -0.330 NA
ATOM     93  H   LIG    1      -12.292   1.742   1.669  0.00  0.00    +0.118 HD
ATOM     94  H   LIG    1      -12.458   2.662   0.348  0.00  0.00    +0.118 HD
ENDBRANCH  91  92
ENDBRANCH  90  91
ENDBRANCH  31  90
BRANCH  16  95
ATOM     95  C   LIG    1       -5.093  -0.135   2.040  0.00  0.00    +0.046 C 
BRANCH  95  96
ATOM     96  C   LIG    1       -5.009  -1.512   2.728  0.00  0.00    +0.080 C 
BRANCH  96  97
ATOM     97  N   LIG    1       -5.968  -2.456   2.185  0.00  0.00    -0.330 NA
ATOM     98  H   LIG    1       -5.880  -3.342   2.661  0.00  0.00    +0.118 HD
ATOM     99  H   LIG    1       -5.755  -2.631   1.213  0.00  0.00    +0.118 HD
ENDBRANCH  96  97
ENDBRANCH  95  96
ENDBRANCH  16  95
BRANCH  37 100
ATOM    100  C   LIG    1       -8.524   7.308   4.303  0.00  0.00    +0.046 C 
BRANCH 100 101
ATOM    101  C   LIG    1       -7.899   8.718   4.188  0.00  0.00    +0.080 C 
BRANCH 101 102
ATOM    102  N   LIG    1       -7.739   9.347   5.485  0.00  0.00    -0.330 NA
ATOM    103  H   LIG    1       -7.344  10.270   5.373  0.00  0.00    +0.118 HD
ATOM    104  H   LIG    1       -7.082   8.821   6.044  0.00  0.00    +0.118 HD
ENDBRANCH 101 102
ENDBRANCH 100 101
ENDBRANCH  37 100
TORSDOF 35
