REMARK  Name = DB00620
REMARK                            x       y       z     vdW  Elec       q    Type
REMARK                         _______ _______ _______ _____ _____    ______ ____
ROOT
ATOM      1  F   LIG    1       -3.405  -0.416   3.125  0.00  0.00    -0.238 F 
ATOM      2  C   LIG    1       -2.660  -1.528   3.232  0.00  0.00    +0.153 C 
ATOM      3  C   LIG    1       -3.425  -2.449   4.274  0.00  0.00    +0.044 C 
ATOM      4  C   LIG    1       -3.616  -1.742   5.627  0.00  0.00    -0.009 C 
ATOM      5  C   LIG    1       -4.801  -1.468   6.207  0.00  0.00    +0.047 C 
ATOM      6  C   LIG    1       -6.093  -1.810   5.620  0.00  0.00    +0.179 C 
ATOM      7  C   LIG    1       -5.989  -2.468   4.317  0.00  0.00    +0.051 C 
ATOM      8  O   LIG    1       -7.166  -1.564   6.167  0.00  0.00    -0.288 OA
ATOM      9  C   LIG    1       -2.726  -3.804   4.582  0.00  0.00    +0.023 C 
ATOM     10  C   LIG    1       -4.830  -2.769   3.685  0.00  0.00    -0.053 C 
ATOM     11  C   LIG    1       -4.809  -3.431   2.307  0.00  0.00    +0.032 C 
ATOM     12  C   LIG    1       -4.067  -2.516   1.318  0.00  0.00    +0.011 C 
ATOM     13  C   LIG    1       -1.254  -0.970   3.685  0.00  0.00    +0.154 C 
ATOM     14  C   LIG    1       -0.544  -0.147   2.570  0.00  0.00    +0.044 C 
ATOM     15  C   LIG    1       -0.450  -0.890   1.199  0.00  0.00    +0.012 C 
ATOM     16  C   LIG    1        0.453  -2.168   1.320  0.00  0.00    +0.015 C 
ATOM     17  C   LIG    1       -0.045  -0.005  -0.045  0.00  0.00    +0.157 C 
ATOM     18  C   LIG    1       -0.617  -0.827  -1.256  0.00  0.00    +0.154 C 
ATOM     19  C   LIG    1       -1.863  -1.565  -0.708  0.00  0.00    +0.039 C 
ATOM     20  C   LIG    1       -1.910  -1.218   0.790  0.00  0.00    +0.007 C 
ATOM     21  C   LIG    1       -2.636  -2.162   1.790  0.00  0.00    +0.034 C 
ENDROOT
BRANCH  17  22
ATOM     22  C   LIG    1        1.497   0.237  -0.154  0.00  0.00    +0.193 C 
ATOM     23  O   LIG    1        2.208  -0.518  -0.823  0.00  0.00    -0.292 OA
BRANCH  22  24
ATOM     24  C   LIG    1        2.108   1.439   0.602  0.00  0.00    +0.233 C 
BRANCH  24  25
ATOM     25  O   LIG    1        3.513   1.486   0.424  0.00  0.00    -0.387 OA
ATOM     26  H   LIG    1        3.896   0.690   0.800  0.00  0.00    +0.210 HD
ENDBRANCH  24  25
ENDBRANCH  22  24
ENDBRANCH  17  22
BRANCH  18  27
ATOM     27  O   LIG    1       -0.866  -0.091  -2.442  0.00  0.00    -0.388 OA
ATOM     28  H   LIG    1       -0.024   0.110  -2.857  0.00  0.00    +0.210 HD
ENDBRANCH  18  27
BRANCH  17  29
ATOM     29  O   LIG    1       -0.627   1.299  -0.007  0.00  0.00    -0.378 OA
ATOM     30  H   LIG    1       -1.579   1.210  -0.097  0.00  0.00    +0.211 HD
ENDBRANCH  17  29
BRANCH  13  31
ATOM     31  O   LIG    1       -0.378  -1.940   4.224  0.00  0.00    -0.389 OA
ATOM     32  H   LIG    1       -0.807  -2.353   4.978  0.00  0.00    +0.210 HD
ENDBRANCH  13  31
TORSDOF 6
