REMARK  Name = DB00854
REMARK                            x       y       z     vdW  Elec       q    Type
REMARK                         _______ _______ _______ _____ _____    ______ ____
ROOT
ATOM      1  C   LIG    1        1.372   0.019   0.001  0.00  0.00    +0.117 A 
ATOM      2  C   LIG    1        2.062   1.224  -0.002  0.00  0.00    +0.045 A 
ATOM      3  C   LIG    1        3.452   1.217  -0.016  0.00  0.00    +0.007 A 
ATOM      4  C   LIG    1        4.179   0.021  -0.031  0.00  0.00    -0.042 A 
ATOM      5  C   LIG    1        5.709   0.092  -0.083  0.00  0.00    +0.054 C 
ATOM      6  C   LIG    1        6.414  -1.266   0.180  0.00  0.00    +0.065 C 
ATOM      7  C   LIG    1        5.664  -2.389  -0.589  0.00  0.00    +0.017 C 
ATOM      8  C   LIG    1        5.628  -2.173  -2.131  0.00  0.00    +0.006 C 
ATOM      9  C   LIG    1        4.894  -3.308  -2.863  0.00  0.00    +0.000 C 
ATOM     10  C   LIG    1        3.491  -3.531  -2.270  0.00  0.00    +0.001 C 
ATOM     11  C   LIG    1        3.563  -3.755  -0.746  0.00  0.00    +0.012 C 
ATOM     12  C   LIG    1        4.239  -2.574   0.025  0.00  0.00    +0.002 C 
ATOM     13  C   LIG    1        4.471  -2.999   1.501  0.00  0.00    +0.027 C 
ATOM     14  C   LIG    1        5.329  -1.999   2.303  0.00  0.00    +0.085 C 
ATOM     15  N   LIG    1        6.570  -1.652   1.599  0.00  0.00    -0.302 NA
ATOM     16  C   LIG    1        7.409  -0.749   2.382  0.00  0.00    +0.105 C 
ATOM     17  C   LIG    1        3.482  -1.217  -0.031  0.00  0.00    -0.034 A 
ATOM     18  C   LIG    1        2.077  -1.181  -0.010  0.00  0.00    +0.049 A 
ENDROOT
BRANCH   1  19
ATOM     19  O   LIG    1        0.003   0.013   0.021  0.00  0.00    -0.507 OA
ATOM     20  H   LIG    1       -0.373   0.896   0.031  0.00  0.00    +0.292 HD
ENDBRANCH   1  19
TORSDOF 1
