REMARK  Name = DB00973
REMARK                            x       y       z     vdW  Elec       q    Type
REMARK                         _______ _______ _______ _____ _____    ______ ____
ROOT
ATOM      1  N   LIG    1       -1.259   1.066   1.404  0.00  0.00    -0.263 N 
ATOM      2  C   LIG    1       -0.700   1.518   0.089  0.00  0.00    +0.123 C 
ATOM      3  C   LIG    1        0.171   0.239   0.074  0.00  0.00    +0.101 C 
ATOM      4  C   LIG    1       -0.419  -0.051   1.473  0.00  0.00    +0.226 C 
ATOM      5  O   LIG    1       -0.233  -0.921   2.322  0.00  0.00    -0.275 OA
ENDROOT
BRANCH   1  11
ATOM      6  C   LIG    1       -3.686   3.468   2.818  0.00  0.00    +0.040 A 
ATOM      7  C   LIG    1       -4.116   2.777   3.948  0.00  0.00    +0.124 A 
ATOM      8  F   LIG    1       -5.040   3.334   4.764  0.00  0.00    -0.205 F 
ATOM      9  C   LIG    1       -3.603   1.516   4.245  0.00  0.00    +0.040 A 
ATOM     10  C   LIG    1       -2.654   0.940   3.405  0.00  0.00    +0.026 A 
ATOM     11  C   LIG    1       -2.216   1.629   2.266  0.00  0.00    +0.037 A 
ATOM     12  C   LIG    1       -2.735   2.896   1.977  0.00  0.00    +0.026 A 
ENDBRANCH   1  11
BRANCH   2  13
ATOM     13  C   LIG    1       -1.682   1.801  -1.047  0.00  0.00    -0.026 A 
ATOM     14  C   LIG    1       -2.914   1.141  -1.125  0.00  0.00    +0.009 A 
ATOM     15  C   LIG    1       -3.798   1.437  -2.159  0.00  0.00    +0.046 A 
ATOM     16  C   LIG    1       -3.452   2.393  -3.112  0.00  0.00    +0.117 A 
ATOM     17  C   LIG    1       -2.229   3.057  -3.037  0.00  0.00    +0.046 A 
ATOM     18  C   LIG    1       -1.346   2.763  -2.002  0.00  0.00    +0.009 A 
BRANCH  16  19
ATOM     19  O   LIG    1       -4.322   2.681  -4.130  0.00  0.00    -0.507 OA
ATOM     20  H   LIG    1       -3.987   3.349  -4.732  0.00  0.00    +0.292 HD
ENDBRANCH  16  19
ENDBRANCH   2  13
BRANCH   3  21
ATOM     21  C   LIG    1        1.698   0.461   0.130  0.00  0.00    +0.018 C 
BRANCH  21  22
ATOM     22  C   LIG    1        2.269   0.970  -1.211  0.00  0.00    +0.037 C 
BRANCH  22  23
ATOM     23  C   LIG    1        3.806   1.130  -1.230  0.00  0.00    +0.145 C 
BRANCH  23  24
ATOM     24  C   LIG    1        4.315   1.493  -2.625  0.00  0.00    -0.019 A 
ATOM     25  C   LIG    1        4.215   2.806  -3.102  0.00  0.00    +0.009 A 
ATOM     26  C   LIG    1        4.677   3.124  -4.376  0.00  0.00    +0.039 A 
ATOM     27  C   LIG    1        5.235   2.129  -5.177  0.00  0.00    +0.123 A 
ATOM     28  F   LIG    1        5.684   2.438  -6.414  0.00  0.00    -0.205 F 
ATOM     29  C   LIG    1        5.332   0.819  -4.714  0.00  0.00    +0.039 A 
ATOM     30  C   LIG    1        4.870   0.500  -3.439  0.00  0.00    +0.009 A 
ENDBRANCH  23  24
BRANCH  23  31
ATOM     31  O   LIG    1        4.201   2.074  -0.250  0.00  0.00    -0.387 OA
ATOM     32  H   LIG    1        5.159   2.056  -0.179  0.00  0.00    +0.210 HD
ENDBRANCH  23  31
ENDBRANCH  22  23
ENDBRANCH  21  22
ENDBRANCH   3  21
TORSDOF 8
