REMARK  Name = DB00250
REMARK                            x       y       z     vdW  Elec       q    Type
REMARK                         _______ _______ _______ _____ _____    ______ ____
ROOT
ATOM      1  S   LIG    1        0.006   0.008   0.000  0.00  0.00    +0.025 S 
ATOM      2  O   LIG    1       -0.398  -0.601   1.274  0.00  0.00    -0.164 OA
ATOM      3  O   LIG    1       -0.494  -0.524  -1.274  0.00  0.00    -0.164 OA
ENDROOT
BRANCH   1   4
ATOM      4  C   LIG    1       -0.417   1.746   0.068  0.00  0.00    +0.094 A 
ATOM      5  C   LIG    1       -0.528   2.386   1.305  0.00  0.00    +0.029 A 
ATOM      6  C   LIG    1       -0.841   3.742   1.356  0.00  0.00    +0.024 A 
ATOM      7  C   LIG    1       -1.039   4.452   0.173  0.00  0.00    +0.025 A 
ATOM      8  C   LIG    1       -0.925   3.815  -1.063  0.00  0.00    +0.024 A 
ATOM      9  C   LIG    1       -0.613   2.460  -1.116  0.00  0.00    +0.029 A 
BRANCH   7  10
ATOM     10  N   LIG    1       -1.351   5.810   0.225  0.00  0.00    -0.358 N 
ATOM     11  H   LIG    1       -1.499   6.319  -0.634  0.00  0.00    +0.142 HD
ATOM     12  H   LIG    1       -1.438   6.266   1.122  0.00  0.00    +0.142 HD
ENDBRANCH   7  10
ENDBRANCH   1   4
BRANCH   1  13
ATOM     13  C   LIG    1        1.795  -0.007  -0.068  0.00  0.00    +0.094 A 
ATOM     14  C   LIG    1        2.443   0.031  -1.305  0.00  0.00    +0.029 A 
ATOM     15  C   LIG    1        3.835   0.035  -1.356  0.00  0.00    +0.024 A 
ATOM     16  C   LIG    1        4.572   0.005  -0.172  0.00  0.00    +0.025 A 
ATOM     17  C   LIG    1        3.926  -0.030   1.063  0.00  0.00    +0.024 A 
ATOM     18  C   LIG    1        2.535  -0.034   1.116  0.00  0.00    +0.029 A 
BRANCH  16  19
ATOM     19  N   LIG    1        5.965   0.011  -0.225  0.00  0.00    -0.358 N 
ATOM     20  H   LIG    1        6.495  -0.018   0.634  0.00  0.00    +0.142 HD
ATOM     21  H   LIG    1        6.428   0.034  -1.122  0.00  0.00    +0.142 HD
ENDBRANCH  16  19
ENDBRANCH   1  13
TORSDOF 4
