REMARK  Name = DB00738
REMARK                            x       y       z     vdW  Elec       q    Type
REMARK                         _______ _______ _______ _____ _____    ______ ____
ROOT
ATOM      1  C   LIG    1       -0.056   0.078   0.017  0.00  0.00    +0.007 C 
ENDROOT
BRANCH   1   2
ATOM      2  C   LIG    1        1.472  -0.106  -0.012  0.00  0.00    +0.041 C 
BRANCH   2   3
ATOM      3  C   LIG    1        1.888  -1.585   0.008  0.00  0.00    +0.229 C 
BRANCH   3   4
ATOM      4  O   LIG    1        3.311  -1.669  -0.019  0.00  0.00    -0.492 OA
BRANCH   4   5
ATOM      5  C   LIG    1        3.913  -2.913  -0.015  0.00  0.00    +0.121 A 
ATOM      6  C   LIG    1        5.305  -2.934  -0.025  0.00  0.00    +0.046 A 
ATOM      7  C   LIG    1        5.997  -4.142  -0.019  0.00  0.00    +0.019 A 
ATOM      8  C   LIG    1        5.322  -5.377  -0.003  0.00  0.00    +0.065 A 
ATOM      9  C   LIG    1        3.914  -5.336   0.004  0.00  0.00    +0.019 A 
ATOM     10  C   LIG    1        3.220  -4.129  -0.001  0.00  0.00    +0.046 A 
BRANCH   8  11
ATOM     11  C   LIG    1        6.086  -6.662   0.007  0.00  0.00    +0.308 C 
ATOM     12  N   LIG    1        7.350  -6.667   0.011  0.00  0.00    -0.099 NA
ATOM     13  H   LIG    1        7.745  -5.738   0.007  0.00  0.00    +0.363 HD
BRANCH  11  14
ATOM     14  N   LIG    1        5.300  -7.795   0.013  0.00  0.00    -0.247 N 
ATOM     15  H   LIG    1        4.293  -7.724   0.007  0.00  0.00    +0.288 HD
ATOM     16  H   LIG    1        5.726  -8.710   0.021  0.00  0.00    +0.288 HD
ENDBRANCH  11  14
ENDBRANCH   8  11
ENDBRANCH   4   5
ENDBRANCH   3   4
ENDBRANCH   2   3
ENDBRANCH   1   2
BRANCH   1  17
ATOM     17  C   LIG    1       -0.491   1.555  -0.034  0.00  0.00    +0.041 C 
BRANCH  17  18
ATOM     18  C   LIG    1       -2.017   1.738   0.023  0.00  0.00    +0.229 C 
BRANCH  18  19
ATOM     19  O   LIG    1       -2.609   1.116  -1.115  0.00  0.00    -0.492 OA
BRANCH  19  20
ATOM     20  C   LIG    1       -3.983   0.996  -1.188  0.00  0.00    +0.121 A 
ATOM     21  C   LIG    1       -4.876   1.519  -0.244  0.00  0.00    +0.046 A 
ATOM     22  C   LIG    1       -6.247   1.334  -0.398  0.00  0.00    +0.019 A 
ATOM     23  C   LIG    1       -6.779   0.627  -1.493  0.00  0.00    +0.065 A 
ATOM     24  C   LIG    1       -5.862   0.120  -2.434  0.00  0.00    +0.019 A 
ATOM     25  C   LIG    1       -4.490   0.303  -2.283  0.00  0.00    +0.046 A 
BRANCH  23  26
ATOM     26  C   LIG    1       -8.257   0.436  -1.631  0.00  0.00    +0.308 C 
ATOM     27  N   LIG    1       -9.054   0.897  -0.765  0.00  0.00    -0.099 NA
ATOM     28  H   LIG    1       -8.582   1.382  -0.016  0.00  0.00    +0.363 HD
BRANCH  26  29
ATOM     29  N   LIG    1       -8.641  -0.267  -2.753  0.00  0.00    -0.247 N 
ATOM     30  H   LIG    1       -7.955  -0.602  -3.412  0.00  0.00    +0.288 HD
ATOM     31  H   LIG    1       -9.618  -0.445  -2.930  0.00  0.00    +0.288 HD
ENDBRANCH  26  29
ENDBRANCH  23  26
ENDBRANCH  19  20
ENDBRANCH  18  19
ENDBRANCH  17  18
ENDBRANCH   1  17
TORSDOF 12
