REMARK  Name = DB00518
REMARK                            x       y       z     vdW  Elec       q    Type
REMARK                         _______ _______ _______ _____ _____    ______ ____
ROOT
ATOM      1  C   LIG    1        2.100   0.937  -1.103  0.00  0.00    +0.010 A 
ATOM      2  C   LIG    1        2.646   1.545   0.035  0.00  0.00    +0.017 A 
ATOM      3  C   LIG    1        4.010   1.473   0.317  0.00  0.00    +0.031 A 
ATOM      4  C   LIG    1        4.834   0.771  -0.572  0.00  0.00    +0.091 A 
ATOM      5  C   LIG    1        4.267   0.160  -1.718  0.00  0.00    +0.068 A 
ATOM      6  N   LIG    1        5.343  -0.424  -2.345  0.00  0.00    -0.326 N 
ATOM      7  H   LIG    1        5.365  -0.960  -3.201  0.00  0.00    +0.169 HD
ATOM      8  C   LIG    1        6.460  -0.153  -1.590  0.00  0.00    +0.203 A 
ATOM      9  N   LIG    1        6.187   0.563  -0.519  0.00  0.00    -0.214 NA
ATOM     10  C   LIG    1        2.902   0.228  -2.005  0.00  0.00    +0.042 A 
ENDROOT
BRANCH   8  11
ATOM     11  N   LIG    1        7.686  -0.632  -2.021  0.00  0.00    -0.221 N 
ATOM     12  H   LIG    1        7.705  -1.203  -2.853  0.00  0.00    +0.161 HD
ATOM     13  C   LIG    1        8.904  -0.354  -1.403  0.00  0.00    +0.406 C 
ATOM     14  O   LIG    1        9.090   0.335  -0.396  0.00  0.00    -0.226 OA
BRANCH  13  15
ATOM     15  O   LIG    1        9.883  -0.970  -2.095  0.00  0.00    -0.453 OA
ATOM     16  C   LIG    1       11.241  -0.854  -1.694  0.00  0.00    +0.282 C 
ENDBRANCH  13  15
ENDBRANCH   8  11
BRANCH   1  17
ATOM     17  S   LIG    1        0.364   1.040  -1.451  0.00  0.00    -0.125 S 
BRANCH  17  18
ATOM     18  C   LIG    1       -0.452   2.019  -0.156  0.00  0.00    +0.074 C 
BRANCH  18  19
ATOM     19  C   LIG    1       -1.964   2.193  -0.364  0.00  0.00    +0.008 C 
ATOM     20  C   LIG    1       -2.634   2.996   0.758  0.00  0.00    +0.004 C 
ENDBRANCH  18  19
ENDBRANCH  17  18
ENDBRANCH   1  17
TORSDOF 5
