REMARK  Name = DB00952
REMARK                            x       y       z     vdW  Elec       q    Type
REMARK                         _______ _______ _______ _____ _____    ______ ____
ROOT
ATOM      1  C   LIG    1       -0.506   1.496   0.008  0.00  0.00    -0.045 A 
ATOM      2  C   LIG    1       -0.754   2.077   1.252  0.00  0.00    +0.006 A 
ATOM      3  C   LIG    1       -1.295   3.356   1.379  0.00  0.00    +0.026 A 
ATOM      4  C   LIG    1       -1.579   4.045   0.197  0.00  0.00    +0.047 A 
ATOM      5  C   LIG    1       -1.335   3.487  -1.096  0.00  0.00    +0.003 A 
ATOM      6  C   LIG    1       -1.735   4.462  -2.082  0.00  0.00    -0.019 A 
ATOM      7  C   LIG    1       -2.202   5.544  -1.354  0.00  0.00    +0.087 A 
ATOM      8  N   LIG    1       -2.108   5.298  -0.010  0.00  0.00    -0.360 N 
ATOM      9  H   LIG    1       -2.398   5.970   0.687  0.00  0.00    +0.165 HD
ATOM     10  C   LIG    1       -0.794   2.192  -1.170  0.00  0.00    +0.014 A 
ENDROOT
BRANCH   6  11
ATOM     11  C   LIG    1       -1.650   4.308  -3.594  0.00  0.00    +0.023 C 
ATOM     12  C   LIG    1       -2.432   5.370  -4.401  0.00  0.00    +0.023 C 
ATOM     13  C   LIG    1       -2.308   5.159  -5.925  0.00  0.00    +0.084 C 
ATOM     14  N   LIG    1       -0.906   5.099  -6.355  0.00  0.00    -0.305 NA
ATOM     15  C   LIG    1       -0.820   4.936  -7.802  0.00  0.00    +0.104 C 
ATOM     16  C   LIG    1       -0.158   4.042  -5.666  0.00  0.00    +0.084 C 
ATOM     17  C   LIG    1       -0.206   4.206  -4.130  0.00  0.00    +0.023 C 
ENDBRANCH   6  11
BRANCH   1  18
ATOM     18  C   LIG    1        0.085   0.096  -0.065  0.00  0.00    +0.059 C 
BRANCH  18  19
ATOM     19  C   LIG    1        1.623   0.112  -0.083  0.00  0.00    +0.189 C 
BRANCH  19  20
ATOM     20  S   LIG    1        2.321  -1.646   0.019  0.00  0.00    +0.029 S 
ATOM     21  O   LIG    1        3.783  -1.546  -0.047  0.00  0.00    -0.158 OA
ATOM     22  O   LIG    1        1.677  -2.346   1.137  0.00  0.00    -0.158 OA
BRANCH  20  23
ATOM     23  N   LIG    1        1.788  -2.399  -1.483  0.00  0.00    -0.198 NA
ATOM     24  H   LIG    1        2.529  -2.676  -2.133  0.00  0.00    +0.147 HD
ATOM     25  C   LIG    1        0.576  -3.237  -1.488  0.00  0.00    +0.127 C 
ENDBRANCH  20  23
ENDBRANCH  19  20
ENDBRANCH  18  19
ENDBRANCH   1  18
TORSDOF 5
