REMARK  Name = DB00623
REMARK                            x       y       z     vdW  Elec       q    Type
REMARK                         _______ _______ _______ _____ _____    ______ ____
ROOT
ATOM      1  S   LIG    1        2.270  -5.051   4.523  0.00  0.00    -0.086 S 
ATOM      2  C   LIG    1        3.566  -4.423   3.520  0.00  0.00    +0.034 A 
ATOM      3  C   LIG    1        4.869  -4.827   3.821  0.00  0.00    +0.017 A 
ATOM      4  C   LIG    1        5.939  -4.397   3.045  0.00  0.00    +0.001 A 
ATOM      5  C   LIG    1        5.705  -3.570   1.954  0.00  0.00    +0.002 A 
ATOM      6  C   LIG    1        4.404  -3.183   1.640  0.00  0.00    +0.024 A 
ATOM      7  C   LIG    1        3.291  -3.624   2.386  0.00  0.00    +0.048 A 
ATOM      8  N   LIG    1        1.975  -3.164   2.135  0.00  0.00    -0.298 N 
ATOM      9  C   LIG    1        1.040  -2.971   3.181  0.00  0.00    +0.048 A 
ATOM     10  C   LIG    1        0.093  -1.928   3.164  0.00  0.00    +0.037 A 
ATOM     11  C   LIG    1       -0.772  -1.678   4.236  0.00  0.00    +0.057 A 
ATOM     12  C   LIG    1       -0.679  -2.475   5.376  0.00  0.00    +0.013 A 
ATOM     13  C   LIG    1        0.265  -3.492   5.440  0.00  0.00    +0.017 A 
ATOM     14  C   LIG    1        1.137  -3.720   4.375  0.00  0.00    +0.034 A 
ENDROOT
BRANCH  11  15
ATOM     15  C   LIG    1       -1.787  -0.539   4.153  0.00  0.00    +0.417 C 
ATOM     16  F   LIG    1       -1.208   0.567   3.686  0.00  0.00    -0.166 F 
ATOM     17  F   LIG    1       -2.772  -0.888   3.326  0.00  0.00    -0.166 F 
ATOM     18  F   LIG    1       -2.321  -0.249   5.341  0.00  0.00    -0.166 F 
ENDBRANCH  11  15
BRANCH   8  19
ATOM     19  C   LIG    1        1.679  -2.554   0.819  0.00  0.00    +0.112 C 
BRANCH  19  20
ATOM     20  C   LIG    1        2.019  -1.042   0.667  0.00  0.00    +0.035 C 
BRANCH  20  21
ATOM     21  C   LIG    1        1.400  -0.381  -0.583  0.00  0.00    +0.086 C 
BRANCH  21  22
ATOM     22  N   LIG    1       -0.063  -0.324  -0.526  0.00  0.00    -0.300 NA
ATOM     23  C   LIG    1       -0.621  -0.113  -1.868  0.00  0.00    +0.100 C 
ATOM     24  C   LIG    1       -2.169  -0.092  -1.812  0.00  0.00    +0.100 C 
ATOM     25  N   LIG    1       -2.645   0.976  -0.920  0.00  0.00    -0.298 NA
ATOM     26  C   LIG    1       -2.064   0.764   0.414  0.00  0.00    +0.100 C 
ATOM     27  C   LIG    1       -0.520   0.775   0.335  0.00  0.00    +0.100 C 
BRANCH  25  28
ATOM     28  C   LIG    1       -4.110   1.014  -0.813  0.00  0.00    +0.112 C 
BRANCH  28  29
ATOM     29  C   LIG    1       -4.862   1.507  -2.068  0.00  0.00    +0.171 C 
BRANCH  29  30
ATOM     30  O   LIG    1       -4.942   0.528  -3.084  0.00  0.00    -0.394 OA
ATOM     31  H   LIG    1       -5.419   0.900  -3.830  0.00  0.00    +0.209 HD
ENDBRANCH  29  30
ENDBRANCH  28  29
ENDBRANCH  25  28
ENDBRANCH  21  22
ENDBRANCH  20  21
ENDBRANCH  19  20
ENDBRANCH   8  19
TORSDOF 8
