REMARK  Name = DB00471
REMARK                            x       y       z     vdW  Elec       q    Type
REMARK                         _______ _______ _______ _____ _____    ______ ____
ROOT
ATOM      1  C   LIG    1        0.119   0.232  -0.271  0.00  0.00    +0.077 C 
ENDROOT
BRANCH   1   6
ATOM      2  C   LIG    1       -1.987  -2.153  -2.423  0.00  0.00    -0.025 A 
ATOM      3  C   LIG    1       -1.640  -1.723  -3.709  0.00  0.00    +0.008 A 
ATOM      4  C   LIG    1       -0.740  -0.675  -3.892  0.00  0.00    +0.001 A 
ATOM      5  C   LIG    1       -0.172  -0.043  -2.788  0.00  0.00    +0.005 A 
ATOM      6  C   LIG    1       -0.501  -0.456  -1.492  0.00  0.00    -0.034 A 
ATOM      7  C   LIG    1       -1.409  -1.508  -1.319  0.00  0.00    +0.012 A 
BRANCH   2   9
ATOM      8  C   LIG    1       -3.243  -3.943  -1.151  0.00  0.00    +0.028 C 
ATOM      9  C   LIG    1       -2.941  -3.274  -2.285  0.00  0.00    +0.010 C 
BRANCH   8  17
ATOM     10 CL   LIG    1       -6.803  -8.364   3.716  0.00  0.00    -0.083 Cl
ATOM     11  C   LIG    1       -6.486  -7.896   2.084  0.00  0.00    +0.043 A 
ATOM     12  C   LIG    1       -7.123  -8.561   1.039  0.00  0.00    +0.021 A 
ATOM     13  C   LIG    1       -6.883  -8.199  -0.284  0.00  0.00    +0.011 A 
ATOM     14  C   LIG    1       -5.984  -7.146  -0.580  0.00  0.00    +0.001 A 
ATOM     15  C   LIG    1       -5.699  -6.730  -1.903  0.00  0.00    +0.012 A 
ATOM     16  C   LIG    1       -4.804  -5.684  -2.114  0.00  0.00    +0.028 A 
ATOM     17  C   LIG    1       -4.198  -5.063  -1.015  0.00  0.00    +0.065 A 
ATOM     18  N   LIG    1       -4.457  -5.444   0.263  0.00  0.00    -0.247 NA
ATOM     19  C   LIG    1       -5.330  -6.464   0.490  0.00  0.00    +0.073 A 
ATOM     20  C   LIG    1       -5.596  -6.856   1.824  0.00  0.00    +0.048 A 
ENDBRANCH   8  17
ENDBRANCH   2   9
ENDBRANCH   1   6
BRANCH   1  21
ATOM     21  C   LIG    1        1.666   0.190  -0.270  0.00  0.00    +0.023 C 
BRANCH  21  22
ATOM     22  C   LIG    1        2.248  -1.245  -0.237  0.00  0.00    +0.037 C 
BRANCH  22  23
ATOM     23  C   LIG    1        3.774  -1.402  -0.361  0.00  0.00    -0.041 A 
ATOM     24  C   LIG    1        4.588  -0.269  -0.190  0.00  0.00    +0.004 A 
ATOM     25  C   LIG    1        5.970  -0.342  -0.316  0.00  0.00    +0.000 A 
ATOM     26  C   LIG    1        6.569  -1.554  -0.623  0.00  0.00    +0.000 A 
ATOM     27  C   LIG    1        5.786  -2.691  -0.791  0.00  0.00    +0.007 A 
ATOM     28  C   LIG    1        4.385  -2.657  -0.648  0.00  0.00    -0.013 A 
BRANCH  28  29
ATOM     29  C   LIG    1        3.591  -3.981  -0.864  0.00  0.00    +0.086 C 
ATOM     30  C   LIG    1        3.084  -4.069  -2.320  0.00  0.00    +0.046 C 
ATOM     31  C   LIG    1        4.398  -5.261  -0.515  0.00  0.00    +0.046 C 
BRANCH  29  32
ATOM     32  O   LIG    1        2.464  -4.104  -0.013  0.00  0.00    -0.384 OA
ATOM     33  H   LIG    1        2.030  -4.939  -0.203  0.00  0.00    +0.211 HD
ENDBRANCH  29  32
ENDBRANCH  28  29
ENDBRANCH  22  23
ENDBRANCH  21  22
ENDBRANCH   1  21
BRANCH   1  34
ATOM     34  S   LIG    1       -0.531   1.927  -0.080  0.00  0.00    -0.152 S 
BRANCH  34  35
ATOM     35  C   LIG    1       -2.335   1.648  -0.115  0.00  0.00    +0.077 C 
BRANCH  35  36
ATOM     36  C   LIG    1       -3.294   2.764   0.382  0.00  0.00    -0.010 C 
ATOM     37  C   LIG    1       -2.891   4.212   0.154  0.00  0.00    +0.009 C 
ATOM     38  C   LIG    1       -2.852   3.634   1.547  0.00  0.00    +0.009 C 
BRANCH  36  39
ATOM     39  C   LIG    1       -4.806   2.435   0.276  0.00  0.00    +0.128 C 
BRANCH  39  40
ATOM     40  C   LIG    1       -5.308   1.378   1.271  0.00  0.00    +0.305 C 
ATOM     41  O   LIG    1       -4.631   0.911   2.186  0.00  0.00    -0.251 OA
BRANCH  40  42
ATOM     42  O   LIG    1       -6.602   1.035   1.012  0.00  0.00    -0.481 OA
ATOM     43  H   LIG    1       -6.933   0.373   1.623  0.00  0.00    +0.295 HD
ENDBRANCH  40  42
ENDBRANCH  39  40
ENDBRANCH  36  39
ENDBRANCH  35  36
ENDBRANCH  34  35
ENDBRANCH   1  34
TORSDOF 14
