REMARK  Name = DB00301
REMARK                            x       y       z     vdW  Elec       q    Type
REMARK                         _______ _______ _______ _____ _____    ______ ____
ROOT
ATOM      1  N   LIG    1        1.590  -0.178   0.244  0.00  0.00    -0.298 N 
ATOM      2  H   LIG    1        2.008   0.233   1.066  0.00  0.00    +0.150 HD
ATOM      3  C   LIG    1        2.409  -0.717  -0.677  0.00  0.00    +0.250 C 
ATOM      4  O   LIG    1        2.026  -1.253  -1.717  0.00  0.00    -0.270 OA
ENDROOT
BRANCH   1   5
ATOM      5  CA  LIG    1        0.129  -0.103   0.173  0.00  0.00    +0.190 C 
ATOM      6  C   LIG    1       -0.657  -0.233   1.497  0.00  0.00    +0.165 C 
ATOM      7  S   LIG    1        0.085   0.061   3.125  0.00  0.00    -0.127 S 
ATOM      8  C   LIG    1       -1.232   1.222   3.601  0.00  0.00    +0.042 C 
ATOM      9  C   LIG    1       -2.418   0.331   4.074  0.00  0.00    +0.025 C 
ATOM     10  C   LIG    1       -0.821   2.113   4.792  0.00  0.00    +0.025 C 
ATOM     11  CA  LIG    1       -1.540   2.013   2.279  0.00  0.00    +0.201 C 
ATOM     12  N   LIG    1       -1.293   1.072   1.176  0.00  0.00    -0.271 N 
ATOM     13  C   LIG    1       -0.431   1.334   0.104  0.00  0.00    +0.240 C 
ATOM     14  O   LIG    1       -0.171   2.351  -0.537  0.00  0.00    -0.273 OA
BRANCH  11  15
ATOM     15  C   LIG    1       -2.935   2.675   2.225  0.00  0.00    +0.327 C 
ATOM     16  OXT LIG    1       -3.844   2.295   1.516  0.00  0.00    -0.249 OA
BRANCH  15  17
ATOM     17  O   LIG    1       -2.978   3.757   3.055  0.00  0.00    -0.479 OA
ATOM     18  H   LIG    1       -3.830   4.199   3.031  0.00  0.00    +0.295 HD
ENDBRANCH  15  17
ENDBRANCH  11  15
ENDBRANCH   1   5
BRANCH   3  19
ATOM     19  C   LIG    1        3.809  -0.637  -0.338  0.00  0.00    +0.106 A 
ATOM     20  C   LIG    1        4.479   0.373   0.348  0.00  0.00    +0.147 A 
ATOM     21  C   LIG    1        4.083   1.674   1.011  0.00  0.00    +0.090 C 
ATOM     22  O   LIG    1        5.796   0.059   0.413  0.00  0.00    -0.359 OA
ATOM     23  N   LIG    1        6.013  -1.133  -0.273  0.00  0.00    -0.077 NA
ATOM     24  C   LIG    1        4.839  -1.511  -0.731  0.00  0.00    +0.130 A 
BRANCH  24  25
ATOM     25  C   LIG    1        4.741  -2.756  -1.547  0.00  0.00    +0.058 A 
ATOM     26  C   LIG    1        4.624  -3.994  -0.899  0.00  0.00    +0.134 A 
ATOM     27  F   LIG    1        4.610  -4.064   0.453  0.00  0.00    -0.205 F 
ATOM     28  C   LIG    1        4.517  -5.169  -1.643  0.00  0.00    +0.039 A 
ATOM     29  C   LIG    1        4.523  -5.119  -3.035  0.00  0.00    +0.004 A 
ATOM     30  C   LIG    1        4.636  -3.892  -3.687  0.00  0.00    +0.021 A 
ATOM     31  C   LIG    1        4.745  -2.711  -2.951  0.00  0.00    +0.053 A 
ATOM     32 CL   LIG    1        4.883  -1.211  -3.805  0.00  0.00    -0.083 Cl
ENDBRANCH  24  25
ENDBRANCH   3  19
TORSDOF 5
