REMARK  Name = DB00240
REMARK                            x       y       z     vdW  Elec       q    Type
REMARK                         _______ _______ _______ _____ _____    ______ ____
ROOT
ATOM      1  C   LIG    1       -4.784  -1.440   6.212  0.00  0.00    +0.047 C 
ATOM      2  C   LIG    1       -3.600  -1.740   5.641  0.00  0.00    -0.012 C 
ATOM      3  C   LIG    1       -3.410  -2.462   4.298  0.00  0.00    +0.013 C 
ATOM      4  C   LIG    1       -2.722  -3.821   4.611  0.00  0.00    +0.020 C 
ATOM      5  C   LIG    1       -2.644  -1.548   3.260  0.00  0.00    +0.036 C 
ATOM      6  C   LIG    1       -1.235  -1.017   3.727  0.00  0.00    +0.120 C 
ATOM      7  C   LIG    1       -0.534  -0.164   2.632  0.00  0.00    +0.041 C 
ATOM      8  C   LIG    1       -0.437  -0.870   1.241  0.00  0.00    +0.009 C 
ATOM      9  C   LIG    1        0.474  -2.145   1.319  0.00  0.00    +0.015 C 
ATOM     10  C   LIG    1       -0.043   0.054   0.020  0.00  0.00    +0.134 C 
ATOM     11  C   LIG    1       -0.629  -0.730  -1.213  0.00  0.00    +0.026 C 
ATOM     12  C   LIG    1       -0.953   0.117  -2.463  0.00  0.00    +0.011 C 
ATOM     13  C   LIG    1       -1.843  -1.522  -0.668  0.00  0.00    +0.011 C 
ATOM     14  C   LIG    1       -1.896  -1.195   0.833  0.00  0.00    +0.003 C 
ATOM     15  C   LIG    1       -2.622  -2.163   1.813  0.00  0.00    +0.017 C 
ATOM     16  C   LIG    1       -4.051  -2.541   1.321  0.00  0.00    +0.088 C 
ATOM     17 CL   LIG    1       -5.053  -1.087   0.997  0.00  0.00    -0.121 Cl
ATOM     18  C   LIG    1       -4.794  -3.436   2.332  0.00  0.00    +0.051 C 
ATOM     19  C   LIG    1       -4.815  -2.762   3.703  0.00  0.00    -0.055 C 
ATOM     20  C   LIG    1       -5.974  -2.438   4.324  0.00  0.00    +0.051 C 
ATOM     21  C   LIG    1       -6.078  -1.766   5.619  0.00  0.00    +0.179 C 
ATOM     22  O   LIG    1       -7.150  -1.497   6.155  0.00  0.00    -0.288 OA
ENDROOT
BRANCH   6  23
ATOM     23  O   LIG    1       -0.356  -2.011   4.214  0.00  0.00    -0.391 OA
ATOM     24  H   LIG    1       -0.778  -2.456   4.952  0.00  0.00    +0.210 HD
ENDBRANCH   6  23
BRANCH  10  25
ATOM     25  O   LIG    1       -0.615   1.359   0.114  0.00  0.00    -0.380 OA
ATOM     26  H   LIG    1       -1.571   1.272   0.101  0.00  0.00    +0.211 HD
ENDBRANCH  10  25
BRANCH  10  27
ATOM     27  C   LIG    1        1.501   0.288  -0.094  0.00  0.00    +0.190 C 
ATOM     28  O   LIG    1        2.202  -0.448  -0.795  0.00  0.00    -0.292 OA
BRANCH  27  29
ATOM     29  C   LIG    1        2.127   1.463   0.694  0.00  0.00    +0.233 C 
BRANCH  29  30
ATOM     30  O   LIG    1        3.534   1.493   0.526  0.00  0.00    -0.387 OA
ATOM     31  H   LIG    1        3.882   2.257   0.991  0.00  0.00    +0.210 HD
ENDBRANCH  29  30
ENDBRANCH  27  29
ENDBRANCH  10  27
TORSDOF 5
