REMARK  Name = DB00756
REMARK                            x       y       z     vdW  Elec       q    Type
REMARK                         _______ _______ _______ _____ _____    ______ ____
ROOT
ATOM      1  C   LIG    1        0.056   0.079   0.000  0.00  0.00    +0.080 C 
ENDROOT
BRANCH   1  10
ATOM      2 CL   LIG    1        1.506  -1.196   2.451  0.00  0.00    -0.082 Cl
ATOM      3  C   LIG    1        2.317  -0.553   1.056  0.00  0.00    +0.066 A 
ATOM      4  C   LIG    1        3.718  -0.602   1.009  0.00  0.00    +0.061 A 
ATOM      5  C   LIG    1        4.398  -0.113  -0.103  0.00  0.00    +0.045 A 
ATOM      6  C   LIG    1        3.698   0.422  -1.179  0.00  0.00    +0.084 A 
ATOM      7  C   LIG    1        2.300   0.478  -1.144  0.00  0.00    +0.140 A 
ATOM      8 CL   LIG    1        4.587   1.008  -2.543  0.00  0.00    -0.080 Cl
ATOM      9 CL   LIG    1        4.646  -1.266   2.310  0.00  0.00    -0.082 Cl
ATOM     10  C   LIG    1        1.594   0.004  -0.021  0.00  0.00    +0.020 A 
BRANCH   7  11
ATOM     11  O   LIG    1        1.631   1.000  -2.224  0.00  0.00    -0.505 OA
ATOM     12  H   LIG    1        2.223   1.290  -2.922  0.00  0.00    +0.292 HD
ENDBRANCH   7  11
ENDBRANCH   1  10
BRANCH   1  13
ATOM     13  C   LIG    1       -0.528   1.504   0.021  0.00  0.00    +0.020 A 
ATOM     14  C   LIG    1       -1.294   2.000  -1.056  0.00  0.00    +0.066 A 
ATOM     15  C   LIG    1       -1.807   3.304  -1.009  0.00  0.00    +0.061 A 
ATOM     16  C   LIG    1       -1.573   4.109   0.103  0.00  0.00    +0.045 A 
ATOM     17  C   LIG    1       -0.835   3.627   1.179  0.00  0.00    +0.084 A 
ATOM     18 CL   LIG    1       -0.579   4.660   2.543  0.00  0.00    -0.080 Cl
ATOM     19 CL   LIG    1       -2.743   3.958  -2.310  0.00  0.00    -0.082 Cl
ATOM     20 CL   LIG    1       -1.630   1.021  -2.451  0.00  0.00    -0.082 Cl
ATOM     21  C   LIG    1       -0.316   2.328   1.144  0.00  0.00    +0.140 A 
BRANCH  21  22
ATOM     22  O   LIG    1        0.399   1.871   2.224  0.00  0.00    -0.505 OA
ATOM     23  H   LIG    1        0.475   2.526   2.922  0.00  0.00    +0.292 HD
ENDBRANCH  21  22
ENDBRANCH   1  13
TORSDOF 4
