REMARK  Name = DB00333
REMARK                            x       y       z     vdW  Elec       q    Type
REMARK                         _______ _______ _______ _____ _____    ______ ____
ROOT
ATOM      1  C   LIG    1       -0.114  -0.205  -0.193  0.00  0.00    +0.080 C 
ENDROOT
BRANCH   1   2
ATOM      2  C   LIG    1       -0.591   1.244   0.157  0.00  0.00    -0.030 A 
ATOM      3  C   LIG    1        0.309   2.298   0.397  0.00  0.00    +0.005 A 
ATOM      4  C   LIG    1       -0.149   3.576   0.702  0.00  0.00    +0.000 A 
ATOM      5  C   LIG    1       -1.516   3.824   0.775  0.00  0.00    +0.000 A 
ATOM      6  C   LIG    1       -2.429   2.801   0.545  0.00  0.00    +0.000 A 
ATOM      7  C   LIG    1       -1.969   1.523   0.239  0.00  0.00    +0.005 A 
ENDBRANCH   1   2
BRANCH   1   8
ATOM      8  C   LIG    1       -0.736  -0.733  -1.529  0.00  0.00    -0.030 A 
ATOM      9  C   LIG    1       -0.811  -2.111  -1.805  0.00  0.00    +0.005 A 
ATOM     10  C   LIG    1       -1.321  -2.575  -3.014  0.00  0.00    +0.000 A 
ATOM     11  C   LIG    1       -1.748  -1.667  -3.976  0.00  0.00    +0.000 A 
ATOM     12  C   LIG    1       -1.659  -0.299  -3.742  0.00  0.00    +0.000 A 
ATOM     13  C   LIG    1       -1.149   0.163  -2.532  0.00  0.00    +0.005 A 
ENDBRANCH   1   8
BRANCH   1  14
ATOM     14  C   LIG    1       -0.610  -1.060   1.032  0.00  0.00    +0.148 C 
ATOM     15  O   LIG    1       -1.655  -1.715   0.987  0.00  0.00    -0.296 OA
BRANCH  14  17
ATOM     16  C   LIG    1       -0.508  -1.598   3.569  0.00  0.00    +0.012 C 
ATOM     17  C   LIG    1        0.187  -0.966   2.349  0.00  0.00    +0.072 C 
ENDBRANCH  14  17
ENDBRANCH   1  14
BRANCH   1  18
ATOM     18  C   LIG    1        1.456  -0.349  -0.309  0.00  0.00    +0.042 C 
BRANCH  18  19
ATOM     19  C   LIG    1        2.166   0.323  -1.529  0.00  0.00    +0.055 C 
ATOM     20  C   LIG    1        3.610   0.768  -1.186  0.00  0.00    +0.024 C 
BRANCH  19  21
ATOM     21  N   LIG    1        2.084  -0.496  -2.756  0.00  0.00    -0.306 NA
ATOM     22  C   LIG    1        2.289   0.285  -3.974  0.00  0.00    +0.104 C 
ATOM     23  C   LIG    1        2.941  -1.683  -2.779  0.00  0.00    +0.104 C 
ENDBRANCH  19  21
ENDBRANCH  18  19
ENDBRANCH   1  18
TORSDOF 7
