REMARK  Name = DB00170
REMARK                            x       y       z     vdW  Elec       q    Type
REMARK                         _______ _______ _______ _____ _____    ______ ____
ROOT
ATOM      1  O   LIG    1       -0.111  -2.389   0.000  0.00  0.00    -0.287 OA
ATOM      2  C   LIG    1       -0.680  -1.294   0.000  0.00  0.00    +0.190 C 
ATOM      3  C   LIG    1        0.005   0.022   0.000  0.00  0.00    +0.000 C 
ATOM      4  C   LIG    1        1.532  -0.014   0.000  0.00  0.00    +0.048 C 
ATOM      5  C   LIG    1       -0.658   1.203   0.000  0.00  0.00    +0.058 C 
ATOM      6  C   LIG    1       -2.111   1.371   0.000  0.00  0.00    +0.187 C 
ATOM      7  C   LIG    1       -2.856   0.064   0.000  0.00  0.00    +0.032 A 
ATOM      8  C   LIG    1       -4.261   0.086   0.000  0.00  0.00    +0.012 A 
ATOM      9  C   LIG    1       -4.998  -1.094   0.000  0.00  0.00    +0.001 A 
ATOM     10  C   LIG    1       -4.343  -2.320   0.000  0.00  0.00    +0.001 A 
ATOM     11  C   LIG    1       -2.952  -2.364   0.000  0.00  0.00    +0.012 A 
ATOM     12  O   LIG    1       -2.672   2.467   0.000  0.00  0.00    -0.287 OA
ATOM     13  C   LIG    1       -2.186  -1.185   0.000  0.00  0.00    +0.033 A 
ENDROOT
TORSDOF 0
