REMARK  Name = DB00778
REMARK                            x       y       z     vdW  Elec       q    Type
REMARK                         _______ _______ _______ _____ _____    ______ ____
ROOT
ATOM      1  C   LIG    1        0.139   0.207  -0.005  0.00  0.00    +0.158 C 
ATOM      2  C   LIG    1       -0.453  -0.458   1.316  0.00  0.00    +0.047 C 
ATOM      3  C   LIG    1       -0.004   0.156   2.687  0.00  0.00    +0.140 C 
ATOM      4  C   LIG    1        1.508   0.011   3.075  0.00  0.00    +0.124 C 
ATOM      5  C   LIG    1        1.973  -1.448   3.246  0.00  0.00    +0.313 C 
ATOM      6  O   LIG    1        3.036  -1.769   2.455  0.00  0.00    -0.458 OA
ATOM      7  C   LIG    1        3.657  -3.066   2.481  0.00  0.00    +0.210 C 
ATOM      8  C   LIG    1        4.193  -3.433   1.041  0.00  0.00    +0.126 C 
ATOM      9  C   LIG    1        5.328  -2.476   0.594  0.00  0.00    +0.048 C 
ATOM     10  C   LIG    1        3.038  -3.504  -0.034  0.00  0.00    +0.158 C 
ATOM     11  C   LIG    1        3.420  -3.718  -1.555  0.00  0.00    +0.065 C 
ATOM     12  C   LIG    1        4.062  -5.105  -1.843  0.00  0.00    +0.016 C 
ATOM     13  C   LIG    1        2.232  -3.397  -2.530  0.00  0.00    +0.066 C 
ATOM     14  N   LIG    1        1.726  -4.338  -3.239  0.00  0.00    -0.091 NA
ATOM     15  C   LIG    1        1.718  -1.916  -2.583  0.00  0.00    +0.037 C 
ATOM     16  C   LIG    1        2.856  -0.905  -2.308  0.00  0.00    +0.014 C 
ATOM     17  C   LIG    1        0.413  -1.804  -1.723  0.00  0.00    +0.046 C 
ATOM     18  O   LIG    1        1.393  -2.216   4.017  0.00  0.00    -0.250 OA
ATOM     19  C   LIG    1        1.925   0.826   4.317  0.00  0.00    +0.022 C 
ATOM     20  C   LIG    1       -0.538  -2.004   1.386  0.00  0.00    +0.013 C 
ATOM     21  C   LIG    1       -0.288  -0.436  -1.390  0.00  0.00    +0.090 C 
ATOM     22  C   LIG    1       -0.286   0.554  -2.583  0.00  0.00    +0.044 C 
ENDROOT
BRANCH   8  23
ATOM     23  O   LIG    1        4.786  -4.719   1.136  0.00  0.00    -0.383 OA
ATOM     24  H   LIG    1        5.492  -4.679   1.785  0.00  0.00    +0.210 HD
ENDBRANCH   8  23
BRANCH  10  25
ATOM     25  O   LIG    1        2.047  -4.447   0.355  0.00  0.00    -0.388 OA
ATOM     26  H   LIG    1        2.444  -5.321   0.350  0.00  0.00    +0.210 HD
ENDBRANCH  10  25
BRANCH   7  27
ATOM     27  C   LIG    1        4.745  -3.107   3.602  0.00  0.00    +0.044 C 
ATOM     28  C   LIG    1        4.215  -3.145   5.044  0.00  0.00    +0.007 C 
ENDBRANCH   7  27
BRANCH  21  29
ATOM     29  O   LIG    1       -1.679  -0.720  -1.292  0.00  0.00    -0.386 OA
ATOM     30  H   LIG    1       -1.971  -1.102  -2.122  0.00  0.00    +0.210 HD
ENDBRANCH  21  29
BRANCH  14  31
ATOM     31  O   LIG    1        0.667  -3.899  -4.055  0.00  0.00    -0.365 OA
BRANCH  31  32
ATOM     32  C   LIG    1        0.209  -4.980  -4.856  0.00  0.00    +0.426 C 
BRANCH  32  33
ATOM     33  O   LIG    1       -0.746  -4.537  -5.812  0.00  0.00    -0.340 OA
BRANCH  33  34
ATOM     34  C   LIG    1       -0.217  -3.655  -6.795  0.00  0.00    +0.192 C 
BRANCH  34  35
ATOM     35  C   LIG    1       -1.335  -3.248  -7.773  0.00  0.00    +0.187 C 
BRANCH  35  36
ATOM     36  O   LIG    1       -1.976  -4.355  -8.402  0.00  0.00    -0.381 OA
ATOM     37  C   LIG    1       -1.175  -5.071  -9.332  0.00  0.00    +0.194 C 
ENDBRANCH  35  36
ENDBRANCH  34  35
ENDBRANCH  33  34
ENDBRANCH  32  33
ENDBRANCH  31  32
ENDBRANCH  14  31
BRANCH   3  38
ATOM     38  O   LIG    1       -0.420   1.529   2.661  0.00  0.00    -0.347 OA
BRANCH  38  39
ATOM     39  C   LIG    1       -1.123   2.002   3.781  0.00  0.00    +0.254 C 
ATOM     40  O   LIG    1       -2.317   1.292   4.025  0.00  0.00    -0.346 OA
ATOM     41  C   LIG    1       -3.380   1.493   3.088  0.00  0.00    +0.149 C 
ATOM     42  C   LIG    1       -3.757   2.990   3.002  0.00  0.00    +0.175 C 
ATOM     43  C   LIG    1       -2.515   3.823   2.596  0.00  0.00    +0.099 C 
ATOM     44  C   LIG    1       -2.836   5.341   2.592  0.00  0.00    +0.044 C 
ATOM     45  C   LIG    1       -4.545   0.592   3.533  0.00  0.00    +0.041 C 
ATOM     46  C   LIG    1       -1.385   3.508   3.613  0.00  0.00    +0.098 C 
BRANCH  42  47
ATOM     47  O   LIG    1       -4.869   3.218   2.149  0.00  0.00    -0.386 OA
ATOM     48  H   LIG    1       -5.643   2.804   2.540  0.00  0.00    +0.210 HD
ENDBRANCH  42  47
BRANCH  43  49
ATOM     49  O   LIG    1       -2.174   3.426   1.256  0.00  0.00    -0.374 OA
ATOM     50  C   LIG    1       -1.058   4.028   0.612  0.00  0.00    +0.194 C 
ENDBRANCH  43  49
ENDBRANCH  38  39
ENDBRANCH   3  38
BRANCH   1  51
ATOM     51  O   LIG    1        1.569   0.368   0.025  0.00  0.00    -0.342 OA
BRANCH  51  52
ATOM     52  C   LIG    1        2.072   1.690   0.040  0.00  0.00    +0.281 C 
ATOM     53  O   LIG    1        1.669   2.378  -1.113  0.00  0.00    -0.346 OA
ATOM     54  C   LIG    1        2.035   3.758  -1.131  0.00  0.00    +0.120 C 
ATOM     55  C   LIG    1        3.564   3.927  -1.084  0.00  0.00    +0.053 C 
ATOM     56  C   LIG    1        4.213   3.083   0.042  0.00  0.00    +0.092 C 
ATOM     57  C   LIG    1        1.410   4.430  -2.362  0.00  0.00    +0.038 C 
ATOM     58  C   LIG    1        3.620   1.644   0.065  0.00  0.00    +0.187 C 
BRANCH  56  59
ATOM     59  N   LIG    1        5.685   3.154   0.118  0.00  0.00    -0.303 NA
ATOM     60  C   LIG    1        6.176   4.491   0.446  0.00  0.00    +0.105 C 
ATOM     61  C   LIG    1        6.379   2.635  -1.059  0.00  0.00    +0.105 C 
ENDBRANCH  56  59
BRANCH  58  62
ATOM     62  O   LIG    1        4.114   0.929   1.182  0.00  0.00    -0.385 OA
ATOM     63  H   LIG    1        4.186   1.535   1.923  0.00  0.00    +0.210 HD
ENDBRANCH  58  62
ENDBRANCH  51  52
ENDBRANCH   1  51
TORSDOF 18
