REMARK  Name = DB00185
REMARK                            x       y       z     vdW  Elec       q    Type
REMARK                         _______ _______ _______ _____ _____    ______ ____
ROOT
ATOM      1  C   LIG    1       -2.817  -1.589  -1.109  0.00  0.00    +0.025 C 
ATOM      2  C   LIG    1       -2.336  -2.721  -2.051  0.00  0.00    +0.022 C 
ATOM      3  C   LIG    1       -2.336  -2.229  -3.532  0.00  0.00    +0.085 C 
ATOM      4  N   LIG    1       -2.776  -0.824  -3.686  0.00  0.00    -0.300 NA
ATOM      5  C   LIG    1       -1.872   0.011  -2.863  0.00  0.00    +0.120 C 
ATOM      6  C   LIG    1       -4.137  -0.720  -3.113  0.00  0.00    +0.085 C 
ATOM      7  C   LIG    1       -1.881  -0.363  -1.336  0.00  0.00    +0.095 C 
ATOM      8  O   LIG    1       -0.531  -0.735  -1.015  0.00  0.00    -0.358 OA
ATOM      9  C   LIG    1        0.011   0.043   0.042  0.00  0.00    +0.173 C 
ATOM     10  C   LIG    1        1.540   0.068  -0.052  0.00  0.00    +0.050 C 
ATOM     11  S   LIG    1       -0.717   1.677  -0.114  0.00  0.00    -0.127 S 
ATOM     12  C   LIG    1       -2.271   0.849  -0.445  0.00  0.00    +0.108 C 
ATOM     13  C   LIG    1       -4.221  -1.177  -1.622  0.00  0.00    +0.022 C 
ENDROOT
TORSDOF 0
