REMARK  Name = DB00597
REMARK                            x       y       z     vdW  Elec       q    Type
REMARK                         _______ _______ _______ _____ _____    ______ ____
ROOT
ATOM      1  N   LIG    1        0.019   0.094  -0.154  0.00  0.00    -0.297 NA
ATOM      2  C   LIG    1       -0.486  -0.772  -1.229  0.00  0.00    +0.100 C 
ATOM      3  C   LIG    1       -2.008  -1.035  -1.111  0.00  0.00    +0.100 C 
ATOM      4  N   LIG    1       -2.525  -1.932  -2.162  0.00  0.00    -0.290 NA
ATOM      5  C   LIG    1       -2.383  -1.399  -3.527  0.00  0.00    +0.100 C 
ATOM      6  C   LIG    1       -3.217  -0.117  -3.826  0.00  0.00    +0.100 C 
ATOM      7  N   LIG    1       -2.637   0.802  -4.819  0.00  0.00    -0.290 NA
ATOM      8  C   LIG    1       -1.305   1.339  -4.474  0.00  0.00    +0.100 C 
ATOM      9  C   LIG    1       -1.237   2.095  -3.121  0.00  0.00    +0.100 C 
ATOM     10  N   LIG    1        0.136   2.140  -2.592  0.00  0.00    -0.290 NA
ATOM     11  C   LIG    1        0.137   2.505  -1.164  0.00  0.00    +0.100 C 
ATOM     12  C   LIG    1       -0.492   1.481  -0.168  0.00  0.00    +0.100 C 
ENDROOT
BRANCH   1  13
ATOM     13  C   LIG    1        1.484  -0.009  -0.059  0.00  0.00    +0.115 C 
BRANCH  13  14
ATOM     14  C   LIG    1        2.108   0.672   1.186  0.00  0.00    +0.125 C 
ATOM     15  C   LIG    1        3.636   0.515   1.216  0.00  0.00    +0.039 C 
BRANCH  14  16
ATOM     16  O   LIG    1        1.579   0.109   2.371  0.00  0.00    -0.391 OA
ATOM     17  H   LIG    1        0.621   0.110   2.300  0.00  0.00    +0.210 HD
ENDBRANCH  14  16
ENDBRANCH  13  14
ENDBRANCH   1  13
BRANCH   4  18
ATOM     18  C   LIG    1       -3.922  -2.339  -1.902  0.00  0.00    +0.205 C 
BRANCH  18  19
ATOM     19  C   LIG    1       -4.121  -3.359  -0.748  0.00  0.00    +0.319 C 
ATOM     20  O   LIG    1       -5.284  -3.444  -0.295  0.00  0.00    -0.250 OA
BRANCH  19  21
ATOM     21  O   LIG    1       -3.163  -4.067  -0.354  0.00  0.00    -0.480 OA
ATOM     22  H   LIG    1       -3.210  -4.498   0.476  0.00  0.00    +0.295 HD
ENDBRANCH  19  21
ENDBRANCH  18  19
ENDBRANCH   4  18
BRANCH   7  23
ATOM     23  C   LIG    1       -2.637   0.179  -6.161  0.00  0.00    +0.205 C 
BRANCH  23  24
ATOM     24  C   LIG    1       -2.587   1.165  -7.359  0.00  0.00    +0.319 C 
ATOM     25  O   LIG    1       -2.252   0.667  -8.458  0.00  0.00    -0.250 OA
BRANCH  24  26
ATOM     26  O   LIG    1       -2.919   2.365  -7.209  0.00  0.00    -0.480 OA
ATOM     27  H   LIG    1       -3.304   2.648  -6.403  0.00  0.00    +0.295 HD
ENDBRANCH  24  26
ENDBRANCH  23  24
ENDBRANCH   7  23
BRANCH  10  28
ATOM     28  C   LIG    1        0.952   3.094  -3.378  0.00  0.00    +0.205 C 
BRANCH  28  29
ATOM     29  C   LIG    1        2.489   2.995  -3.177  0.00  0.00    +0.319 C 
ATOM     30  O   LIG    1        3.142   4.032  -3.434  0.00  0.00    -0.250 OA
BRANCH  29  31
ATOM     31  O   LIG    1        3.011   1.912  -2.824  0.00  0.00    -0.480 OA
ATOM     32  H   LIG    1        2.790   1.534  -1.995  0.00  0.00    +0.295 HD
ENDBRANCH  29  31
ENDBRANCH  28  29
ENDBRANCH  10  28
TORSDOF 12
