REMARK  Name = DB00312
REMARK                            x       y       z     vdW  Elec       q    Type
REMARK                         _______ _______ _______ _____ _____    ______ ____
ROOT
ATOM      1  O   LIG    1       -0.582  -0.482  -2.493  0.00  0.00    -0.274 OA
ATOM      2  C   LIG    1       -0.705  -0.826  -1.318  0.00  0.00    +0.236 C 
ATOM      3  C   LIG    1       -0.075  -0.060  -0.093  0.00  0.00    +0.126 C 
ATOM      4  C   LIG    1       -0.488  -0.612   1.325  0.00  0.00    +0.236 C 
ATOM      5  N   LIG    1       -1.238  -1.736   1.290  0.00  0.00    -0.239 N 
ATOM      6  H   LIG    1       -1.488  -2.107   2.195  0.00  0.00    +0.159 HD
ATOM      7  C   LIG    1       -1.722  -2.436   0.235  0.00  0.00    +0.312 C 
ATOM      8  O   LIG    1       -2.397  -3.452   0.373  0.00  0.00    -0.252 OA
ATOM      9  O   LIG    1       -0.162  -0.092   2.392  0.00  0.00    -0.274 OA
ATOM     10  N   LIG    1       -1.416  -1.925  -0.982  0.00  0.00    -0.239 N 
ATOM     11  H   LIG    1       -1.805  -2.433  -1.763  0.00  0.00    +0.159 HD
ENDROOT
BRANCH   3  12
ATOM     12  C   LIG    1       -0.634   1.411  -0.159  0.00  0.00    +0.022 C 
ATOM     13  C   LIG    1       -2.153   1.625   0.050  0.00  0.00    +0.005 C 
ENDBRANCH   3  12
BRANCH   3  14
ATOM     14  C   LIG    1        1.510  -0.186  -0.177  0.00  0.00    +0.010 C 
ATOM     15  C   LIG    1        2.046  -1.648  -0.183  0.00  0.00    +0.009 C 
BRANCH  14  16
ATOM     16  C   LIG    1        2.170   0.652  -1.315  0.00  0.00    +0.004 C 
BRANCH  16  17
ATOM     17  C   LIG    1        3.708   0.766  -1.241  0.00  0.00    -0.003 C 
ATOM     18  C   LIG    1        4.287   1.712  -2.302  0.00  0.00    +0.004 C 
ENDBRANCH  16  17
ENDBRANCH  14  16
ENDBRANCH   3  14
TORSDOF 4
