REMARK  Name = DB00541
REMARK                            x       y       z     vdW  Elec       q    Type
REMARK                         _______ _______ _______ _____ _____    ______ ____
ROOT
ATOM      1  C   LIG    1       -3.376   2.259   0.192  0.00  0.00    +0.037 C 
ATOM      2  C   LIG    1       -3.594   2.864  -1.228  0.00  0.00    +0.030 C 
ATOM      3  C   LIG    1       -2.950   4.242  -1.204  0.00  0.00    +0.086 C 
ATOM      4  N   LIG    1       -3.200   4.689   0.147  0.00  0.00    -0.294 NA
ATOM      5  C   LIG    1       -2.582   5.927   0.615  0.00  0.00    +0.111 C 
ATOM      6  C   LIG    1       -2.818   6.157   2.094  0.00  0.00    -0.015 C 
ATOM      7  C   LIG    1       -3.136   5.149   2.927  0.00  0.00    -0.018 C 
ATOM      8  C   LIG    1       -3.268   3.674   2.492  0.00  0.00    +0.045 C 
ATOM      9  C   LIG    1       -4.769   3.228   2.659  0.00  0.00    +0.232 C 
ATOM     10  C   LIG    1       -5.102   1.767   2.195  0.00  0.00    +0.220 C 
ATOM     11  C   LIG    1       -2.877   3.523   0.974  0.00  0.00    +0.083 C 
ATOM     12  C   LIG    1       -4.654   1.506   0.694  0.00  0.00    +0.140 C 
ATOM     13  N   LIG    1       -4.422   0.113   0.260  0.00  0.00    -0.266 N 
ATOM     14  C   LIG    1       -5.415  -0.763  -0.009  0.00  0.00    +0.333 C 
ATOM     15  O   LIG    1       -6.617  -0.516   0.083  0.00  0.00    -0.279 OA
ATOM     16  C   LIG    1       -3.054  -0.103   0.068  0.00  0.00    +0.044 A 
ATOM     17  C   LIG    1       -2.338  -1.299  -0.003  0.00  0.00    +0.069 A 
ATOM     18  C   LIG    1       -0.932  -1.286  -0.070  0.00  0.00    +0.126 A 
ATOM     19  C   LIG    1       -0.237  -0.048  -0.044  0.00  0.00    +0.017 A 
ATOM     20  C   LIG    1       -0.998   1.130   0.063  0.00  0.00    +0.014 A 
ATOM     21  C   LIG    1       -2.388   1.109   0.134  0.00  0.00    -0.016 A 
ENDROOT
BRANCH  19  22
ATOM     22  C   LIG    1        1.333   0.033  -0.116  0.00  0.00    +0.136 C 
ATOM     23  C   LIG    1        1.909  -0.671  -1.429  0.00  0.00    +0.034 C 
ATOM     24  C   LIG    1        1.022  -1.014  -2.678  0.00  0.00    +0.008 C 
ATOM     25  C   LIG    1        1.929  -1.673  -3.761  0.00  0.00    +0.041 C 
ATOM     26  C   LIG    1        2.543  -0.787  -4.884  0.00  0.00    +0.079 C 
ATOM     27  C   LIG    1        1.625   0.431  -5.232  0.00  0.00    +0.119 C 
ATOM     28  N   LIG    1        0.949   1.115  -4.121  0.00  0.00    -0.299 NA
ATOM     29  C   LIG    1        1.848   2.001  -3.373  0.00  0.00    +0.089 C 
ATOM     30  C   LIG    1        1.150   2.795  -2.250  0.00  0.00    +0.053 C 
ATOM     31  C   LIG    1        1.816   2.635  -0.896  0.00  0.00    -0.016 A 
ATOM     32  C   LIG    1        2.498   3.729  -0.251  0.00  0.00    +0.003 A 
ATOM     33  C   LIG    1        2.925   3.278   1.020  0.00  0.00    +0.047 A 
ATOM     34  C   LIG    1        3.609   4.095   1.927  0.00  0.00    +0.026 A 
ATOM     35  C   LIG    1        3.865   5.406   1.526  0.00  0.00    +0.002 A 
ATOM     36  C   LIG    1        3.459   5.882   0.283  0.00  0.00    +0.001 A 
ATOM     37  N   LIG    1        2.523   1.973   1.107  0.00  0.00    -0.357 N 
ATOM     38  H   LIG    1        2.675   1.362   1.897  0.00  0.00    +0.166 HD
ATOM     39  C   LIG    1        2.776   5.060  -0.612  0.00  0.00    +0.010 A 
ATOM     40  C   LIG    1        0.212   0.146  -3.304  0.00  0.00    +0.088 C 
ATOM     41  C   LIG    1        1.879   1.516  -0.033  0.00  0.00    +0.042 A 
BRANCH  22  42
ATOM     42  C   LIG    1        1.877  -0.766   1.140  0.00  0.00    +0.323 C 
ATOM     43  O   LIG    1        1.169  -1.055   2.112  0.00  0.00    -0.249 OA
BRANCH  42  44
ATOM     44  O   LIG    1        3.204  -1.048   1.059  0.00  0.00    -0.467 OA
ATOM     45  C   LIG    1        3.865  -1.741   2.108  0.00  0.00    +0.280 C 
ENDBRANCH  42  44
ENDBRANCH  22  42
BRANCH  26  46
ATOM     46  C   LIG    1        2.888  -1.621  -6.148  0.00  0.00    +0.032 C 
ATOM     47  C   LIG    1        3.615  -0.866  -7.278  0.00  0.00    +0.007 C 
ENDBRANCH  26  46
BRANCH  26  48
ATOM     48  O   LIG    1        3.733  -0.215  -4.367  0.00  0.00    -0.387 OA
ATOM     49  H   LIG    1        4.105   0.365  -5.035  0.00  0.00    +0.210 HD
ENDBRANCH  26  48
ENDBRANCH  19  22
BRANCH  10  50
ATOM     50  C   LIG    1       -4.611   0.735   3.265  0.00  0.00    +0.345 C 
ATOM     51  O   LIG    1       -3.789  -0.151   3.019  0.00  0.00    -0.247 OA
BRANCH  50  52
ATOM     52  O   LIG    1       -5.157   0.942   4.494  0.00  0.00    -0.466 OA
ATOM     53  C   LIG    1       -4.808   0.115   5.593  0.00  0.00    +0.280 C 
ENDBRANCH  50  52
ENDBRANCH  10  50
BRANCH  10  54
ATOM     54  O   LIG    1       -6.515   1.584   2.214  0.00  0.00    -0.373 OA
ATOM     55  H   LIG    1       -6.914   2.223   1.618  0.00  0.00    +0.211 HD
ENDBRANCH  10  54
BRANCH   8  56
ATOM     56  C   LIG    1       -2.306   2.877   3.436  0.00  0.00    +0.013 C 
ATOM     57  C   LIG    1       -0.848   3.377   3.554  0.00  0.00    +0.005 C 
ENDBRANCH   8  56
BRANCH  18  58
ATOM     58  O   LIG    1       -0.186  -2.452  -0.145  0.00  0.00    -0.495 OA
ATOM     59  C   LIG    1       -0.834  -3.718  -0.172  0.00  0.00    +0.277 C 
ENDBRANCH  18  58
BRANCH   9  60
ATOM     60  O   LIG    1       -5.626   4.139   1.941  0.00  0.00    -0.457 OA
BRANCH  60  61
ATOM     61  C   LIG    1       -6.450   5.016   2.561  0.00  0.00    +0.304 C 
ATOM     62  C   LIG    1       -7.231   5.866   1.567  0.00  0.00    +0.136 C 
ATOM     63  O   LIG    1       -6.588   5.161   3.775  0.00  0.00    -0.251 OA
ENDBRANCH  60  61
ENDBRANCH   9  60
TORSDOF 12
