REMARK  Name = DB00987
REMARK                            x       y       z     vdW  Elec       q    Type
REMARK                         _______ _______ _______ _____ _____    ______ ____
ROOT
ATOM      1  O4*   C A  1        2.105   0.912   0.728  0.00  0.00    -0.346 OA
ATOM      2  C4*   C A  1        3.438   1.219   0.332  0.00  0.00    +0.177 C 
ATOM      3  C3*   C A  1        3.566   0.644  -1.094  0.00  0.00    +0.178 C 
ATOM      4  C2*   C A  1        2.145   0.240  -1.500  0.00  0.00    +0.195 C 
ATOM      5  C1*   C A  1        1.551  -0.052  -0.117  0.00  0.00    +0.255 C 
ENDROOT
BRANCH   5   6
ATOM      6  N1    C A  1        0.094  -0.127   0.005  0.00  0.00    -0.270 N 
ATOM      7  C2    C A  1       -0.564  -1.276  -0.417  0.00  0.00    +0.352 A 
ATOM      8  N3    C A  1       -1.975  -1.254  -0.332  0.00  0.00    -0.178 NA
ATOM      9  C4    C A  1       -2.638  -0.189  -0.032  0.00  0.00    +0.123 A 
ATOM     10  C5    C A  1       -1.968   1.037   0.288  0.00  0.00    +0.061 A 
ATOM     11  O2    C A  1        0.094  -2.228  -0.845  0.00  0.00    -0.244 OA
ATOM     12  C6    C A  1       -0.627   1.010   0.294  0.00  0.00    +0.096 A 
BRANCH   9  13
ATOM     13  N4    C A  1       -3.978  -0.194   0.003  0.00  0.00    -0.343 N 
ATOM     14  H41   C A  1       -4.490  -1.037  -0.210  0.00  0.00    +0.144 HD
ATOM     15  H42   C A  1       -4.489   0.642   0.246  0.00  0.00    +0.144 HD
ENDBRANCH   9  13
ENDBRANCH   5   6
BRANCH   4  16
ATOM     16  O2*   C A  1        1.437   1.275  -2.164  0.00  0.00    -0.385 OA
ATOM     17  H2*   C A  1        0.601   0.922  -2.476  0.00  0.00    +0.210 HD
ENDBRANCH   4  16
BRANCH   3  18
ATOM     18  O3*   C A  1        4.457  -0.458  -1.146  0.00  0.00    -0.386 OA
ATOM     19  H3*   C A  1        4.126  -1.146  -0.563  0.00  0.00    +0.210 HD
ENDBRANCH   3  18
BRANCH   2  20
ATOM     20  C5*   C A  1        3.675   2.737   0.481  0.00  0.00    +0.190 C 
BRANCH  20  21
ATOM     21  O5*   C A  1        2.805   3.508  -0.325  0.00  0.00    -0.392 OA
ATOM     22  H5*   C A  1        3.006   4.437  -0.191  0.00  0.00    +0.210 HD
ENDBRANCH  20  21
ENDBRANCH   2  20
TORSDOF 6
