REMARK  Name = DB00631
REMARK                            x       y       z     vdW  Elec       q    Type
REMARK                         _______ _______ _______ _____ _____    ______ ____
ROOT
ATOM      1 CL   LIG    1       -0.751   4.607  -1.435  0.00  0.00    -0.041 Cl
ATOM      2  C   LIG    1       -1.163   3.052  -0.815  0.00  0.00    +0.226 A 
ATOM      3  N   LIG    1       -2.426   2.894  -0.392  0.00  0.00    -0.201 NA
ATOM      4  C   LIG    1       -2.803   1.689   0.113  0.00  0.00    +0.149 A 
ATOM      5  C   LIG    1       -1.839   0.657   0.167  0.00  0.00    +0.147 A 
ATOM      6  C   LIG    1       -0.571   0.943  -0.309  0.00  0.00    +0.169 A 
ATOM      7  N   LIG    1        0.144  -0.216  -0.147  0.00  0.00    -0.285 N 
ATOM      8  C   LIG    1       -0.710  -1.083   0.434  0.00  0.00    +0.203 A 
ATOM      9  N   LIG    1       -1.914  -0.603   0.619  0.00  0.00    -0.231 NA
ATOM     10  N   LIG    1       -0.178   2.138  -0.810  0.00  0.00    -0.198 NA
ENDROOT
BRANCH   7  11
ATOM     11  C   LIG    1        1.613  -0.482  -0.452  0.00  0.00    +0.259 C 
ATOM     12  C   LIG    1        2.197  -0.036  -1.790  0.00  0.00    +0.246 C 
ATOM     13  C   LIG    1        2.926   1.250  -1.425  0.00  0.00    +0.184 C 
ATOM     14  C   LIG    1        3.310   1.071   0.050  0.00  0.00    +0.178 C 
ATOM     15  F   LIG    1        1.272   0.162  -2.732  0.00  0.00    -0.238 F 
ATOM     16  O   LIG    1        2.429   0.063   0.539  0.00  0.00    -0.345 OA
BRANCH  13  17
ATOM     17  O   LIG    1        4.040   1.487  -2.263  0.00  0.00    -0.386 OA
ATOM     18  H   LIG    1        4.545   2.218  -1.898  0.00  0.00    +0.210 HD
ENDBRANCH  13  17
BRANCH  14  19
ATOM     19  C   LIG    1        3.133   2.321   0.932  0.00  0.00    +0.190 C 
BRANCH  19  20
ATOM     20  O   LIG    1        4.123   3.284   0.633  0.00  0.00    -0.392 OA
ATOM     21  H   LIG    1        3.983   4.050   1.196  0.00  0.00    +0.210 HD
ENDBRANCH  19  20
ENDBRANCH  14  19
ENDBRANCH   7  11
BRANCH   4  22
ATOM     22  N   LIG    1       -4.115   1.531   0.554  0.00  0.00    -0.341 N 
ATOM     23  H   LIG    1       -4.757   2.307   0.484  0.00  0.00    +0.144 HD
ATOM     24  H   LIG    1       -4.408   0.639   0.928  0.00  0.00    +0.144 HD
ENDBRANCH   4  22
TORSDOF 5
