REMARK  Name = DB00379
REMARK                            x       y       z     vdW  Elec       q    Type
REMARK                         _______ _______ _______ _____ _____    ______ ____
ROOT
ATOM      1  C   LIG    1       -0.589   1.279   0.017  0.00  0.00    +0.126 A 
ATOM      2  C   LIG    1       -0.901   1.902  -1.203  0.00  0.00    -0.009 A 
ATOM      3  C   LIG    1       -0.646   1.201  -2.529  0.00  0.00    +0.047 C 
ATOM      4  C   LIG    1       -1.478   3.176  -1.203  0.00  0.00    +0.007 A 
ATOM      5  C   LIG    1       -1.747   3.827  -0.001  0.00  0.00    +0.001 A 
ATOM      6  C   LIG    1       -1.449   3.206   1.210  0.00  0.00    +0.007 A 
ATOM      7  C   LIG    1       -0.873   1.932   1.228  0.00  0.00    -0.009 A 
ATOM      8  C   LIG    1       -0.584   1.261   2.562  0.00  0.00    +0.047 C 
ENDROOT
BRANCH   1   9
ATOM      9  O   LIG    1       -0.031   0.023   0.030  0.00  0.00    -0.490 OA
BRANCH   9  10
ATOM     10  C   LIG    1        1.393   0.009  -0.029  0.00  0.00    +0.247 C 
BRANCH  10  11
ATOM     11  C   LIG    1        1.897  -1.446  -0.053  0.00  0.00    +0.085 C 
ATOM     12  C   LIG    1        3.425  -1.544   0.079  0.00  0.00    +0.027 C 
BRANCH  11  13
ATOM     13  N   LIG    1        1.496  -2.086  -1.294  0.00  0.00    -0.325 NA
ATOM     14  H   LIG    1        0.489  -2.068  -1.374  0.00  0.00    +0.119 HD
ATOM     15  H   LIG    1        1.772  -3.058  -1.284  0.00  0.00    +0.119 HD
ENDBRANCH  11  13
ENDBRANCH  10  11
ENDBRANCH   9  10
ENDBRANCH   1   9
TORSDOF 4
