REMARK  Name = DB00231
REMARK                            x       y       z     vdW  Elec       q    Type
REMARK                         _______ _______ _______ _____ _____    ______ ____
ROOT
ATOM      1 CL   LIG    1       -1.981  -4.036   4.210  0.00  0.00    -0.084 Cl
ATOM      2  C   LIG    1       -0.936  -2.758   3.707  0.00  0.00    +0.042 A 
ATOM      3  C   LIG    1       -0.875  -1.580   4.435  0.00  0.00    +0.022 A 
ATOM      4  C   LIG    1       -0.033  -0.555   4.017  0.00  0.00    +0.025 A 
ATOM      5  C   LIG    1        0.748  -0.652   2.851  0.00  0.00    +0.045 A 
ATOM      6  C   LIG    1        0.734  -1.894   2.147  0.00  0.00    +0.023 A 
ATOM      7  C   LIG    1        1.591  -2.177   0.957  0.00  0.00    +0.078 C 
ATOM      8  N   LIG    1        1.854  -1.322   0.035  0.00  0.00    -0.243 NA
ATOM      9  C   LIG    1        1.295   0.025   0.070  0.00  0.00    +0.320 C 
ATOM     10  C   LIG    1        1.873   0.881   1.230  0.00  0.00    +0.271 C 
ATOM     11  O   LIG    1        2.513   1.904   0.964  0.00  0.00    -0.270 OA
ATOM     12  N   LIG    1        1.644   0.403   2.496  0.00  0.00    -0.270 N 
ATOM     13  C   LIG    1        2.235   1.223   3.570  0.00  0.00    +0.138 C 
ATOM     14  C   LIG    1       -0.139  -2.909   2.578  0.00  0.00    +0.032 A 
ENDROOT
BRANCH   7  15
ATOM     15  C   LIG    1        2.196  -3.527   0.852  0.00  0.00    +0.001 A 
ATOM     16  C   LIG    1        2.246  -4.188  -0.385  0.00  0.00    +0.010 A 
ATOM     17  C   LIG    1        2.818  -5.453  -0.483  0.00  0.00    +0.001 A 
ATOM     18  C   LIG    1        3.346  -6.063   0.651  0.00  0.00    +0.000 A 
ATOM     19  C   LIG    1        3.309  -5.418   1.885  0.00  0.00    +0.001 A 
ATOM     20  C   LIG    1        2.738  -4.153   1.986  0.00  0.00    +0.010 A 
ENDBRANCH   7  15
BRANCH   9  21
ATOM     21  O   LIG    1       -0.127   0.103   0.068  0.00  0.00    -0.364 OA
ATOM     22  H   LIG    1       -0.381   1.006  -0.137  0.00  0.00    +0.212 HD
ENDBRANCH   9  21
TORSDOF 2
