REMARK  Name = DB00770
REMARK                            x       y       z     vdW  Elec       q    Type
REMARK                         _______ _______ _______ _____ _____    ______ ____
ROOT
ATOM      1  C   LIG    1       -1.019  -0.518   0.930  0.00  0.00    +0.065 C 
ATOM      2  C   LIG    1       -2.468  -0.769   0.471  0.00  0.00    +0.140 C 
ATOM      3  O   LIG    1       -3.448  -0.923   1.198  0.00  0.00    -0.297 OA
ATOM      4  C   LIG    1       -2.498  -0.751  -1.060  0.00  0.00    +0.106 C 
ATOM      5  C   LIG    1       -1.031  -0.734  -1.488  0.00  0.00    +0.129 C 
ATOM      6  C   LIG    1       -0.304  -0.025  -0.345  0.00  0.00    +0.051 C 
ENDROOT
BRANCH   5   7
ATOM      7  O   LIG    1       -0.841  -0.122  -2.747  0.00  0.00    -0.391 OA
ATOM      8  H   LIG    1        0.043  -0.330  -3.057  0.00  0.00    +0.210 HD
ENDBRANCH   5   7
BRANCH   6   9
ATOM      9  C   LIG    1        1.189  -0.318  -0.328  0.00  0.00    -0.022 C 
ATOM     10  C   LIG    1        2.151   0.614  -0.445  0.00  0.00    -0.000 C 
BRANCH  10  11
ATOM     11  C   LIG    1        3.639   0.337  -0.370  0.00  0.00    +0.137 C 
BRANCH  11  12
ATOM     12  O   LIG    1        4.226   0.836  -1.555  0.00  0.00    -0.388 OA
ATOM     13  H   LIG    1        3.848   0.367  -2.303  0.00  0.00    +0.210 HD
ENDBRANCH  11  12
BRANCH  11  14
ATOM     14  C   LIG    1        4.293   0.993   0.865  0.00  0.00    +0.035 C 
BRANCH  14  15
ATOM     15  C   LIG    1        5.783   0.645   1.054  0.00  0.00    +0.003 C 
BRANCH  15  16
ATOM     16  C   LIG    1        6.386   1.277   2.324  0.00  0.00    -0.000 C 
BRANCH  16  17
ATOM     17  C   LIG    1        7.892   1.008   2.511  0.00  0.00    -0.003 C 
ATOM     18  C   LIG    1        8.242  -0.465   2.774  0.00  0.00    +0.004 C 
ENDBRANCH  16  17
ENDBRANCH  15  16
ENDBRANCH  14  15
ENDBRANCH  11  14
ENDBRANCH  10  11
ENDBRANCH   6   9
BRANCH   1  19
ATOM     19  C   LIG    1       -0.988   0.444   2.150  0.00  0.00    +0.012 C 
BRANCH  19  20
ATOM     20  C   LIG    1        0.424   0.697   2.712  0.00  0.00    +0.001 C 
BRANCH  20  21
ATOM     21  C   LIG    1        0.431   1.485   4.032  0.00  0.00    +0.000 C 
BRANCH  21  22
ATOM     22  C   LIG    1        1.857   1.744   4.555  0.00  0.00    +0.001 C 
BRANCH  22  23
ATOM     23  C   LIG    1        1.881   2.519   5.884  0.00  0.00    +0.011 C 
BRANCH  23  24
ATOM     24  C   LIG    1        3.316   2.761   6.402  0.00  0.00    +0.120 C 
BRANCH  24  25
ATOM     25  C   LIG    1        3.381   3.510   7.740  0.00  0.00    +0.305 C 
ATOM     26  O   LIG    1        2.396   3.906   8.361  0.00  0.00    -0.251 OA
BRANCH  25  27
ATOM     27  O   LIG    1        4.672   3.674   8.147  0.00  0.00    -0.481 OA
ATOM     28  H   LIG    1        4.733   4.138   8.985  0.00  0.00    +0.295 HD
ENDBRANCH  25  27
ENDBRANCH  24  25
ENDBRANCH  23  24
ENDBRANCH  22  23
ENDBRANCH  21  22
ENDBRANCH  20  21
ENDBRANCH  19  20
ENDBRANCH   1  19
TORSDOF 16
