REMARK  Name = DB00762
REMARK                            x       y       z     vdW  Elec       q    Type
REMARK                         _______ _______ _______ _____ _____    ______ ____
ROOT
ATOM      1  C   LIG    1       -0.310   2.326  -0.737  0.00  0.00    +0.134 A 
ATOM      2  C   LIG    1       -0.517   0.946  -0.664  0.00  0.00    +0.056 A 
ATOM      3  C   LIG    1       -1.822   0.409  -0.482  0.00  0.00    +0.007 A 
ATOM      4  C   LIG    1       -2.112  -0.996  -0.408  0.00  0.00    -0.031 A 
ATOM      5  C   LIG    1       -3.440  -1.390  -0.227  0.00  0.00    +0.003 A 
ATOM      6  C   LIG    1       -4.065  -2.755  -0.119  0.00  0.00    +0.163 C 
ATOM      7  N   LIG    1       -5.475  -2.420   0.064  0.00  0.00    -0.302 N 
ATOM      8  C   LIG    1       -6.463  -3.361   0.207  0.00  0.00    +0.259 A 
ATOM      9  O   LIG    1       -6.227  -4.571   0.182  0.00  0.00    -0.267 OA
ATOM     10  C   LIG    1       -7.819  -2.813   0.386  0.00  0.00    +0.061 A 
ATOM     11  C   LIG    1       -8.977  -3.800   0.559  0.00  0.00    +0.273 C 
ATOM     12  O   LIG    1      -10.009  -3.321   1.437  0.00  0.00    -0.457 OA
ATOM     13  C   LIG    1      -10.371  -1.999   1.481  0.00  0.00    +0.344 C 
ATOM     14  O   LIG    1      -11.290  -1.722   2.252  0.00  0.00    -0.247 OA
ATOM     15  C   LIG    1       -9.537  -1.012   0.616  0.00  0.00    +0.188 C 
ATOM     16  C   LIG    1       -8.084  -1.476   0.427  0.00  0.00    +0.008 A 
ATOM     17  C   LIG    1       -6.963  -0.554   0.248  0.00  0.00    +0.035 A 
ATOM     18  C   LIG    1       -5.729  -1.068   0.079  0.00  0.00    +0.071 A 
ATOM     19  C   LIG    1       -4.425  -0.426  -0.117  0.00  0.00    +0.093 A 
ATOM     20  N   LIG    1       -4.202   0.907  -0.178  0.00  0.00    -0.245 NA
ATOM     21  C   LIG    1       -2.918   1.325  -0.361  0.00  0.00    +0.072 A 
ATOM     22  C   LIG    1       -2.679   2.719  -0.430  0.00  0.00    +0.032 A 
ATOM     23  C   LIG    1       -1.387   3.201  -0.612  0.00  0.00    +0.048 A 
ENDROOT
BRANCH   4  24
ATOM     24  C   LIG    1       -0.991  -2.026  -0.539  0.00  0.00    +0.033 C 
ATOM     25  C   LIG    1       -0.578  -2.277  -1.997  0.00  0.00    +0.009 C 
ENDBRANCH   4  24
BRANCH  15  26
ATOM     26  O   LIG    1       -9.589   0.262   1.247  0.00  0.00    -0.373 OA
ATOM     27  H   LIG    1       -9.177   0.191   2.111  0.00  0.00    +0.211 HD
ENDBRANCH  15  26
BRANCH  15  28
ATOM     28  C   LIG    1      -10.254  -0.861  -0.763  0.00  0.00    +0.048 C 
ATOM     29  C   LIG    1       -9.623   0.141  -1.750  0.00  0.00    +0.007 C 
ENDBRANCH  15  28
BRANCH   1  30
ATOM     30  O   LIG    1        0.960   2.839  -0.882  0.00  0.00    -0.411 OA
BRANCH  30  31
ATOM     31  C   LIG    1        1.609   2.750  -2.086  0.00  0.00    +0.408 C 
ATOM     32  N   LIG    1        2.922   3.246  -2.002  0.00  0.00    -0.267 N 
ATOM     33  C   LIG    1        3.855   3.018  -3.106  0.00  0.00    +0.112 C 
ATOM     34  C   LIG    1        4.756   1.838  -2.671  0.00  0.00    +0.038 C 
ATOM     35  C   LIG    1        5.436   2.009  -1.272  0.00  0.00    +0.060 C 
ATOM     36  C   LIG    1        4.397   2.546  -0.233  0.00  0.00    +0.038 C 
ATOM     37  C   LIG    1        3.525   3.712  -0.748  0.00  0.00    +0.112 C 
ATOM     38  O   LIG    1        1.092   2.298  -3.114  0.00  0.00    -0.226 OA
BRANCH  35  39
ATOM     39  N   LIG    1        6.256   0.862  -0.818  0.00  0.00    -0.299 NA
ATOM     40  C   LIG    1        6.898   1.100   0.491  0.00  0.00    +0.084 C 
ATOM     41  C   LIG    1        7.735  -0.096   0.992  0.00  0.00    +0.015 C 
ATOM     42  C   LIG    1        8.773  -0.546  -0.040  0.00  0.00    +0.002 C 
ATOM     43  C   LIG    1        8.081  -0.789  -1.384  0.00  0.00    +0.015 C 
ATOM     44  C   LIG    1        7.237   0.423  -1.831  0.00  0.00    +0.084 C 
ENDBRANCH  35  39
ENDBRANCH  30  31
ENDBRANCH   1  30
TORSDOF 6
