REMARK  Name = DB00652
REMARK                            x       y       z     vdW  Elec       q    Type
REMARK                         _______ _______ _______ _____ _____    ______ ____
ROOT
ATOM      1  C   LIG    1       -0.944   2.160   2.536  0.00  0.00    -0.042 A 
ATOM      2  C   LIG    1       -0.164   2.502   1.263  0.00  0.00    +0.054 C 
ATOM      3  C   LIG    1       -0.538   1.608   0.057  0.00  0.00    +0.065 C 
ATOM      4  N   LIG    1        0.048   0.247   0.033  0.00  0.00    -0.295 NA
ATOM      5  C   LIG    1       -0.506  -0.710   1.004  0.00  0.00    +0.086 C 
ATOM      6  C   LIG    1       -2.050  -0.695   1.037  0.00  0.00    +0.027 C 
ATOM      7  C   LIG    1       -2.637   0.735   1.173  0.00  0.00    -0.002 C 
ATOM      8  C   LIG    1       -4.189   0.674   1.117  0.00  0.00    +0.016 C 
ATOM      9  C   LIG    1       -2.086   1.561  -0.037  0.00  0.00    +0.014 C 
ATOM     10  C   LIG    1       -2.548   1.120  -1.452  0.00  0.00    +0.010 C 
ATOM     11  C   LIG    1       -2.129   1.376   2.500  0.00  0.00    -0.034 A 
ATOM     12  C   LIG    1       -2.787   1.135   3.721  0.00  0.00    +0.049 A 
ATOM     13  C   LIG    1       -2.318   1.646   4.927  0.00  0.00    +0.117 A 
ATOM     14  C   LIG    1       -1.161   2.412   4.947  0.00  0.00    +0.045 A 
ATOM     15  C   LIG    1       -0.483   2.660   3.759  0.00  0.00    +0.007 A 
ENDROOT
BRANCH  13  16
ATOM     16  O   LIG    1       -2.989   1.389   6.093  0.00  0.00    -0.507 OA
ATOM     17  H   LIG    1       -3.774   0.852   5.963  0.00  0.00    +0.292 HD
ENDBRANCH  13  16
BRANCH   4  18
ATOM     18  C   LIG    1        1.512   0.228  -0.013  0.00  0.00    +0.112 C 
BRANCH  18  19
ATOM     19  C   LIG    1        2.123  -0.969  -0.728  0.00  0.00    -0.013 C 
ATOM     20  C   LIG    1        3.349  -1.033  -1.288  0.00  0.00    -0.078 C 
ATOM     21  C   LIG    1        4.355   0.111  -1.282  0.00  0.00    +0.038 C 
ATOM     22  C   LIG    1        3.840  -2.293  -1.980  0.00  0.00    +0.038 C 
ENDBRANCH  18  19
ENDBRANCH   4  18
TORSDOF 3
