REMARK  Name = DB00591
REMARK                            x       y       z     vdW  Elec       q    Type
REMARK                         _______ _______ _______ _____ _____    ______ ____
ROOT
ATOM      1  C   LIG    1       -3.408  -2.991   3.770  0.00  0.00    +0.047 C 
ATOM      2  C   LIG    1       -2.716  -4.356   4.051  0.00  0.00    +0.023 C 
ATOM      3  C   LIG    1       -4.755  -3.285   3.039  0.00  0.00    -0.020 C 
ATOM      4  C   LIG    1       -4.584  -3.860   1.623  0.00  0.00    +0.194 C 
ATOM      5  F   LIG    1       -5.775  -4.062   1.054  0.00  0.00    -0.241 F 
ATOM      6  C   LIG    1       -3.783  -2.863   0.771  0.00  0.00    +0.048 C 
ATOM      7  C   LIG    1       -2.407  -2.523   1.390  0.00  0.00    +0.037 C 
ATOM      8  C   LIG    1       -1.617  -1.499   0.526  0.00  0.00    +0.007 C 
ATOM      9  C   LIG    1       -0.211  -1.170   1.081  0.00  0.00    +0.012 C 
ATOM     10  C   LIG    1        0.715  -2.434   1.151  0.00  0.00    +0.015 C 
ATOM     11  C   LIG    1        0.276  -0.163  -0.028  0.00  0.00    +0.164 C 
ATOM     12  O   LIG    1       -0.366   1.105   0.046  0.00  0.00    -0.332 OA
ATOM     13  C   LIG    1       -0.789   1.531  -1.212  0.00  0.00    +0.166 C 
ATOM     14  C   LIG    1       -2.166   2.162  -1.067  0.00  0.00    +0.074 C 
ATOM     15  C   LIG    1        0.245   2.473  -1.826  0.00  0.00    +0.074 C 
ATOM     16  O   LIG    1       -0.895   0.393  -1.999  0.00  0.00    -0.343 OA
ATOM     17  C   LIG    1       -0.312  -0.725  -1.355  0.00  0.00    +0.162 C 
ATOM     18  C   LIG    1       -0.429  -0.545   2.491  0.00  0.00    +0.044 C 
ATOM     19  C   LIG    1       -1.209  -1.468   3.473  0.00  0.00    +0.154 C 
ATOM     20  C   LIG    1       -1.394  -1.758  -0.970  0.00  0.00    +0.039 C 
ATOM     21  C   LIG    1       -5.966  -3.035   3.598  0.00  0.00    +0.054 C 
ATOM     22  C   LIG    1       -6.187  -2.469   4.929  0.00  0.00    +0.179 C 
ATOM     23  O   LIG    1       -7.305  -2.272   5.401  0.00  0.00    -0.288 OA
ATOM     24  C   LIG    1       -4.953  -2.155   5.642  0.00  0.00    +0.047 C 
ATOM     25  C   LIG    1       -2.567  -1.995   2.864  0.00  0.00    +0.153 C 
ATOM     26  F   LIG    1       -3.313  -0.883   2.773  0.00  0.00    -0.238 F 
ATOM     27  C   LIG    1       -3.721  -2.378   5.145  0.00  0.00    -0.009 C 
ENDROOT
BRANCH  11  28
ATOM     28  C   LIG    1        1.819   0.050  -0.042  0.00  0.00    +0.193 C 
ATOM     29  O   LIG    1        2.551  -0.609  -0.786  0.00  0.00    -0.292 OA
BRANCH  28  30
ATOM     30  C   LIG    1        2.379   1.135   0.897  0.00  0.00    +0.233 C 
BRANCH  30  31
ATOM     31  O   LIG    1        3.788   1.228   0.776  0.00  0.00    -0.387 OA
ATOM     32  H   LIG    1        4.101   1.923   1.360  0.00  0.00    +0.210 HD
ENDBRANCH  30  31
ENDBRANCH  28  30
ENDBRANCH  11  28
BRANCH  19  33
ATOM     33  O   LIG    1       -0.361  -2.480   3.978  0.00  0.00    -0.389 OA
ATOM     34  H   LIG    1       -0.838  -2.970   4.652  0.00  0.00    +0.210 HD
ENDBRANCH  19  33
TORSDOF 4
