REMARK  Name = DB01139
REMARK                            x       y       z     vdW  Elec       q    Type
REMARK                         _______ _______ _______ _____ _____    ______ ____
ROOT
ATOM      1  CA  LIG    1        1.377  -0.309  -1.349  0.00  0.00    +0.191 C 
ATOM      2  C   LIG    1        2.225  -1.262  -0.456  0.00  0.00    +0.169 C 
ATOM      3  S   LIG    1        1.533  -2.115   1.000  0.00  0.00    -0.131 S 
ATOM      4  C   LIG    1        2.789  -3.441   1.018  0.00  0.00    +0.107 C 
ATOM      5  C   LIG    1        2.951  -4.149  -0.339  0.00  0.00    +0.006 C 
ATOM      6  CA  LIG    1        2.662  -3.521  -1.519  0.00  0.00    +0.125 C 
ATOM      7  N   LIG    1        2.250  -2.214  -1.589  0.00  0.00    -0.249 N 
ATOM      8  C   LIG    1        1.300  -1.506  -2.337  0.00  0.00    +0.244 C 
ATOM      9  O   LIG    1        0.624  -1.779  -3.327  0.00  0.00    -0.273 OA
ENDROOT
BRANCH   1  10
ATOM     10  N   LIG    1        0.062   0.107  -0.859  0.00  0.00    -0.301 N 
ATOM     11  H   LIG    1       -0.734  -0.191  -1.404  0.00  0.00    +0.150 HD
ATOM     12  C   LIG    1       -0.140   0.958   0.163  0.00  0.00    +0.224 C 
ATOM     13  O   LIG    1        0.780   1.467   0.805  0.00  0.00    -0.275 OA
BRANCH  12  14
ATOM     14  C   LIG    1       -1.607   1.278   0.485  0.00  0.00    +0.170 C 
BRANCH  14  15
ATOM     15  S   LIG    1       -1.908   1.968   2.148  0.00  0.00    -0.116 S 
BRANCH  15  16
ATOM     16  C   LIG    1       -1.500   0.765   3.387  0.00  0.00    +0.011 A 
ATOM     17  C   LIG    1       -1.184  -0.560   3.061  0.00  0.00    +0.034 A 
ATOM     18  C   LIG    1       -0.871  -1.446   4.093  0.00  0.00    +0.112 A 
ATOM     19  N   LIG    1       -0.865  -1.083   5.402  0.00  0.00    -0.263 NA
ATOM     20  C   LIG    1       -1.181   0.203   5.702  0.00  0.00    +0.112 A 
ATOM     21  C   LIG    1       -1.504   1.152   4.731  0.00  0.00    +0.034 A 
ENDBRANCH  15  16
ENDBRANCH  14  15
ENDBRANCH  12  14
ENDBRANCH   1  10
BRANCH   6  22
ATOM     22  C   LIG    1        2.797  -4.217  -2.791  0.00  0.00    +0.351 C 
ATOM     23  OXT LIG    1        2.225  -5.270  -3.068  0.00  0.00    -0.244 OA
BRANCH  22  24
ATOM     24  O   LIG    1        3.639  -3.569  -3.650  0.00  0.00    -0.476 OA
ATOM     25  H   LIG    1        3.732  -4.030  -4.487  0.00  0.00    +0.295 HD
ENDBRANCH  22  24
ENDBRANCH   6  22
BRANCH   5  26
ATOM     26  C   LIG    1        3.475  -5.589  -0.214  0.00  0.00    +0.266 C 
BRANCH  26  27
ATOM     27  O   LIG    1        4.731  -5.653   0.463  0.00  0.00    -0.460 OA
BRANCH  27  28
ATOM     28  C   LIG    1        5.880  -5.271  -0.142  0.00  0.00    +0.304 C 
ATOM     29  O   LIG    1        5.993  -4.841  -1.291  0.00  0.00    -0.251 OA
ATOM     30  C   LIG    1        7.091  -5.423   0.770  0.00  0.00    +0.136 C 
ENDBRANCH  27  28
ENDBRANCH  26  27
ENDBRANCH   5  26
TORSDOF 9
