REMARK  Name = DB01624
REMARK                            x       y       z     vdW  Elec       q    Type
REMARK                         _______ _______ _______ _____ _____    ______ ____
ROOT
ATOM      1  C   LIG    1       -4.204   2.507  -0.419  0.00  0.00    -0.004 A 
ATOM      2  C   LIG    1       -2.720   2.572  -0.595  0.00  0.00    -0.012 C 
ATOM      3  C   LIG    1       -1.916   1.626  -0.041  0.00  0.00    -0.017 C 
ATOM      4  C   LIG    1       -2.238   3.759  -1.371  0.00  0.00    -0.002 A 
ATOM      5  C   LIG    1       -1.057   4.421  -0.997  0.00  0.00    +0.029 A 
ATOM      6  C   LIG    1       -0.571   5.506  -1.726  0.00  0.00    +0.042 A 
ATOM      7 CL   LIG    1        0.892   6.285  -1.245  0.00  0.00    -0.084 Cl
ATOM      8  C   LIG    1       -1.266   5.957  -2.844  0.00  0.00    +0.021 A 
ATOM      9  C   LIG    1       -2.455   5.335  -3.215  0.00  0.00    +0.017 A 
ATOM     10  C   LIG    1       -2.957   4.264  -2.471  0.00  0.00    +0.021 A 
ATOM     11  S   LIG    1       -4.468   3.510  -2.984  0.00  0.00    -0.088 S 
ATOM     12  C   LIG    1       -5.087   2.927  -1.434  0.00  0.00    +0.020 A 
ATOM     13  C   LIG    1       -6.468   2.803  -1.267  0.00  0.00    +0.015 A 
ATOM     14  C   LIG    1       -6.993   2.295  -0.081  0.00  0.00    +0.001 A 
ATOM     15  C   LIG    1       -6.135   1.893   0.938  0.00  0.00    +0.001 A 
ATOM     16  C   LIG    1       -4.756   1.993   0.767  0.00  0.00    +0.009 A 
ENDROOT
BRANCH   3  17
ATOM     17  C   LIG    1       -0.407   1.462  -0.165  0.00  0.00    +0.043 C 
BRANCH  17  18
ATOM     18  C   LIG    1        0.023  -0.009  -0.351  0.00  0.00    +0.088 C 
BRANCH  18  19
ATOM     19  N   LIG    1        1.476  -0.195  -0.268  0.00  0.00    -0.300 NA
ATOM     20  C   LIG    1        2.188   0.418  -1.401  0.00  0.00    +0.100 C 
ATOM     21  C   LIG    1        3.715   0.190  -1.277  0.00  0.00    +0.100 C 
ATOM     22  N   LIG    1        4.026  -1.247  -1.239  0.00  0.00    -0.298 NA
ATOM     23  C   LIG    1        3.313  -1.845  -0.101  0.00  0.00    +0.100 C 
ATOM     24  C   LIG    1        1.788  -1.630  -0.246  0.00  0.00    +0.100 C 
BRANCH  22  25
ATOM     25  C   LIG    1        5.466  -1.510  -1.105  0.00  0.00    +0.112 C 
BRANCH  25  26
ATOM     26  C   LIG    1        6.322  -1.206  -2.354  0.00  0.00    +0.171 C 
BRANCH  26  27
ATOM     27  O   LIG    1        6.573   0.173  -2.530  0.00  0.00    -0.394 OA
ATOM     28  H   LIG    1        7.106   0.288  -3.321  0.00  0.00    +0.209 HD
ENDBRANCH  26  27
ENDBRANCH  25  26
ENDBRANCH  22  25
ENDBRANCH  18  19
ENDBRANCH  17  18
ENDBRANCH   3  17
TORSDOF 6
