REMARK  Name = DB01409
REMARK                            x       y       z     vdW  Elec       q    Type
REMARK                         _______ _______ _______ _____ _____    ______ ____
ROOT
ATOM      1  C   LIG    1       -0.037   0.238   0.294  0.00  0.00    +0.350 C 
ATOM      2  O   LIG    1       -0.732   1.226   0.040  0.00  0.00    -0.247 OA
ENDROOT
BRANCH   1   3
ATOM      3  O   LIG    1       -0.522  -0.997   0.591  0.00  0.00    -0.459 OA
BRANCH   3  11
ATOM      4  C   LIG    1       -3.657  -5.280  -0.815  0.00  0.00    -0.091 C 
ATOM      5  N   LIG    1       -3.236  -3.866  -0.307  0.00  0.00    +0.384 N 
ATOM      6  C   LIG    1       -2.174  -3.901   0.831  0.00  0.00    -0.030 C 
ATOM      7  C   LIG    1       -0.807  -4.144   0.137  0.00  0.00    +0.133 C 
ATOM      8  O   LIG    1       -0.777  -4.982  -0.990  0.00  0.00    -0.372 OA
ATOM      9  C   LIG    1       -0.949  -3.611  -1.244  0.00  0.00    +0.133 C 
ATOM     10  C   LIG    1       -2.135  -2.511   1.532  0.00  0.00    +0.032 C 
ATOM     11  C   LIG    1       -1.917  -1.297   0.565  0.00  0.00    +0.174 C 
ATOM     12  C   LIG    1       -2.379  -1.558  -0.916  0.00  0.00    +0.032 C 
ATOM     13  C   LIG    1       -2.394  -3.057  -1.338  0.00  0.00    -0.030 C 
ATOM     14  C   LIG    1       -4.604  -3.221   0.080  0.00  0.00    -0.091 C 
ENDBRANCH   3  11
ENDBRANCH   1   3
BRANCH   1  15
ATOM     15  C   LIG    1        1.514   0.289   0.310  0.00  0.00    +0.226 C 
BRANCH  15  16
ATOM     16  C   LIG    1        2.089   1.656  -0.119  0.00  0.00    +0.037 A 
ATOM     17  S   LIG    1        3.261   2.557   0.833  0.00  0.00    -0.098 S 
ATOM     18  C   LIG    1        3.352   3.833  -0.328  0.00  0.00    +0.045 A 
ATOM     19  C   LIG    1        2.535   3.587  -1.412  0.00  0.00    +0.008 A 
ATOM     20  C   LIG    1        1.845   2.379  -1.296  0.00  0.00    +0.015 A 
ENDBRANCH  15  16
BRANCH  15  21
ATOM     21  C   LIG    1        2.083  -0.814  -0.608  0.00  0.00    +0.037 A 
ATOM     22  S   LIG    1        2.987  -2.204  -0.021  0.00  0.00    -0.098 S 
ATOM     23  C   LIG    1        3.176  -2.858  -1.609  0.00  0.00    +0.045 A 
ATOM     24  C   LIG    1        2.574  -2.059  -2.558  0.00  0.00    +0.008 A 
ATOM     25  C   LIG    1        1.966  -0.932  -2.000  0.00  0.00    +0.015 A 
ENDBRANCH  15  21
BRANCH  15  26
ATOM     26  O   LIG    1        1.877   0.021   1.661  0.00  0.00    -0.369 OA
ATOM     27  H   LIG    1        1.559   0.742   2.209  0.00  0.00    +0.212 HD
ENDBRANCH  15  26
ENDBRANCH   1  15
TORSDOF 6
