REMARK  Name = DB01010
REMARK                            x       y       z     vdW  Elec       q    Type
REMARK                         _______ _______ _______ _____ _____    ______ ____
ROOT
ATOM      1  C   LIG    1       -0.088   3.856   0.000  0.00  0.00    +0.119 A 
ATOM      2  C   LIG    1       -1.462   4.093   0.000  0.00  0.00    +0.045 A 
ATOM      3  C   LIG    1       -2.356   3.024   0.000  0.00  0.00    +0.005 A 
ATOM      4  C   LIG    1       -1.880   1.713   0.000  0.00  0.00    +0.022 A 
ATOM      5  C   LIG    1       -0.497   1.462   0.000  0.00  0.00    +0.019 A 
ATOM      6  C   LIG    1        0.400   2.547   0.000  0.00  0.00    +0.067 A 
ENDROOT
BRANCH   5   7
ATOM      7  N   LIG    1       -0.010   0.013   0.000  0.00  0.00    -0.387 NA
ATOM      8  C   LIG    1       -0.549  -0.730   1.254  0.00  0.00    +0.109 C 
ATOM      9  C   LIG    1       -0.549  -0.730  -1.254  0.00  0.00    +0.109 C 
BRANCH   7  10
ATOM     10  C   LIG    1        1.555  -0.121   0.000  0.00  0.00    +0.084 C 
ATOM     11  C   LIG    1        2.124  -1.561   0.000  0.00  0.00    +0.023 C 
ENDBRANCH   7  10
ENDBRANCH   5   7
BRANCH   1  12
ATOM     12  O   LIG    1        0.784   4.913   0.000  0.00  0.00    -0.507 OA
ATOM     13  H   LIG    1        1.706   4.646   0.000  0.00  0.00    +0.292 HD
ENDBRANCH   1  12
TORSDOF 3
