REMARK  Name = DB01435
REMARK                            x       y       z     vdW  Elec       q    Type
REMARK                         _______ _______ _______ _____ _____    ______ ____
ROOT
ATOM      1  C   LIG    1       -1.561   0.330  -1.588  0.00  0.00    +0.114 C 
ATOM      2  C   LIG    1       -0.692  -0.585  -1.128  0.00  0.00    +0.069 C 
ATOM      3  C   LIG    1       -0.337  -1.972  -1.629  0.00  0.00    +0.032 C 
ATOM      4  N   LIG    1       -0.099  -0.062   0.008  0.00  0.00    -0.214 NA
ATOM      5  C   LIG    1        1.365  -0.060   0.084  0.00  0.00    +0.129 C 
ATOM      6  N   LIG    1       -0.635   1.211   0.215  0.00  0.00    -0.202 N 
ATOM      7  C   LIG    1       -1.545   1.496  -0.741  0.00  0.00    +0.240 C 
ATOM      8  O   LIG    1       -2.229   2.513  -0.858  0.00  0.00    -0.274 OA
ENDROOT
BRANCH   6   9
ATOM      9  C   LIG    1       -0.354   1.988   1.365  0.00  0.00    +0.053 A 
ATOM     10  C   LIG    1       -0.142   3.371   1.259  0.00  0.00    +0.025 A 
ATOM     11  C   LIG    1        0.139   4.123   2.396  0.00  0.00    +0.002 A 
ATOM     12  C   LIG    1        0.210   3.498   3.639  0.00  0.00    +0.000 A 
ATOM     13  C   LIG    1        0.003   2.125   3.756  0.00  0.00    +0.002 A 
ATOM     14  C   LIG    1       -0.279   1.370   2.621  0.00  0.00    +0.025 A 
ENDBRANCH   6   9
TORSDOF 1
