REMARK  Name = DB01161
REMARK                            x       y       z     vdW  Elec       q    Type
REMARK                         _______ _______ _______ _____ _____    ______ ____
ROOT
ATOM      1 CL   LIG    1        5.616  -4.341   1.626  0.00  0.00    -0.083 Cl
ATOM      2  C   LIG    1        6.133  -2.739   2.045  0.00  0.00    +0.057 A 
ATOM      3  C   LIG    1        7.507  -2.492   2.088  0.00  0.00    +0.043 A 
ATOM      4  C   LIG    1        7.989  -1.220   2.399  0.00  0.00    +0.026 A 
ATOM      5  C   LIG    1        7.094  -0.186   2.666  0.00  0.00    +0.023 A 
ATOM      6  C   LIG    1        5.721  -0.423   2.625  0.00  0.00    +0.018 A 
ATOM      7  C   LIG    1        5.224  -1.699   2.325  0.00  0.00    +0.077 A 
ENDROOT
BRANCH   4   8
ATOM      8  N   LIG    1        9.362  -0.984   2.438  0.00  0.00    -0.358 N 
ATOM      9  H   LIG    1       10.003  -1.738   2.240  0.00  0.00    +0.142 HD
ATOM     10  H   LIG    1        9.701  -0.061   2.671  0.00  0.00    +0.142 HD
ENDBRANCH   4   8
BRANCH   7  11
ATOM     11  C   LIG    1        3.748  -1.898   2.272  0.00  0.00    +0.341 C 
ATOM     12  O   LIG    1        3.158  -2.782   2.897  0.00  0.00    -0.245 OA
BRANCH  11  13
ATOM     13  O   LIG    1        3.154  -1.016   1.434  0.00  0.00    -0.460 OA
BRANCH  13  14
ATOM     14  C   LIG    1        1.748  -1.042   1.225  0.00  0.00    +0.248 C 
BRANCH  14  15
ATOM     15  C   LIG    1        1.371   0.064   0.226  0.00  0.00    +0.125 C 
BRANCH  15  16
ATOM     16  N   LIG    1       -0.080   0.056  -0.030  0.00  0.00    -0.300 NA
BRANCH  16  17
ATOM     17  C   LIG    1       -0.421  -0.609  -1.298  0.00  0.00    +0.081 C 
ATOM     18  C   LIG    1       -0.046  -2.100  -1.349  0.00  0.00    +0.020 C 
ENDBRANCH  16  17
BRANCH  16  19
ATOM     19  C   LIG    1       -0.643   1.412  -0.035  0.00  0.00    +0.081 C 
ATOM     20  C   LIG    1       -0.685   2.036   1.373  0.00  0.00    +0.020 C 
ENDBRANCH  16  19
ENDBRANCH  15  16
ENDBRANCH  14  15
ENDBRANCH  13  14
ENDBRANCH  11  13
ENDBRANCH   7  11
TORSDOF 8
