REMARK  Name = DB01254
REMARK                            x       y       z     vdW  Elec       q    Type
REMARK                         _______ _______ _______ _____ _____    ______ ____
ROOT
ATOM      1  N   LIG    1        0.911   1.465   0.826  0.00  0.00    -0.279 N 
ATOM      2  H   LIG    1        0.621   0.916   1.622  0.00  0.00    +0.155 HD
ENDROOT
BRANCH   1   3
ATOM      3  C   LIG    1        2.238   1.182   0.451  0.00  0.00    +0.130 A 
ATOM      4  C   LIG    1        2.927   0.194   1.167  0.00  0.00    +0.087 A 
ATOM      5  C   LIG    1        4.262  -0.086   0.814  0.00  0.00    +0.127 A 
ATOM      6  N   LIG    1        4.834   0.552  -0.250  0.00  0.00    -0.218 NA
ATOM      7  C   LIG    1        4.094   1.491  -0.889  0.00  0.00    +0.130 A 
ATOM      8  C   LIG    1        4.754   2.204  -2.053  0.00  0.00    +0.088 C 
ATOM      9  N   LIG    1        2.822   1.842  -0.586  0.00  0.00    -0.217 NA
BRANCH   5  10
ATOM     10  N   LIG    1        5.000  -1.113   1.415  0.00  0.00    -0.313 N 
ATOM     11  C   LIG    1        6.403  -1.405   1.049  0.00  0.00    +0.122 C 
ATOM     12  C   LIG    1        6.875  -2.840   1.375  0.00  0.00    +0.103 C 
ATOM     13  N   LIG    1        6.654  -3.159   2.786  0.00  0.00    -0.297 NA
ATOM     14  C   LIG    1        5.211  -3.073   3.018  0.00  0.00    +0.103 C 
ATOM     15  C   LIG    1        4.687  -1.643   2.758  0.00  0.00    +0.122 C 
BRANCH  13  16
ATOM     16  C   LIG    1        7.128  -4.507   3.130  0.00  0.00    +0.112 C 
BRANCH  16  17
ATOM     17  C   LIG    1        8.657  -4.648   3.304  0.00  0.00    +0.171 C 
BRANCH  17  18
ATOM     18  O   LIG    1        9.357  -4.661   2.078  0.00  0.00    -0.394 OA
ATOM     19  H   LIG    1        9.318  -3.780   1.698  0.00  0.00    +0.209 HD
ENDBRANCH  17  18
ENDBRANCH  16  17
ENDBRANCH  13  16
ENDBRANCH   5  10
ENDBRANCH   1   3
BRANCH   1  23
ATOM     20  C   LIG    1       -1.893   3.852  -0.043  0.00  0.00    +0.095 A 
ATOM     21  C   LIG    1       -0.722   4.160  -0.743  0.00  0.00    +0.133 A 
ATOM     22  N   LIG    1        0.322   3.388  -0.513  0.00  0.00    -0.232 NA
ATOM     23  C   LIG    1        0.057   2.440   0.356  0.00  0.00    +0.164 A 
ATOM     24  S   LIG    1       -1.569   2.465   0.963  0.00  0.00    -0.047 S 
BRANCH  20  27
ATOM     25  N   LIG    1       -3.276   5.545  -0.880  0.00  0.00    -0.280 N 
ATOM     26  H   LIG    1       -2.430   5.860  -1.333  0.00  0.00    +0.155 HD
ATOM     27  C   LIG    1       -3.192   4.478  -0.059  0.00  0.00    +0.256 C 
ATOM     28  O   LIG    1       -4.120   4.051   0.633  0.00  0.00    -0.269 OA
BRANCH  25  36
ATOM     29 CL   LIG    1       -2.850   8.417  -0.184  0.00  0.00    -0.082 Cl
ATOM     30  C   LIG    1       -4.320   7.714  -0.777  0.00  0.00    +0.062 A 
ATOM     31  C   LIG    1       -5.427   8.547  -0.944  0.00  0.00    +0.022 A 
ATOM     32  C   LIG    1       -6.630   8.031  -1.415  0.00  0.00    +0.002 A 
ATOM     33  C   LIG    1       -6.730   6.679  -1.733  0.00  0.00    +0.005 A 
ATOM     34  C   LIG    1       -5.635   5.824  -1.575  0.00  0.00    -0.028 A 
ATOM     35  C   LIG    1       -5.795   4.372  -2.016  0.00  0.00    +0.046 C 
ATOM     36  C   LIG    1       -4.417   6.343  -1.078  0.00  0.00    +0.055 A 
ENDBRANCH  25  36
ENDBRANCH  20  27
ENDBRANCH   1  23
TORSDOF 8
