REMARK  Name = DB01211
REMARK                            x       y       z     vdW  Elec       q    Type
REMARK                         _______ _______ _______ _____ _____    ______ ____
ROOT
ATOM      1  C   LIG    1       -0.147  -2.200  -1.611  0.00  0.00    +0.158 C 
ATOM      2  C   LIG    1       -0.572  -2.886  -2.989  0.00  0.00    +0.093 C 
ATOM      3  C   LIG    1        0.302  -2.209  -4.096  0.00  0.00    +0.044 C 
ATOM      4  C   LIG    1       -0.360  -4.445  -3.115  0.00  0.00    +0.048 C 
ATOM      5  C   LIG    1       -1.319  -5.552  -2.521  0.00  0.00    +0.055 C 
ATOM      6  C   LIG    1       -0.684  -6.463  -1.453  0.00  0.00    +0.015 C 
ATOM      7  C   LIG    1       -2.829  -5.250  -2.319  0.00  0.00    +0.142 C 
ATOM      8  O   LIG    1       -3.545  -5.123  -3.313  0.00  0.00    -0.297 OA
ATOM      9  C   LIG    1       -3.477  -5.208  -0.905  0.00  0.00    +0.084 C 
ATOM     10  C   LIG    1       -4.741  -6.106  -0.884  0.00  0.00    +0.018 C 
ATOM     11  C   LIG    1       -3.724  -3.749  -0.380  0.00  0.00    +0.159 C 
ATOM     12  C   LIG    1       -4.262  -3.564   1.096  0.00  0.00    +0.126 C 
ATOM     13  C   LIG    1       -4.100  -2.075   1.591  0.00  0.00    +0.210 C 
ATOM     14  O   LIG    1       -2.702  -1.737   1.558  0.00  0.00    -0.458 OA
ATOM     15  C   LIG    1       -2.246  -0.485   1.283  0.00  0.00    +0.313 C 
ATOM     16  O   LIG    1       -2.944   0.510   1.080  0.00  0.00    -0.250 OA
ATOM     17  C   LIG    1       -0.707  -0.412   1.215  0.00  0.00    +0.124 C 
ATOM     18  C   LIG    1       -0.172   0.372   2.432  0.00  0.00    +0.022 C 
ATOM     19  C   LIG    1       -0.138   0.078  -0.156  0.00  0.00    +0.140 C 
ATOM     20  C   LIG    1       -3.632  -4.559   2.106  0.00  0.00    +0.048 C 
ATOM     21  C   LIG    1       -0.595  -0.680  -1.448  0.00  0.00    +0.047 C 
ATOM     22  C   LIG    1       -2.051  -0.310  -1.833  0.00  0.00    +0.013 C 
ENDROOT
BRANCH   2  23
ATOM     23  O   LIG    1       -1.963  -2.636  -3.234  0.00  0.00    -0.374 OA
ATOM     24  C   LIG    1       -2.471  -2.644  -4.571  0.00  0.00    +0.194 C 
ENDBRANCH   2  23
BRANCH  11  25
ATOM     25  O   LIG    1       -4.535  -3.008  -1.285  0.00  0.00    -0.388 OA
ATOM     26  H   LIG    1       -5.417  -3.388  -1.277  0.00  0.00    +0.210 HD
ENDBRANCH  11  25
BRANCH  13  27
ATOM     27  C   LIG    1       -4.692  -1.806   3.010  0.00  0.00    +0.044 C 
ATOM     28  C   LIG    1       -4.852  -0.328   3.397  0.00  0.00    +0.007 C 
ENDBRANCH  13  27
BRANCH  12  29
ATOM     29  O   LIG    1       -5.650  -3.873   1.103  0.00  0.00    -0.383 OA
ATOM     30  H   LIG    1       -5.983  -3.749   1.994  0.00  0.00    +0.210 HD
ENDBRANCH  12  29
BRANCH   1  31
ATOM     31  O   LIG    1       -0.422  -3.009  -0.445  0.00  0.00    -0.342 OA
BRANCH  31  32
ATOM     32  C   LIG    1        0.695  -3.518   0.268  0.00  0.00    +0.281 C 
ATOM     33  O   LIG    1        1.410  -4.389  -0.565  0.00  0.00    -0.346 OA
ATOM     34  C   LIG    1        2.570  -4.971   0.014  0.00  0.00    +0.120 C 
ATOM     35  C   LIG    1        3.373  -5.685  -1.084  0.00  0.00    +0.038 C 
ATOM     36  C   LIG    1        2.142  -5.930   1.129  0.00  0.00    +0.053 C 
ATOM     37  C   LIG    1        1.246  -5.224   2.171  0.00  0.00    +0.092 C 
ATOM     38  C   LIG    1        0.188  -4.267   1.533  0.00  0.00    +0.187 C 
BRANCH  37  39
ATOM     39  N   LIG    1        0.717  -6.089   3.242  0.00  0.00    -0.303 NA
ATOM     40  C   LIG    1       -0.188  -7.141   2.777  0.00  0.00    +0.105 C 
ATOM     41  C   LIG    1        1.765  -6.664   4.083  0.00  0.00    +0.105 C 
ENDBRANCH  37  39
BRANCH  38  42
ATOM     42  O   LIG    1       -0.237  -3.364   2.535  0.00  0.00    -0.385 OA
ATOM     43  H   LIG    1        0.521  -3.127   3.074  0.00  0.00    +0.210 HD
ENDBRANCH  38  42
ENDBRANCH  31  32
ENDBRANCH   1  31
BRANCH  19  44
ATOM     44  O   LIG    1        1.296   0.037  -0.152  0.00  0.00    -0.347 OA
BRANCH  44  45
ATOM     45  C   LIG    1        1.960   1.265  -0.003  0.00  0.00    +0.254 C 
ATOM     46  O   LIG    1        1.686   2.167  -1.051  0.00  0.00    -0.346 OA
ATOM     47  C   LIG    1        2.252   1.852  -2.328  0.00  0.00    +0.149 C 
ATOM     48  C   LIG    1        1.789   2.943  -3.308  0.00  0.00    +0.041 C 
ATOM     49  C   LIG    1        3.789   1.721  -2.231  0.00  0.00    +0.175 C 
ATOM     50  C   LIG    1        4.163   0.637  -1.191  0.00  0.00    +0.099 C 
ATOM     51  C   LIG    1        5.699   0.550  -0.998  0.00  0.00    +0.044 C 
ATOM     52  C   LIG    1        3.468   1.007   0.147  0.00  0.00    +0.098 C 
BRANCH  49  53
ATOM     53  O   LIG    1        4.390   1.486  -3.495  0.00  0.00    -0.386 OA
ATOM     54  H   LIG    1        4.109   0.622  -3.806  0.00  0.00    +0.210 HD
ENDBRANCH  49  53
BRANCH  50  55
ATOM     55  O   LIG    1        3.690  -0.613  -1.723  0.00  0.00    -0.374 OA
ATOM     56  C   LIG    1        3.929  -1.815  -1.001  0.00  0.00    +0.194 C 
ENDBRANCH  50  55
ENDBRANCH  44  45
ENDBRANCH  19  44
TORSDOF 12
