REMARK  Name = DB01082
REMARK                            x       y       z     vdW  Elec       q    Type
REMARK                         _______ _______ _______ _____ _____    ______ ____
ROOT
ATOM      1  O   LIG    1        0.615   0.822   1.469  0.00  0.00    -0.339 OA
ENDROOT
BRANCH   1   7
ATOM      2  C   LIG    1       -1.409  -0.368   1.649  0.00  0.00    +0.218 C 
ATOM      3  C   LIG    1       -2.849   0.032   1.298  0.00  0.00    +0.177 C 
ATOM      4  C   LIG    1       -2.775   1.569   1.476  0.00  0.00    +0.160 C 
ATOM      5  C   LIG    1       -3.698   2.424   0.587  0.00  0.00    +0.041 C 
ATOM      6  O   LIG    1       -1.417   1.891   1.174  0.00  0.00    -0.342 OA
ATOM      7  C   LIG    1       -0.666   0.739   0.924  0.00  0.00    +0.283 C 
BRANCH   3   8
ATOM      8  O   LIG    1       -3.250  -0.390  -0.001  0.00  0.00    -0.376 OA
ATOM      9  H   LIG    1       -3.067  -1.328  -0.084  0.00  0.00    +0.211 HD
ENDBRANCH   3   8
BRANCH   3  10
ATOM     10  C   LIG    1       -3.893  -0.561   2.266  0.00  0.00    +0.263 C 
ATOM     11  O   LIG    1       -3.646  -0.765   3.455  0.00  0.00    -0.298 OA
ENDBRANCH   3  10
BRANCH   2  12
ATOM     12  O   LIG    1       -1.013  -1.653   1.164  0.00  0.00    -0.338 OA
BRANCH  12  14
ATOM     13  C   LIG    1       -0.774  -4.034   1.379  0.00  0.00    +0.141 C 
ATOM     14  C   LIG    1       -0.977  -2.684   2.110  0.00  0.00    +0.271 C 
ATOM     15  O   LIG    1        0.011  -2.474   3.090  0.00  0.00    -0.341 OA
ATOM     16  C   LIG    1        1.347  -2.413   2.579  0.00  0.00    +0.178 C 
ATOM     17  C   LIG    1        1.709  -3.796   2.000  0.00  0.00    +0.176 C 
ATOM     18  C   LIG    1        0.696  -4.183   0.900  0.00  0.00    +0.167 C 
BRANCH  13  19
ATOM     19  N   LIG    1       -1.740  -4.284   0.305  0.00  0.00    -0.310 NA
ATOM     20  H   LIG    1       -1.658  -3.570  -0.405  0.00  0.00    +0.122 HD
ATOM     21  C   LIG    1       -3.115  -4.394   0.768  0.00  0.00    +0.101 C 
ENDBRANCH  13  19
BRANCH  17  22
ATOM     22  O   LIG    1        3.042  -3.834   1.518  0.00  0.00    -0.387 OA
ATOM     23  H   LIG    1        3.236  -4.729   1.231  0.00  0.00    +0.210 HD
ENDBRANCH  17  22
BRANCH  18  24
ATOM     24  O   LIG    1        0.951  -5.504   0.447  0.00  0.00    -0.387 OA
ATOM     25  H   LIG    1        0.785  -6.112   1.171  0.00  0.00    +0.210 HD
ENDBRANCH  18  24
BRANCH  16  26
ATOM     26  C   LIG    1        2.280  -1.958   3.721  0.00  0.00    +0.190 C 
BRANCH  26  27
ATOM     27  O   LIG    1        1.978  -0.634   4.115  0.00  0.00    -0.392 OA
ATOM     28  H   LIG    1        2.577  -0.381   4.822  0.00  0.00    +0.210 HD
ENDBRANCH  26  27
ENDBRANCH  16  26
ENDBRANCH  12  14
ENDBRANCH   2  12
ENDBRANCH   1   7
BRANCH   1  29
ATOM     29  C   LIG    1        1.549   1.676   0.805  0.00  0.00    +0.192 C 
ATOM     30  C   LIG    1        2.262   2.509   1.892  0.00  0.00    +0.179 C 
ATOM     31  C   LIG    1        3.404   3.378   1.312  0.00  0.00    +0.185 C 
ATOM     32  C   LIG    1        4.424   2.559   0.472  0.00  0.00    +0.208 C 
ATOM     33  C   LIG    1        3.711   1.668  -0.585  0.00  0.00    +0.193 C 
ATOM     34  C   LIG    1        2.533   0.814  -0.030  0.00  0.00    +0.208 C 
BRANCH  30  35
ATOM     35  O   LIG    1        1.317   3.307   2.587  0.00  0.00    -0.386 OA
ATOM     36  H   LIG    1        0.510   2.797   2.689  0.00  0.00    +0.210 HD
ENDBRANCH  30  35
BRANCH  31  37
ATOM     37  O   LIG    1        4.040   4.144   2.323  0.00  0.00    -0.386 OA
ATOM     38  H   LIG    1        4.478   3.545   2.933  0.00  0.00    +0.210 HD
ENDBRANCH  31  37
BRANCH  32  39
ATOM     39  N   LIG    1        5.446   3.405  -0.162  0.00  0.00    -0.268 N 
ATOM     40  H   LIG    1        5.169   3.894  -0.999  0.00  0.00    +0.258 HD
BRANCH  39  41
ATOM     41  C   LIG    1        6.700   3.708   0.441  0.00  0.00    +0.377 C 
ATOM     42  N   LIG    1        7.115   3.259   1.545  0.00  0.00    -0.130 NA
ATOM     43  H   LIG    1        8.034   3.601   1.787  0.00  0.00    +0.306 HD
BRANCH  41  44
ATOM     44  N   LIG    1        7.464   4.592  -0.348  0.00  0.00    -0.289 N 
ATOM     45  H   LIG    1        7.156   4.909  -1.256  0.00  0.00    +0.255 HD
ATOM     46  H   LIG    1        8.392   4.886  -0.081  0.00  0.00    +0.255 HD
ENDBRANCH  41  44
ENDBRANCH  39  41
ENDBRANCH  32  39
BRANCH  33  47
ATOM     47  O   LIG    1        4.645   0.879  -1.303  0.00  0.00    -0.385 OA
ATOM     48  H   LIG    1        4.599   1.120  -2.232  0.00  0.00    +0.210 HD
ENDBRANCH  33  47
BRANCH  34  49
ATOM     49  N   LIG    1        1.795   0.093  -1.077  0.00  0.00    -0.268 N 
ATOM     50  H   LIG    1        1.066   0.618  -1.539  0.00  0.00    +0.258 HD
BRANCH  49  51
ATOM     51  C   LIG    1        2.083  -1.223  -1.540  0.00  0.00    +0.377 C 
ATOM     52  N   LIG    1        1.374  -1.783  -2.415  0.00  0.00    -0.130 NA
ATOM     53  H   LIG    1        1.696  -2.712  -2.645  0.00  0.00    +0.306 HD
BRANCH  51  54
ATOM     54  N   LIG    1        3.206  -1.866  -0.970  0.00  0.00    -0.289 N 
ATOM     55  H   LIG    1        3.870  -1.363  -0.400  0.00  0.00    +0.255 HD
ATOM     56  H   LIG    1        3.530  -2.761  -1.305  0.00  0.00    +0.255 HD
ENDBRANCH  51  54
ENDBRANCH  49  51
ENDBRANCH  34  49
ENDBRANCH   1  29
TORSDOF 20
