REMARK  Name = DB01113
REMARK                            x       y       z     vdW  Elec       q    Type
REMARK                         _______ _______ _______ _____ _____    ______ ____
ROOT
ATOM      1  C   LIG    1        2.345  -3.693   0.015  0.00  0.00    +0.162 A 
ATOM      2  C   LIG    1        3.745  -3.705   0.003  0.00  0.00    +0.162 A 
ATOM      3  C   LIG    1        4.454  -2.495   0.007  0.00  0.00    +0.058 A 
ATOM      4  C   LIG    1        3.779  -1.254   0.019  0.00  0.00    -0.011 A 
ATOM      5  C   LIG    1        4.485  -0.023   0.022  0.00  0.00    +0.028 A 
ATOM      6  C   LIG    1        3.764   1.168   0.032  0.00  0.00    +0.111 A 
ATOM      7  N   LIG    1        2.413   1.222   0.039  0.00  0.00    -0.259 NA
ATOM      8  C   LIG    1        1.725   0.051   0.036  0.00  0.00    +0.053 A 
ATOM      9  C   LIG    1        2.353  -1.233   0.027  0.00  0.00    +0.007 A 
ATOM     10  C   LIG    1        1.656  -2.470   0.025  0.00  0.00    +0.059 A 
ENDROOT
BRANCH   1  11
ATOM     11  O   LIG    1        1.711  -4.924   0.015  0.00  0.00    -0.491 OA
ATOM     12  C   LIG    1        0.288  -4.985   0.033  0.00  0.00    +0.277 C 
ENDBRANCH   1  11
BRANCH   2  13
ATOM     13  O   LIG    1        4.358  -4.947  -0.010  0.00  0.00    -0.491 OA
ATOM     14  C   LIG    1        5.779  -5.031  -0.031  0.00  0.00    +0.277 C 
ENDBRANCH   2  13
BRANCH   8  15
ATOM     15  C   LIG    1        0.192   0.147   0.044  0.00  0.00    +0.091 C 
BRANCH  15  16
ATOM     16  C   LIG    1       -0.424   1.546   0.042  0.00  0.00    -0.038 A 
ATOM     17  C   LIG    1       -0.725   2.182   1.245  0.00  0.00    +0.008 A 
ATOM     18  C   LIG    1       -1.305   3.448   1.243  0.00  0.00    +0.049 A 
ATOM     19  C   LIG    1       -1.603   4.099   0.033  0.00  0.00    +0.161 A 
ATOM     20  C   LIG    1       -1.314   3.458  -1.182  0.00  0.00    +0.162 A 
ATOM     21  C   LIG    1       -0.728   2.180  -1.165  0.00  0.00    +0.053 A 
BRANCH  20  22
ATOM     22  O   LIG    1       -1.633   4.138  -2.344  0.00  0.00    -0.491 OA
ATOM     23  C   LIG    1       -1.355   3.540  -3.606  0.00  0.00    +0.277 C 
ENDBRANCH  20  22
BRANCH  19  24
ATOM     24  O   LIG    1       -2.176   5.357  -0.038  0.00  0.00    -0.491 OA
ATOM     25  C   LIG    1       -2.478   6.058   1.163  0.00  0.00    +0.277 C 
ENDBRANCH  19  24
ENDBRANCH  15  16
ENDBRANCH   8  15
TORSDOF 6
