REMARK  Name = DB01744
REMARK                            x       y       z     vdW  Elec       q    Type
REMARK                         _______ _______ _______ _____ _____    ______ ____
ROOT
ATOM      1  C   LIG    1       -0.081  -0.045  -0.036  0.00  0.00    +0.012 C 
ATOM      2  C   LIG    1        1.484  -0.030  -0.003  0.00  0.00    -0.020 C 
ATOM      3  C   LIG    1        2.154   0.833   1.110  0.00  0.00    +0.032 C 
ATOM      4  C   LIG    1        1.658   2.260   0.748  0.00  0.00    +0.140 C 
ATOM      5  O   LIG    1        1.308   3.167   1.503  0.00  0.00    -0.297 OA
ATOM      6  C   LIG    1        1.647   2.271  -0.790  0.00  0.00    +0.079 C 
ATOM      7  C   LIG    1        3.669   0.791   0.752  0.00  0.00    +0.015 C 
ATOM      8  C   LIG    1        3.659   0.764  -0.795  0.00  0.00    +0.005 C 
ATOM      9  C   LIG    1        1.817   0.462   2.570  0.00  0.00    +0.019 C 
ATOM     10  C   LIG    1        2.139   0.834  -1.106  0.00  0.00    +0.003 C 
ATOM     11  C   LIG    1        1.917  -1.529  -0.019  0.00  0.00    +0.012 C 
ENDROOT
TORSDOF 0
