REMARK  Name = DB01039
REMARK                            x       y       z     vdW  Elec       q    Type
REMARK                         _______ _______ _______ _____ _____    ______ ____
ROOT
ATOM      1  C   LIG    1       -1.688   3.654  -0.656  0.00  0.00    +0.022 A 
ATOM      2  C   LIG    1       -0.309   3.767  -0.438  0.00  0.00    +0.015 A 
ATOM      3  C   LIG    1        0.486   2.632  -0.308  0.00  0.00    +0.046 A 
ATOM      4  C   LIG    1       -0.083   1.352  -0.373  0.00  0.00    +0.122 A 
ATOM      5  C   LIG    1       -1.461   1.242  -0.560  0.00  0.00    +0.046 A 
ATOM      6  C   LIG    1       -2.259   2.375  -0.691  0.00  0.00    +0.015 A 
ENDROOT
BRANCH   1   7
ATOM      7  C   LIG    1       -2.575   4.865  -0.757  0.00  0.00    +0.193 C 
ATOM      8  O   LIG    1       -3.767   4.773  -0.451  0.00  0.00    -0.287 OA
BRANCH   7  13
ATOM      9 CL   LIG    1       -0.570  10.220  -2.648  0.00  0.00    -0.084 Cl
ATOM     10  C   LIG    1       -1.134   8.683  -2.103  0.00  0.00    +0.041 A 
ATOM     11  C   LIG    1       -0.565   7.518  -2.611  0.00  0.00    +0.021 A 
ATOM     12  C   LIG    1       -1.020   6.277  -2.173  0.00  0.00    +0.013 A 
ATOM     13  C   LIG    1       -2.034   6.192  -1.207  0.00  0.00    +0.022 A 
ATOM     14  C   LIG    1       -2.616   7.374  -0.727  0.00  0.00    +0.013 A 
ATOM     15  C   LIG    1       -2.161   8.615  -1.165  0.00  0.00    +0.021 A 
ENDBRANCH   7  13
ENDBRANCH   1   7
BRANCH   4  16
ATOM     16  O   LIG    1        0.588   0.145  -0.262  0.00  0.00    -0.475 OA
BRANCH  16  17
ATOM     17  C   LIG    1        2.012  -0.023  -0.094  0.00  0.00    +0.200 C 
ATOM     18  C   LIG    1        2.486   0.549   1.273  0.00  0.00    +0.067 C 
ATOM     19  C   LIG    1        2.796   0.561  -1.302  0.00  0.00    +0.067 C 
BRANCH  17  20
ATOM     20  C   LIG    1        2.290  -1.555  -0.102  0.00  0.00    +0.351 C 
ATOM     21  O   LIG    1        3.325  -2.027   0.379  0.00  0.00    -0.246 OA
BRANCH  20  22
ATOM     22  O   LIG    1        1.309  -2.290  -0.696  0.00  0.00    -0.459 OA
BRANCH  22  23
ATOM     23  C   LIG    1        1.381  -3.713  -0.793  0.00  0.00    +0.170 C 
ATOM     24  C   LIG    1        1.000  -4.379   0.545  0.00  0.00    +0.052 C 
ATOM     25  C   LIG    1        0.447  -4.148  -1.932  0.00  0.00    +0.052 C 
ENDBRANCH  22  23
ENDBRANCH  20  22
ENDBRANCH  17  20
ENDBRANCH  16  17
ENDBRANCH   4  16
TORSDOF 7
