REMARK  Name = DB01591
REMARK                            x       y       z     vdW  Elec       q    Type
REMARK                         _______ _______ _______ _____ _____    ______ ____
ROOT
ATOM      1  C   LIG    1        1.457   0.504   0.066  0.00  0.00    +0.404 C 
ATOM      2  N   LIG    1        0.125   0.349  -0.374  0.00  0.00    -0.256 N 
ATOM      3  C   LIG    1       -0.819   1.442  -0.048  0.00  0.00    +0.117 C 
ATOM      4  C   LIG    1       -2.216   0.847   0.197  0.00  0.00    +0.054 C 
ATOM      5  C   LIG    1       -2.661   0.120  -1.058  0.00  0.00    -0.041 A 
ATOM      6  C   LIG    1       -3.947   0.261  -1.589  0.00  0.00    +0.004 A 
ATOM      7  C   LIG    1       -4.322  -0.431  -2.737  0.00  0.00    +0.000 A 
ATOM      8  C   LIG    1       -3.410  -1.275  -3.364  0.00  0.00    +0.000 A 
ATOM      9  C   LIG    1       -2.126  -1.415  -2.843  0.00  0.00    +0.006 A 
ATOM     10  C   LIG    1       -1.723  -0.710  -1.701  0.00  0.00    -0.019 A 
ATOM     11  C   LIG    1       -0.321  -0.890  -1.091  0.00  0.00    +0.140 C 
ATOM     12  O   LIG    1        1.887   1.464   0.712  0.00  0.00    -0.226 OA
ENDROOT
BRANCH  11  13
ATOM     13  C   LIG    1       -0.246  -2.220  -0.318  0.00  0.00    -0.023 A 
ATOM     14  C   LIG    1       -0.293  -2.249   1.082  0.00  0.00    +0.006 A 
ATOM     15  C   LIG    1       -0.192  -3.460   1.762  0.00  0.00    +0.000 A 
ATOM     16  C   LIG    1       -0.040  -4.643   1.045  0.00  0.00    +0.000 A 
ATOM     17  C   LIG    1        0.015  -4.627  -0.346  0.00  0.00    +0.000 A 
ATOM     18  C   LIG    1       -0.087  -3.416  -1.026  0.00  0.00    +0.006 A 
ENDBRANCH  11  13
BRANCH   1  19
ATOM     19  O   LIG    1        2.242  -0.547  -0.307  0.00  0.00    -0.445 OA
BRANCH  19  20
ATOM     20  C   LIG    1        3.585  -0.701   0.155  0.00  0.00    +0.195 C 
ATOM     21  C   LIG    1        3.645  -1.177   1.647  0.00  0.00    +0.129 C 
ATOM     22  N   LIG    1        4.444  -2.408   1.837  0.00  0.00    -0.299 NA
ATOM     23  C   LIG    1        3.841  -3.465   0.994  0.00  0.00    +0.085 C 
ATOM     24  C   LIG    1        3.779  -3.093  -0.520  0.00  0.00    +0.022 C 
ATOM     25  C   LIG    1        5.803  -2.140   1.314  0.00  0.00    +0.085 C 
ATOM     26  C   LIG    1        5.814  -1.711  -0.188  0.00  0.00    +0.022 C 
ATOM     27  C   LIG    1        4.373  -1.683  -0.748  0.00  0.00    +0.034 C 
ENDBRANCH  19  20
ENDBRANCH   1  19
TORSDOF 3
