REMARK  Name = DB01044
REMARK                            x       y       z     vdW  Elec       q    Type
REMARK                         _______ _______ _______ _____ _____    ______ ____
ROOT
ATOM      1  F   LIG    1        4.692   1.603   1.433  0.00  0.00    -0.203 F 
ATOM      2  C   LIG    1        3.809   0.884   0.701  0.00  0.00    +0.149 A 
ATOM      3  C   LIG    1        4.317   0.006  -0.250  0.00  0.00    +0.054 A 
ATOM      4  C   LIG    1        3.478  -0.804  -1.024  0.00  0.00    +0.052 A 
ATOM      5  C   LIG    1        4.094  -1.708  -2.071  0.00  0.00    +0.204 A 
ATOM      6  C   LIG    1        3.100  -2.389  -2.952  0.00  0.00    +0.122 A 
ATOM      7  C   LIG    1        1.781  -2.296  -2.631  0.00  0.00    +0.105 A 
ATOM      8  N   LIG    1        1.267  -1.656  -1.517  0.00  0.00    -0.340 N 
ATOM      9  O   LIG    1        5.320  -1.805  -2.178  0.00  0.00    -0.286 OA
ATOM     10  C   LIG    1        2.084  -0.746  -0.792  0.00  0.00    +0.097 A 
ATOM     11  C   LIG    1        1.564   0.192   0.127  0.00  0.00    +0.168 A 
ATOM     12  C   LIG    1        2.423   1.012   0.887  0.00  0.00    +0.110 A 
ENDROOT
BRANCH  12  13
ATOM     13  N   LIG    1        1.884   1.864   1.850  0.00  0.00    -0.322 N 
ATOM     14  C   LIG    1        2.485   3.160   2.214  0.00  0.00    +0.120 C 
ATOM     15  C   LIG    1        1.521   4.114   2.960  0.00  0.00    +0.100 C 
ATOM     16  N   LIG    1        0.892   3.460   4.104  0.00  0.00    -0.311 NA
ATOM     17  H   LIG    1        0.263   4.088   4.582  0.00  0.00    +0.122 HD
ATOM     18  C   LIG    1        0.187   2.251   3.688  0.00  0.00    +0.068 C 
ATOM     19  C   LIG    1       -1.084   2.485   2.846  0.00  0.00    +0.025 C 
ATOM     20  C   LIG    1        1.191   1.283   3.014  0.00  0.00    +0.123 C 
ENDBRANCH  12  13
BRANCH   8  21
ATOM     21  C   LIG    1       -0.059  -2.100  -1.067  0.00  0.00    +0.088 C 
ATOM     22  C   LIG    1       -0.233  -3.575  -0.728  0.00  0.00    +0.027 C 
ATOM     23  C   LIG    1       -0.205  -2.567   0.377  0.00  0.00    +0.027 C 
ENDBRANCH   8  21
BRANCH   6  24
ATOM     24  C   LIG    1        3.523  -3.122  -4.149  0.00  0.00    +0.342 C 
ATOM     25  O   LIG    1        4.686  -3.192  -4.547  0.00  0.00    -0.245 OA
BRANCH  24  26
ATOM     26  O   LIG    1        2.507  -3.746  -4.820  0.00  0.00    -0.477 OA
ATOM     27  H   LIG    1        2.821  -4.215  -5.596  0.00  0.00    +0.295 HD
ENDBRANCH  24  26
ENDBRANCH   6  24
BRANCH  11  28
ATOM     28  O   LIG    1        0.203   0.345   0.272  0.00  0.00    -0.491 OA
ATOM     29  C   LIG    1       -0.371   1.298  -0.615  0.00  0.00    +0.277 C 
ENDBRANCH  11  28
TORSDOF 5
