REMARK  Name = DB01145
REMARK                            x       y       z     vdW  Elec       q    Type
REMARK                         _______ _______ _______ _____ _____    ______ ____
ROOT
ATOM      1  S   LIG    1        0.049  -0.012   0.127  0.00  0.00    +0.025 S 
ATOM      2  O   LIG    1       -0.346  -0.474   1.463  0.00  0.00    -0.164 OA
ATOM      3  O   LIG    1       -0.462  -0.680  -1.077  0.00  0.00    -0.164 OA
ENDROOT
BRANCH   1   4
ATOM      4  C   LIG    1       -0.367   1.725   0.009  0.00  0.00    +0.094 A 
ATOM      5  C   LIG    1       -0.664   2.288  -1.232  0.00  0.00    +0.029 A 
ATOM      6  C   LIG    1       -0.969   3.644  -1.322  0.00  0.00    +0.025 A 
ATOM      7  C   LIG    1       -0.973   4.442  -0.170  0.00  0.00    +0.028 A 
ATOM      8  C   LIG    1       -0.673   3.869   1.067  0.00  0.00    +0.025 A 
ATOM      9  C   LIG    1       -0.370   2.514   1.160  0.00  0.00    +0.029 A 
BRANCH   7  10
ATOM     10  N   LIG    1       -1.267   5.815  -0.200  0.00  0.00    -0.325 N 
ATOM     11  H   LIG    1       -1.254   6.344   0.661  0.00  0.00    +0.148 HD
BRANCH  10  12
ATOM     12  C   LIG    1       -1.594   6.517  -1.435  0.00  0.00    +0.278 C 
BRANCH  12  13
ATOM     13  S   LIG    1       -1.920   8.312  -1.093  0.00  0.00    +0.012 S 
ATOM     14  O   LIG    1       -2.690   8.418   0.224  0.00  0.00    -0.165 OA
BRANCH  13  15
ATOM     15  O   LIG    1       -0.347   8.741  -0.874  0.00  0.00    -0.268 OA
ATOM     16  H   LIG    1       -0.159   9.540  -1.369  0.00  0.00    +0.243 HD
ENDBRANCH  13  15
ENDBRANCH  12  13
ENDBRANCH  10  12
ENDBRANCH   7  10
ENDBRANCH   1   4
BRANCH   1  17
ATOM     17  C   LIG    1        1.836  -0.046   0.038  0.00  0.00    +0.094 A 
ATOM     18  C   LIG    1        2.464   0.051  -1.204  0.00  0.00    +0.029 A 
ATOM     19  C   LIG    1        3.853   0.041  -1.281  0.00  0.00    +0.025 A 
ATOM     20  C   LIG    1        4.622  -0.067  -0.114  0.00  0.00    +0.028 A 
ATOM     21  C   LIG    1        3.986  -0.160   1.125  0.00  0.00    +0.025 A 
ATOM     22  C   LIG    1        2.596  -0.148   1.205  0.00  0.00    +0.029 A 
BRANCH  20  23
ATOM     23  N   LIG    1        6.026  -0.087  -0.128  0.00  0.00    -0.325 N 
ATOM     24  H   LIG    1        6.528  -0.158   0.746  0.00  0.00    +0.148 HD
BRANCH  23  25
ATOM     25  C   LIG    1        6.796   0.017  -1.361  0.00  0.00    +0.278 C 
BRANCH  25  26
ATOM     26  S   LIG    1        8.614  -0.071  -0.999  0.00  0.00    +0.012 S 
ATOM     27  O   LIG    1        8.897   0.688   0.299  0.00  0.00    -0.165 OA
BRANCH  26  28
ATOM     28  O   LIG    1        8.666  -1.694  -0.736  0.00  0.00    -0.268 OA
ATOM     29  H   LIG    1        7.903  -1.958  -0.217  0.00  0.00    +0.243 HD
ENDBRANCH  26  28
ENDBRANCH  25  26
ENDBRANCH  23  25
ENDBRANCH  20  23
ENDBRANCH   1  17
TORSDOF 10
