REMARK  Name = DB01580
REMARK                            x       y       z     vdW  Elec       q    Type
REMARK                         _______ _______ _______ _____ _____    ______ ____
ROOT
ATOM      1  O   LIG    1        2.281  -1.184  -0.115  0.00  0.00    -0.486 OA
ENDROOT
BRANCH   1   2
ATOM      2  C   LIG    1        3.655  -1.333  -0.188  0.00  0.00    +0.162 A 
ATOM      3  C   LIG    1        4.550  -0.257  -0.326  0.00  0.00    +0.049 A 
ATOM      4  C   LIG    1        5.923  -0.480  -0.395  0.00  0.00    +0.004 A 
ATOM      5  C   LIG    1        6.421  -1.777  -0.328  0.00  0.00    +0.004 A 
ATOM      6  C   LIG    1        5.546  -2.852  -0.190  0.00  0.00    +0.049 A 
ATOM      7  C   LIG    1        4.157  -2.642  -0.117  0.00  0.00    +0.162 A 
BRANCH   7   8
ATOM      8  O   LIG    1        3.234  -3.663   0.022  0.00  0.00    -0.484 OA
BRANCH   8   9
ATOM      9  C   LIG    1        3.681  -5.013   0.102  0.00  0.00    +0.256 C 
BRANCH   9  10
ATOM     10  C   LIG    1        2.491  -5.938   0.251  0.00  0.00    +0.006 C 
ATOM     11  C   LIG    1        2.340  -6.841   1.232  0.00  0.00    +0.007 C 
ENDBRANCH   9  10
ENDBRANCH   8   9
ENDBRANCH   7   8
ENDBRANCH   1   2
BRANCH   1  12
ATOM     12  C   LIG    1        1.702   0.117  -0.203  0.00  0.00    +0.261 C 
BRANCH  12  13
ATOM     13  C   LIG    1        0.167   0.003  -0.133  0.00  0.00    +0.166 C 
BRANCH  13  14
ATOM     14  O   LIG    1       -0.292  -0.632  -1.313  0.00  0.00    -0.387 OA
ATOM     15  H   LIG    1       -1.252  -0.642  -1.296  0.00  0.00    +0.210 HD
ENDBRANCH  13  14
BRANCH  13  16
ATOM     16  C   LIG    1       -0.510   1.385   0.001  0.00  0.00    +0.115 C 
BRANCH  16  17
ATOM     17  N   LIG    1       -1.947   1.243   0.233  0.00  0.00    -0.311 NA
ATOM     18  H   LIG    1       -2.116   0.628   1.016  0.00  0.00    +0.122 HD
BRANCH  17  19
ATOM     19  C   LIG    1       -2.644   2.511   0.436  0.00  0.00    +0.048 C 
ATOM     20  C   LIG    1       -2.694   3.349  -0.858  0.00  0.00    +0.023 C 
ATOM     21  C   LIG    1       -4.059   2.186   0.945  0.00  0.00    +0.023 C 
ENDBRANCH  17  19
ENDBRANCH  16  17
ENDBRANCH  13  16
ENDBRANCH  12  13
ENDBRANCH   1  12
TORSDOF 10
