REMARK  Name = DB01353
REMARK                            x       y       z     vdW  Elec       q    Type
REMARK                         _______ _______ _______ _____ _____    ______ ____
ROOT
ATOM      1  O   LIG    1       -0.276  -0.292  -2.458  0.00  0.00    -0.274 OA
ATOM      2  C   LIG    1       -0.567  -0.691  -1.331  0.00  0.00    +0.235 C 
ATOM      3  C   LIG    1       -0.065  -0.023  -0.000  0.00  0.00    +0.123 C 
ATOM      4  C   LIG    1       -0.567  -0.691   1.331  0.00  0.00    +0.235 C 
ATOM      5  N   LIG    1       -1.363  -1.768   1.144  0.00  0.00    -0.239 N 
ATOM      6  H   LIG    1       -1.690  -2.205   1.993  0.00  0.00    +0.159 HD
ATOM      7  C   LIG    1       -1.793  -2.353  -0.000  0.00  0.00    +0.312 C 
ATOM      8  O   LIG    1       -2.521  -3.343   0.000  0.00  0.00    -0.252 OA
ATOM      9  O   LIG    1       -0.276  -0.292   2.458  0.00  0.00    -0.274 OA
ATOM     10  N   LIG    1       -1.363  -1.768  -1.144  0.00  0.00    -0.239 N 
ATOM     11  H   LIG    1       -1.690  -2.205  -1.993  0.00  0.00    +0.159 HD
ENDROOT
BRANCH   3  12
ATOM     12  C   LIG    1       -0.586   1.456   0.000  0.00  0.00    +0.022 C 
ATOM     13  C   LIG    1       -2.117   1.679   0.000  0.00  0.00    +0.005 C 
ENDBRANCH   3  12
BRANCH   3  14
ATOM     14  C   LIG    1        1.501  -0.111   0.000  0.00  0.00    +0.025 C 
BRANCH  14  15
ATOM     15  C   LIG    1        2.147  -1.522   0.000  0.00  0.00    +0.001 C 
BRANCH  15  16
ATOM     16  C   LIG    1        3.684  -1.473   0.000  0.00  0.00    -0.003 C 
ATOM     17  C   LIG    1        4.327  -2.866   0.000  0.00  0.00    +0.004 C 
ENDBRANCH  15  16
ENDBRANCH  14  15
ENDBRANCH   3  14
TORSDOF 4
