REMARK  Name = DB01209
REMARK                            x       y       z     vdW  Elec       q    Type
REMARK                         _______ _______ _______ _____ _____    ______ ____
ROOT
ATOM      1  C   LIG    1       -5.421  -1.125   1.808  0.00  0.00    +0.005 C 
ATOM      2  C   LIG    1       -4.269  -1.125   2.829  0.00  0.00    +0.000 C 
ATOM      3  C   LIG    1       -3.727  -2.519   3.207  0.00  0.00    +0.000 C 
ATOM      4  C   LIG    1       -2.360  -2.877   2.603  0.00  0.00    +0.001 C 
ATOM      5  C   LIG    1       -2.363  -3.516   1.196  0.00  0.00    +0.013 C 
ATOM      6  C   LIG    1       -2.820  -2.669  -0.047  0.00  0.00    +0.009 C 
ATOM      7  C   LIG    1       -2.340  -3.357  -1.357  0.00  0.00    +0.018 C 
ATOM      8  C   LIG    1       -4.402  -2.593  -0.156  0.00  0.00    +0.064 C 
ATOM      9  C   LIG    1       -2.143  -1.269  -0.002  0.00  0.00    -0.033 A 
ATOM     10  C   LIG    1       -2.879  -0.063  -0.089  0.00  0.00    -0.043 A 
ATOM     11  C   LIG    1       -4.378  -0.071  -0.330  0.00  0.00    +0.040 C 
ATOM     12  C   LIG    1       -2.215   1.165   0.026  0.00  0.00    +0.007 A 
ATOM     13  C   LIG    1       -0.838   1.232   0.198  0.00  0.00    +0.045 A 
ATOM     14  C   LIG    1       -0.099   0.058   0.255  0.00  0.00    +0.117 A 
ATOM     15  C   LIG    1       -0.747  -1.169   0.152  0.00  0.00    +0.050 A 
ATOM     16  C   LIG    1       -5.082  -1.282   0.303  0.00  0.00    +0.011 C 
ENDROOT
BRANCH   8  17
ATOM     17  N   LIG    1       -5.148  -3.786   0.219  0.00  0.00    -0.326 NA
ATOM     18  H   LIG    1       -4.781  -4.583  -0.281  0.00  0.00    +0.119 HD
ATOM     19  H   LIG    1       -6.111  -3.686  -0.068  0.00  0.00    +0.119 HD
ENDBRANCH   8  17
BRANCH  14  20
ATOM     20  O   LIG    1        1.260   0.108   0.417  0.00  0.00    -0.507 OA
ATOM     21  H   LIG    1        1.595   1.005   0.479  0.00  0.00    +0.292 HD
ENDBRANCH  14  20
TORSDOF 2
