REMARK  Name = DB01718
REMARK                            x       y       z     vdW  Elec       q    Type
REMARK                         _______ _______ _______ _____ _____    ______ ____
ROOT
ATOM      1  C   LIG    1        0.039   0.054  -0.116  0.00  0.00    -0.000 C 
ENDROOT
BRANCH   1   2
ATOM      2  C   LIG    1       -0.545   1.477  -0.086  0.00  0.00    -0.000 C 
BRANCH   2   3
ATOM      3  C   LIG    1       -2.085   1.486  -0.072  0.00  0.00    -0.000 C 
BRANCH   3   4
ATOM      4  C   LIG    1       -2.683   2.902  -0.019  0.00  0.00    -0.000 C 
BRANCH   4   5
ATOM      5  C   LIG    1       -4.222   2.897   0.021  0.00  0.00    -0.000 C 
BRANCH   5   6
ATOM      6  C   LIG    1       -4.826   4.312   0.111  0.00  0.00    -0.000 C 
BRANCH   6   7
ATOM      7  C   LIG    1       -6.367   4.348   0.092  0.00  0.00    -0.000 C 
BRANCH   7   8
ATOM      8  C   LIG    1       -7.033   3.701   1.323  0.00  0.00    -0.000 C 
BRANCH   8  10
ATOM      9  C   LIG    1       -9.226   3.204   2.549  0.00  0.00    +0.004 C 
ATOM     10  C   LIG    1       -8.563   3.866   1.334  0.00  0.00    -0.003 C 
ENDBRANCH   8  10
ENDBRANCH   7   8
ENDBRANCH   6   7
ENDBRANCH   5   6
ENDBRANCH   4   5
ENDBRANCH   3   4
ENDBRANCH   2   3
ENDBRANCH   1   2
BRANCH   1  11
ATOM     11  C   LIG    1        1.578   0.031  -0.106  0.00  0.00    -0.000 C 
BRANCH  11  12
ATOM     12  C   LIG    1        2.150  -1.399  -0.100  0.00  0.00    -0.000 C 
BRANCH  12  13
ATOM     13  C   LIG    1        3.688  -1.435  -0.072  0.00  0.00    -0.000 C 
BRANCH  13  14
ATOM     14  C   LIG    1        4.251  -2.867  -0.039  0.00  0.00    -0.002 C 
BRANCH  14  15
ATOM     15  C   LIG    1        5.788  -2.911  -0.018  0.00  0.00    -0.018 C 
BRANCH  15  16
ATOM     16  C   LIG    1        6.324  -4.361   0.005  0.00  0.00    -0.076 C 
BRANCH  16  17
ATOM     17  N   LIG    1        7.878  -4.471   0.012  0.00  0.00    +0.374 N 
ATOM     18  C   LIG    1        8.489  -3.816   1.274  0.00  0.00    -0.093 C 
ATOM     19  C   LIG    1        8.500  -3.829  -1.252  0.00  0.00    -0.093 C 
ATOM     20  C   LIG    1        8.249  -5.974   0.021  0.00  0.00    -0.093 C 
ENDBRANCH  16  17
ENDBRANCH  15  16
ENDBRANCH  14  15
ENDBRANCH  13  14
ENDBRANCH  12  13
ENDBRANCH  11  12
ENDBRANCH   1  11
TORSDOF 15
