REMARK  Name = DB01186
REMARK                            x       y       z     vdW  Elec       q    Type
REMARK                         _______ _______ _______ _____ _____    ______ ____
ROOT
ATOM      1  C   LIG    1       -2.003  -0.669  -1.364  0.00  0.00    +0.013 C 
ATOM      2  C   LIG    1       -0.466  -0.586  -1.397  0.00  0.00    +0.089 C 
ATOM      3  N   LIG    1        0.065   0.006  -0.160  0.00  0.00    -0.298 NA
ATOM      4  C   LIG    1       -0.407   1.405   0.010  0.00  0.00    +0.068 C 
ATOM      5  C   LIG    1        0.160   2.117   1.287  0.00  0.00    +0.056 C 
ATOM      6  C   LIG    1       -0.365   3.544   1.357  0.00  0.00    -0.021 A 
ATOM      7  C   LIG    1        0.068   4.745   1.893  0.00  0.00    +0.087 A 
ATOM      8  N   LIG    1       -0.871   5.730   1.652  0.00  0.00    -0.360 N 
ATOM      9  H   LIG    1       -0.748   6.683   1.964  0.00  0.00    +0.165 HD
ATOM     10  C   LIG    1       -1.939   5.206   0.949  0.00  0.00    +0.047 A 
ATOM     11  C   LIG    1       -3.132   5.737   0.449  0.00  0.00    +0.026 A 
ATOM     12  C   LIG    1       -3.971   4.850  -0.235  0.00  0.00    +0.002 A 
ATOM     13  C   LIG    1       -3.643   3.501  -0.419  0.00  0.00    +0.004 A 
ATOM     14  C   LIG    1       -2.447   2.955   0.071  0.00  0.00    -0.033 A 
ATOM     15  C   LIG    1       -1.623   3.846   0.765  0.00  0.00    +0.006 A 
ATOM     16  C   LIG    1       -1.986   1.498  -0.062  0.00  0.00    +0.037 C 
ATOM     17  C   LIG    1       -2.556   0.765  -1.298  0.00  0.00    +0.015 C 
ENDROOT
BRANCH   1  18
ATOM     18  C   LIG    1       -2.565  -1.530  -2.513  0.00  0.00    +0.073 C 
BRANCH  18  19
ATOM     19  S   LIG    1       -4.350  -1.862  -2.442  0.00  0.00    -0.164 S 
ATOM     20  C   LIG    1       -4.564  -2.736  -4.015  0.00  0.00    +0.084 C 
ENDBRANCH  18  19
ENDBRANCH   1  18
BRANCH   3  21
ATOM     21  C   LIG    1        1.529  -0.135  -0.133  0.00  0.00    +0.084 C 
BRANCH  21  22
ATOM     22  C   LIG    1        2.022  -0.637   1.240  0.00  0.00    +0.012 C 
ATOM     23  C   LIG    1        3.537  -0.482   1.422  0.00  0.00    +0.005 C 
ENDBRANCH  21  22
ENDBRANCH   3  21
TORSDOF 4
