REMARK  Name = DB01115
REMARK                            x       y       z     vdW  Elec       q    Type
REMARK                         _______ _______ _______ _____ _____    ______ ____
ROOT
ATOM      1  C   LIG    1       -0.540  -0.784   1.292  0.00  0.00    +0.065 C 
ATOM      2  C   LIG    1       -1.431  -1.815   1.224  0.00  0.00    +0.016 C 
ATOM      3  C   LIG    1       -2.171  -2.503   2.370  0.00  0.00    +0.061 C 
ATOM      4  N   LIG    1       -1.839  -2.294   0.000  0.00  0.00    -0.321 N 
ATOM      5  H   LIG    1       -2.412  -3.125   0.001  0.00  0.00    +0.152 HD
ATOM      6  C   LIG    1       -1.431  -1.815  -1.224  0.00  0.00    +0.016 C 
ATOM      7  C   LIG    1       -2.171  -2.503  -2.370  0.00  0.00    +0.061 C 
ATOM      8  C   LIG    1       -0.540  -0.784  -1.292  0.00  0.00    +0.065 C 
ATOM      9  C   LIG    1        0.104  -0.188   0.000  0.00  0.00    +0.098 C 
ENDROOT
BRANCH   9  10
ATOM     10  C   LIG    1        1.654  -0.162   0.000  0.00  0.00    -0.005 A 
ATOM     11  C   LIG    1        2.326   1.071   0.000  0.00  0.00    +0.007 A 
ATOM     12  C   LIG    1        3.718   1.130   0.000  0.00  0.00    +0.000 A 
ATOM     13  C   LIG    1        4.463  -0.045   0.000  0.00  0.00    +0.002 A 
ATOM     14  C   LIG    1        3.816  -1.278  -0.000  0.00  0.00    +0.033 A 
ATOM     15  C   LIG    1        2.419  -1.348   0.000  0.00  0.00    +0.126 A 
BRANCH  15  16
ATOM     16  N   LIG    1        1.789  -2.675   0.000  0.00  0.00    +0.006 N 
ATOM     17  O   LIG    1        1.561  -3.195  -1.086  0.00  0.00    -0.130 OA
BRANCH  16  18
ATOM     18  O   LIG    1        1.560  -3.195   1.086  0.00  0.00    -0.396 OA
ATOM     19  H   LIG    1        1.160  -4.041   1.126  0.00  0.00    +0.329 HD
ENDBRANCH  16  18
ENDBRANCH  15  16
ENDBRANCH   9  10
BRANCH   1  20
ATOM     20  C   LIG    1       -0.052  -0.259   2.597  0.00  0.00    +0.337 C 
ATOM     21  O   LIG    1       -0.088  -0.900   3.651  0.00  0.00    -0.245 OA
BRANCH  20  22
ATOM     22  O   LIG    1        0.458   0.995   2.516  0.00  0.00    -0.465 OA
ATOM     23  C   LIG    1        0.992   1.646   3.660  0.00  0.00    +0.280 C 
ENDBRANCH  20  22
ENDBRANCH   1  20
BRANCH   8  24
ATOM     24  C   LIG    1       -0.052  -0.259  -2.597  0.00  0.00    +0.337 C 
ATOM     25  O   LIG    1       -0.088  -0.900  -3.651  0.00  0.00    -0.245 OA
BRANCH  24  26
ATOM     26  O   LIG    1        0.458   0.995  -2.516  0.00  0.00    -0.465 OA
ATOM     27  C   LIG    1        0.992   1.646  -3.660  0.00  0.00    +0.280 C 
ENDBRANCH  24  26
ENDBRANCH   8  24
TORSDOF 7
