REMARK  Name = DB01073
REMARK                            x       y       z     vdW  Elec       q    Type
REMARK                         _______ _______ _______ _____ _____    ______ ____
ROOT
ATOM      1  C   LIG    1       -0.838   1.039  -0.085  0.00  0.00    +0.170 A 
ATOM      2  N   LIG    1       -0.535   2.355  -0.187  0.00  0.00    -0.182 NA
ATOM      3  C   LIG    1       -1.624   3.144  -0.170  0.00  0.00    +0.313 A 
ATOM      4  N   LIG    1       -2.906   2.755  -0.065  0.00  0.00    -0.185 NA
ATOM      5  C   LIG    1       -3.188   1.429   0.038  0.00  0.00    +0.150 A 
ATOM      6  F   LIG    1       -1.405   4.474  -0.269  0.00  0.00    -0.161 F 
ATOM      7  C   LIG    1       -2.112   0.515   0.029  0.00  0.00    +0.147 A 
ATOM      8  N   LIG    1       -2.078  -0.825   0.113  0.00  0.00    -0.231 NA
ATOM      9  C   LIG    1       -0.803  -1.120   0.051  0.00  0.00    +0.203 A 
ATOM     10  N   LIG    1       -0.001  -0.043  -0.073  0.00  0.00    -0.285 N 
ENDROOT
BRANCH  10  11
ATOM     11  C1* LIG    1        1.513  -0.012  -0.178  0.00  0.00    +0.253 C 
ATOM     12  C2* LIG    1        2.143   0.161  -1.567  0.00  0.00    +0.195 C 
ATOM     13  C3* LIG    1        3.444   0.910  -1.227  0.00  0.00    +0.178 C 
ATOM     14  C4* LIG    1        3.422   1.165   0.291  0.00  0.00    +0.177 C 
ATOM     15  O4* LIG    1        2.072   0.943   0.661  0.00  0.00    -0.346 OA
BRANCH  12  16
ATOM     16  O2* LIG    1        1.306   0.889  -2.451  0.00  0.00    -0.385 OA
ATOM     17  H2* LIG    1        0.551   0.343  -2.683  0.00  0.00    +0.210 HD
ENDBRANCH  12  16
BRANCH  13  18
ATOM     18  O3* LIG    1        4.593   0.188  -1.630  0.00  0.00    -0.386 OA
ATOM     19  H3* LIG    1        4.598  -0.660  -1.180  0.00  0.00    +0.210 HD
ENDBRANCH  13  18
BRANCH  14  20
ATOM     20  C5* LIG    1        3.862   2.567   0.761  0.00  0.00    +0.190 C 
BRANCH  20  21
ATOM     21  O5* LIG    1        3.075   3.599   0.196  0.00  0.00    -0.392 OA
ATOM     22  H5* LIG    1        3.368   4.440   0.552  0.00  0.00    +0.210 HD
ENDBRANCH  20  21
ENDBRANCH  14  20
ENDBRANCH  10  11
BRANCH   5  23
ATOM     23  N   LIG    1       -4.521   1.035   0.144  0.00  0.00    -0.341 N 
ATOM     24  H   LIG    1       -5.244   1.739   0.141  0.00  0.00    +0.144 HD
ATOM     25  H   LIG    1       -4.743   0.053   0.215  0.00  0.00    +0.144 HD
ENDBRANCH   5  23
TORSDOF 6
