REMARK  Name = DB01357
REMARK                            x       y       z     vdW  Elec       q    Type
REMARK                         _______ _______ _______ _____ _____    ______ ____
ROOT
ATOM      1  C   LIG    1        9.913  -0.284   1.610  0.00  0.00    +0.132 C 
ATOM      2  C   LIG    1        9.785  -1.627   2.395  0.00  0.00    +0.049 C 
ATOM      3  C   LIG    1        8.378  -2.201   2.119  0.00  0.00    +0.008 C 
ATOM      4  C   LIG    1        7.745  -1.213   1.131  0.00  0.00    +0.002 C 
ATOM      5  C   LIG    1        6.203  -1.127   1.004  0.00  0.00    +0.000 C 
ATOM      6  C   LIG    1        5.750  -0.057  -0.042  0.00  0.00    +0.023 C 
ATOM      7  C   LIG    1        4.215   0.028  -0.042  0.00  0.00    -0.041 A 
ATOM      8  C   LIG    1        3.504   1.236  -0.046  0.00  0.00    +0.008 A 
ATOM      9  C   LIG    1        2.112   1.254  -0.004  0.00  0.00    +0.046 A 
ATOM     10  C   LIG    1        1.388   0.055   0.044  0.00  0.00    +0.120 A 
ATOM     11  C   LIG    1        2.094  -1.148   0.040  0.00  0.00    +0.049 A 
ATOM     12  C   LIG    1        3.491  -1.180  -0.012  0.00  0.00    -0.040 A 
ATOM     13  C   LIG    1        4.260  -2.496  -0.065  0.00  0.00    +0.036 C 
ATOM     14  C   LIG    1        6.523   1.294   0.076  0.00  0.00    +0.009 C 
ATOM     15  C   LIG    1        8.053   1.085   0.232  0.00  0.00    +0.011 C 
ATOM     16  C   LIG    1        5.480  -2.497   0.888  0.00  0.00    +0.009 C 
ATOM     17  C   LIG    1        8.406   0.158   1.439  0.00  0.00    +0.011 C 
ATOM     18  C   LIG    1        7.896   0.808   2.772  0.00  0.00    +0.015 C 
ENDROOT
BRANCH   1  19
ATOM     19  O   LIG    1       10.700   0.644   2.337  0.00  0.00    -0.376 OA
ATOM     20  H   LIG    1       10.663   1.490   1.885  0.00  0.00    +0.211 HD
ENDBRANCH   1  19
BRANCH   1  21
ATOM     21  C   LIG    1       10.654  -0.501   0.339  0.00  0.00    -0.070 C 
ATOM     22  C   LIG    1       11.254  -0.697  -0.707  0.00  0.00    +0.007 C 
ENDBRANCH   1  21
BRANCH  10  23
ATOM     23  O   LIG    1        0.010  -0.028   0.089  0.00  0.00    -0.495 OA
ATOM     24  C   LIG    1       -0.756   1.171   0.085  0.00  0.00    +0.277 C 
ENDBRANCH  10  23
TORSDOF 3
