REMARK  Name = DB01283
REMARK                            x       y       z     vdW  Elec       q    Type
REMARK                         _______ _______ _______ _____ _____    ______ ____
ROOT
ATOM      1  C   LIG    1        1.592   0.273  -0.475  0.00  0.00    +0.035 A 
ATOM      2  C   LIG    1        2.252  -0.893  -0.912  0.00  0.00    -0.015 A 
ATOM      3  C   LIG    1        3.616  -1.054  -0.641  0.00  0.00    +0.009 A 
ATOM      4  C   LIG    1        4.332  -0.073   0.046  0.00  0.00    -0.050 A 
ATOM      5  C   LIG    1        5.808  -0.271   0.342  0.00  0.00    +0.044 C 
ATOM      6  C   LIG    1        3.676   1.079   0.480  0.00  0.00    +0.005 A 
ATOM      7  C   LIG    1        2.317   1.250   0.221  0.00  0.00    +0.024 A 
ENDROOT
BRANCH   1   8
ATOM      8  N   LIG    1        0.221   0.447  -0.731  0.00  0.00    -0.311 N 
ATOM      9  H   LIG    1       -0.230  -0.301  -1.238  0.00  0.00    +0.152 HD
BRANCH   8  10
ATOM     10  C   LIG    1       -0.620   1.482  -0.291  0.00  0.00    +0.086 A 
ATOM     11  C   LIG    1       -1.348   1.354   0.904  0.00  0.00    +0.065 A 
ATOM     12 CL   LIG    1       -1.242  -0.071   1.883  0.00  0.00    -0.082 Cl
ATOM     13  C   LIG    1       -2.181   2.393   1.325  0.00  0.00    +0.022 A 
ATOM     14  C   LIG    1       -2.295   3.555   0.564  0.00  0.00    +0.004 A 
ATOM     15  C   LIG    1       -1.577   3.684  -0.623  0.00  0.00    +0.040 A 
ATOM     16  C   LIG    1       -0.743   2.652  -1.053  0.00  0.00    +0.146 A 
ATOM     17  F   LIG    1       -0.055   2.799  -2.211  0.00  0.00    -0.203 F 
ENDBRANCH   8  10
ENDBRANCH   1   8
BRANCH   2  18
ATOM     18  C   LIG    1        1.513  -2.017  -1.651  0.00  0.00    +0.157 C 
BRANCH  18  19
ATOM     19  C   LIG    1        0.698  -2.925  -0.717  0.00  0.00    +0.309 C 
ATOM     20  O   LIG    1        0.807  -2.938   0.509  0.00  0.00    -0.251 OA
BRANCH  19  21
ATOM     21  O   LIG    1       -0.131  -3.741  -1.428  0.00  0.00    -0.480 OA
ATOM     22  H   LIG    1       -0.640  -4.325  -0.861  0.00  0.00    +0.295 HD
ENDBRANCH  19  21
ENDBRANCH  18  19
ENDBRANCH   2  18
TORSDOF 5
