REMARK  Name = DB01346
REMARK                            x       y       z     vdW  Elec       q    Type
REMARK                         _______ _______ _______ _____ _____    ______ ____
ROOT
ATOM      1  C   LIG    1        1.444  -0.350   0.658  0.00  0.00    +0.162 C 
ENDROOT
BRANCH   1   9
ATOM      2  C   LIG    1       -0.790   3.382  -0.390  0.00  0.00    +0.121 A 
ATOM      3  C   LIG    1       -2.187   3.333  -0.466  0.00  0.00    +0.048 A 
ATOM      4  C   LIG    1       -2.876   2.152  -0.217  0.00  0.00    +0.032 A 
ATOM      5  C   LIG    1       -2.176   0.972   0.120  0.00  0.00    +0.072 A 
ATOM      6  N   LIG    1       -2.906  -0.153   0.348  0.00  0.00    -0.255 NA
ATOM      7  C   LIG    1       -2.252  -1.292   0.666  0.00  0.00    +0.112 A 
ATOM      8  C   LIG    1       -0.870  -1.376   0.775  0.00  0.00    +0.026 A 
ATOM      9  C   LIG    1       -0.087  -0.238   0.554  0.00  0.00    -0.007 A 
ATOM     10  C   LIG    1       -0.746   0.993   0.207  0.00  0.00    +0.010 A 
ATOM     11  C   LIG    1       -0.084   2.227  -0.057  0.00  0.00    +0.056 A 
BRANCH   2  13
ATOM     12  C   LIG    1       -0.692   5.727  -0.981  0.00  0.00    +0.277 C 
ATOM     13  O   LIG    1       -0.035   4.515  -0.626  0.00  0.00    -0.495 OA
ENDBRANCH   2  13
ENDBRANCH   1   9
BRANCH   1  14
ATOM     14  C   LIG    1        2.074  -1.060  -0.575  0.00  0.00    +0.090 C 
ATOM     15  N   LIG    1        1.551  -0.767  -1.937  0.00  0.00    -0.296 NA
ATOM     16  C   LIG    1        1.944  -1.884  -2.827  0.00  0.00    +0.092 C 
ATOM     17  C   LIG    1        3.494  -2.113  -2.874  0.00  0.00    +0.028 C 
ATOM     18  C   LIG    1        4.213  -1.061  -1.981  0.00  0.00    -0.000 C 
ATOM     19  C   LIG    1        3.765   0.323  -2.513  0.00  0.00    +0.019 C 
ATOM     20  C   LIG    1        2.212   0.457  -2.439  0.00  0.00    +0.085 C 
ATOM     21  C   LIG    1        3.639  -1.163  -0.544  0.00  0.00    +0.026 C 
BRANCH  17  22
ATOM     22  C   LIG    1        3.848  -3.541  -2.473  0.00  0.00    -0.030 C 
ATOM     23  C   LIG    1        4.511  -4.414  -3.247  0.00  0.00    +0.004 C 
ENDBRANCH  17  22
ENDBRANCH   1  14
BRANCH   1  24
ATOM     24  O   LIG    1        1.840  -1.027   1.839  0.00  0.00    -0.386 OA
ATOM     25  H   LIG    1        1.579  -0.496   2.595  0.00  0.00    +0.210 HD
ENDBRANCH   1  24
TORSDOF 5
