REMARK  Name = DB01119
REMARK                            x       y       z     vdW  Elec       q    Type
REMARK                         _______ _______ _______ _____ _____    ______ ____
ROOT
ATOM      1 CL   LIG    1       -6.267  -2.653   0.589  0.00  0.00    -0.083 Cl
ATOM      2  C   LIG    1       -4.605  -2.254   0.350  0.00  0.00    +0.043 A 
ATOM      3  C   LIG    1       -3.664  -3.268   0.159  0.00  0.00    +0.024 A 
ATOM      4  C   LIG    1       -2.320  -2.950  -0.040  0.00  0.00    +0.052 A 
ATOM      5  C   LIG    1       -1.913  -1.614  -0.042  0.00  0.00    +0.148 A 
ATOM      6  C   LIG    1       -2.861  -0.594   0.135  0.00  0.00    +0.180 A 
ATOM      7  S   LIG    1       -2.380   1.117  -0.101  0.00  0.00    +0.182 S 
ATOM      8  N   LIG    1       -0.648   1.041   0.240  0.00  0.00    +0.090 NA
ATOM      9  C   LIG    1        0.002  -0.033   0.045  0.00  0.00    +0.315 C 
ATOM     10  C   LIG    1        1.516   0.051   0.081  0.00  0.00    +0.147 C 
ATOM     11  O   LIG    1       -2.588   1.446  -1.516  0.00  0.00    -0.125 OA
ATOM     12  O   LIG    1       -3.065   1.942   0.901  0.00  0.00    -0.125 OA
ATOM     13  N   LIG    1       -0.549  -1.291  -0.154  0.00  0.00    -0.201 N 
ATOM     14  H   LIG    1        0.093  -2.059  -0.283  0.00  0.00    +0.298 HD
ATOM     15  C   LIG    1       -4.205  -0.917   0.329  0.00  0.00    +0.055 A 
ENDROOT
TORSDOF 0
