REMARK  Name = DB01037
REMARK                            x       y       z     vdW  Elec       q    Type
REMARK                         _______ _______ _______ _____ _____    ______ ____
ROOT
ATOM      1  C   LIG    1        1.459  -0.110  -0.036  0.00  0.00    +0.058 C 
ATOM      2  C   LIG    1        1.895  -1.593   0.106  0.00  0.00    +0.024 C 
ENDROOT
BRANCH   1   3
ATOM      3  N   LIG    1       -0.022   0.012  -0.111  0.00  0.00    -0.292 NA
ATOM      4  C   LIG    1       -0.606  -0.770  -1.209  0.00  0.00    +0.106 C 
BRANCH   3   5
ATOM      5  C   LIG    1       -0.579   1.384  -0.120  0.00  0.00    +0.173 C 
BRANCH   5   6
ATOM      6  C   LIG    1       -0.099   2.238  -1.232  0.00  0.00    -0.090 C 
ATOM      7  C   LIG    1        0.307   2.950  -2.138  0.00  0.00    +0.005 C 
ENDBRANCH   5   6
ENDBRANCH   3   5
ENDBRANCH   1   3
BRANCH   1   8
ATOM      8  C   LIG    1        2.049   0.742   1.128  0.00  0.00    +0.053 C 
BRANCH   8   9
ATOM      9  C   LIG    1        3.573   0.745   1.186  0.00  0.00    -0.046 A 
ATOM     10  C   LIG    1        4.303   1.417   0.201  0.00  0.00    +0.004 A 
ATOM     11  C   LIG    1        5.695   1.423   0.249  0.00  0.00    +0.000 A 
ATOM     12  C   LIG    1        6.352   0.758   1.282  0.00  0.00    +0.000 A 
ATOM     13  C   LIG    1        5.631   0.089   2.268  0.00  0.00    +0.000 A 
ATOM     14  C   LIG    1        4.239   0.082   2.221  0.00  0.00    +0.004 A 
ENDBRANCH   8   9
ENDBRANCH   1   8
TORSDOF 5
