REMARK  Name = DB01621
REMARK                            x       y       z     vdW  Elec       q    Type
REMARK                         _______ _______ _______ _____ _____    ______ ____
ROOT
ATOM      1  S   LIG    1        4.255  -3.559   0.253  0.00  0.00    -0.086 S 
ATOM      2  C   LIG    1        3.065  -3.250   1.506  0.00  0.00    +0.034 A 
ATOM      3  C   LIG    1        2.997  -4.150   2.572  0.00  0.00    +0.017 A 
ATOM      4  C   LIG    1        2.102  -3.945   3.615  0.00  0.00    +0.001 A 
ATOM      5  C   LIG    1        1.277  -2.828   3.599  0.00  0.00    +0.002 A 
ATOM      6  C   LIG    1        1.357  -1.918   2.547  0.00  0.00    +0.024 A 
ATOM      7  C   LIG    1        2.276  -2.076   1.490  0.00  0.00    +0.048 A 
ATOM      8  N   LIG    1        2.303  -1.212   0.369  0.00  0.00    -0.298 N 
ATOM      9  C   LIG    1        2.599  -1.688  -0.931  0.00  0.00    +0.050 A 
ATOM     10  C   LIG    1        1.967  -1.177  -2.084  0.00  0.00    +0.053 A 
ATOM     11  C   LIG    1        2.196  -1.717  -3.353  0.00  0.00    +0.107 A 
ATOM     12  C   LIG    1        3.060  -2.798  -3.497  0.00  0.00    +0.030 A 
ATOM     13  C   LIG    1        3.669  -3.346  -2.377  0.00  0.00    +0.019 A 
ATOM     14  C   LIG    1        3.418  -2.827  -1.105  0.00  0.00    +0.034 A 
ENDROOT
BRANCH  11  15
ATOM     15  S   LIG    1        1.410  -1.018  -4.802  0.00  0.00    +0.060 S 
ATOM     16  O   LIG    1        1.140  -2.135  -5.716  0.00  0.00    -0.153 OA
ATOM     17  O   LIG    1        0.310  -0.157  -4.352  0.00  0.00    -0.153 OA
BRANCH  15  18
ATOM     18  N   LIG    1        2.648   0.010  -5.543  0.00  0.00    -0.183 NA
ATOM     19  C   LIG    1        3.109   1.166  -4.747  0.00  0.00    +0.131 C 
ATOM     20  C   LIG    1        2.510   0.259  -6.993  0.00  0.00    +0.131 C 
ENDBRANCH  15  18
ENDBRANCH  11  15
BRANCH   8  21
ATOM     21  C   LIG    1        1.686   0.127   0.491  0.00  0.00    +0.112 C 
BRANCH  21  22
ATOM     22  C   LIG    1        0.153   0.195   0.229  0.00  0.00    +0.035 C 
BRANCH  22  23
ATOM     23  C   LIG    1       -0.411   1.606  -0.030  0.00  0.00    +0.086 C 
BRANCH  23  24
ATOM     24  N   LIG    1        0.148   2.199  -1.251  0.00  0.00    -0.302 NA
ATOM     25  C   LIG    1       -0.897   2.481  -2.250  0.00  0.00    +0.084 C 
ATOM     26  C   LIG    1       -0.326   3.127  -3.531  0.00  0.00    +0.019 C 
ATOM     27  C   LIG    1        0.492   4.392  -3.220  0.00  0.00    -0.006 C 
ATOM     28  C   LIG    1        1.603   3.976  -2.236  0.00  0.00    +0.019 C 
ATOM     29  C   LIG    1        1.013   3.353  -0.954  0.00  0.00    +0.084 C 
BRANCH  27  30
ATOM     30  C   LIG    1        1.020   5.067  -4.511  0.00  0.00    +0.031 C 
BRANCH  30  31
ATOM     31  C   LIG    1        1.785   6.392  -4.320  0.00  0.00    +0.156 C 
BRANCH  31  32
ATOM     32  O   LIG    1        0.987   7.344  -3.647  0.00  0.00    -0.395 OA
ATOM     33  H   LIG    1        0.836   7.035  -2.750  0.00  0.00    +0.209 HD
ENDBRANCH  31  32
ENDBRANCH  30  31
ENDBRANCH  27  30
ENDBRANCH  23  24
ENDBRANCH  22  23
ENDBRANCH  21  22
ENDBRANCH   8  21
TORSDOF 9
