REMARK  Name = DB01328
REMARK                            x       y       z     vdW  Elec       q    Type
REMARK                         _______ _______ _______ _____ _____    ______ ____
ROOT
ATOM      1  S   LIG    1       -1.212  -0.888  -2.508  0.00  0.00    -0.131 S 
ATOM      2  C   LIG    1        0.428  -0.459  -1.823  0.00  0.00    +0.104 C 
ATOM      3  C   LIG    1        0.405   0.704  -0.808  0.00  0.00    -0.021 C 
ATOM      4  CA  LIG    1       -0.723   1.014  -0.096  0.00  0.00    +0.123 C 
ATOM      5  N   LIG    1       -1.882   0.289  -0.200  0.00  0.00    -0.249 N 
ATOM      6  C   LIG    1       -3.219   0.356   0.211  0.00  0.00    +0.244 C 
ATOM      7  O   LIG    1       -3.848   1.093   0.969  0.00  0.00    -0.273 OA
ATOM      8  CA  LIG    1       -3.575  -0.854  -0.718  0.00  0.00    +0.191 C 
ATOM      9  C   LIG    1       -2.036  -1.006  -0.893  0.00  0.00    +0.169 C 
ENDROOT
BRANCH   8  10
ATOM     10  N   LIG    1       -4.369  -0.592  -1.939  0.00  0.00    -0.299 N 
ATOM     11  H   LIG    1       -4.801  -1.419  -2.325  0.00  0.00    +0.150 HD
ATOM     12  C   LIG    1       -4.516   0.535  -2.672  0.00  0.00    +0.247 C 
ATOM     13  O   LIG    1       -3.948   1.596  -2.407  0.00  0.00    -0.273 OA
BRANCH  12  14
ATOM     14  C   LIG    1       -5.436   0.408  -3.912  0.00  0.00    +0.230 C 
BRANCH  14  15
ATOM     15  C   LIG    1       -6.869   0.041  -3.511  0.00  0.00    -0.010 A 
ATOM     16  C   LIG    1       -7.748   1.018  -3.025  0.00  0.00    +0.006 A 
ATOM     17  C   LIG    1       -9.041   0.668  -2.645  0.00  0.00    +0.000 A 
ATOM     18  C   LIG    1       -9.455  -0.658  -2.747  0.00  0.00    +0.000 A 
ATOM     19  C   LIG    1       -8.588  -1.638  -3.223  0.00  0.00    +0.000 A 
ATOM     20  C   LIG    1       -7.295  -1.289  -3.603  0.00  0.00    +0.006 A 
ENDBRANCH  14  15
BRANCH  14  21
ATOM     21  O   LIG    1       -5.376   1.598  -4.686  0.00  0.00    -0.378 OA
ATOM     22  H   LIG    1       -4.460   1.759  -4.926  0.00  0.00    +0.211 HD
ENDBRANCH  14  21
ENDBRANCH  12  14
ENDBRANCH   8  10
BRANCH   4  23
ATOM     23  C   LIG    1       -0.737   2.122   0.845  0.00  0.00    +0.351 C 
ATOM     24  O   LIG    1       -1.455   3.114   0.732  0.00  0.00    -0.244 OA
BRANCH  23  25
ATOM     25  OXT LIG    1        0.093   1.908   1.908  0.00  0.00    -0.476 OA
ATOM     26  HXT LIG    1        0.064   2.626   2.544  0.00  0.00    +0.295 HD
ENDBRANCH  23  25
ENDBRANCH   4  23
BRANCH   3  27
ATOM     27  C   LIG    1        1.725   1.485  -0.736  0.00  0.00    +0.111 C 
BRANCH  27  28
ATOM     28  S   LIG    1        2.931   0.807   0.452  0.00  0.00    -0.080 S 
BRANCH  28  29
ATOM     29  C   LIG    1        3.499  -0.594  -0.456  0.00  0.00    +0.211 A 
ATOM     30  N   LIG    1        3.775  -0.612  -1.739  0.00  0.00    -0.101 NA
ATOM     31  N   LIG    1        4.140  -1.922  -2.034  0.00  0.00    -0.022 NA
ATOM     32  N   LIG    1        4.080  -2.697  -0.894  0.00  0.00    -0.042 NA
ATOM     33  N   LIG    1        3.692  -1.852   0.068  0.00  0.00    -0.196 N 
BRANCH  33  34
ATOM     34  C   LIG    1        3.488  -2.329   1.430  0.00  0.00    +0.345 C 
BRANCH  34  35
ATOM     35  S   LIG    1        1.703  -2.923   1.649  0.00  0.00    +0.100 S 
ATOM     36  O   LIG    1        0.778  -1.850   1.269  0.00  0.00    -0.146 OA
ATOM     37  O   LIG    1        1.580  -3.598   2.945  0.00  0.00    -0.146 OA
BRANCH  35  38
ATOM     38  O   LIG    1        1.676  -4.079   0.457  0.00  0.00    -0.252 OA
ATOM     39  H   LIG    1        1.680  -3.666  -0.428  0.00  0.00    +0.245 HD
ENDBRANCH  35  38
ENDBRANCH  34  35
ENDBRANCH  33  34
ENDBRANCH  28  29
ENDBRANCH  27  28
ENDBRANCH   3  27
TORSDOF 12
