REMARK  Name = DB01041
REMARK                            x       y       z     vdW  Elec       q    Type
REMARK                         _______ _______ _______ _____ _____    ______ ____
ROOT
ATOM      1  N   LIG    1       -0.073  -0.171   0.008  0.00  0.00    -0.222 N 
ATOM      2  C   LIG    1       -0.738   1.019   0.032  0.00  0.00    +0.254 C 
ATOM      3  C   LIG    1       -2.178   0.662   0.017  0.00  0.00    +0.049 A 
ATOM      4  C   LIG    1       -3.320   1.465   0.027  0.00  0.00    +0.014 A 
ATOM      5  C   LIG    1       -4.574   0.846   0.002  0.00  0.00    +0.001 A 
ATOM      6  C   LIG    1       -4.673  -0.551  -0.029  0.00  0.00    +0.001 A 
ATOM      7  C   LIG    1       -3.517  -1.339  -0.036  0.00  0.00    +0.014 A 
ATOM      8  C   LIG    1       -2.275  -0.703  -0.015  0.00  0.00    +0.049 A 
ATOM      9  O   LIG    1       -0.249   2.149   0.058  0.00  0.00    -0.270 OA
ATOM     10  C   LIG    1       -0.898  -1.258  -0.022  0.00  0.00    +0.254 C 
ATOM     11  O   LIG    1       -0.571  -2.445  -0.048  0.00  0.00    -0.270 OA
ENDROOT
BRANCH   1  14
ATOM     12  O   LIG    1        1.363  -0.871   2.387  0.00  0.00    -0.273 OA
ATOM     13  C   LIG    1        1.988  -0.810   1.329  0.00  0.00    +0.240 C 
ATOM     14  C   LIG    1        1.412  -0.247  -0.005  0.00  0.00    +0.171 C 
ATOM     15  C   LIG    1        2.061  -0.972  -1.206  0.00  0.00    +0.041 C 
ATOM     16  C   LIG    1        3.596  -0.856  -1.162  0.00  0.00    +0.098 C 
ATOM     17  C   LIG    1        4.157  -1.275   0.219  0.00  0.00    +0.219 C 
ATOM     18  O   LIG    1        5.321  -1.632   0.386  0.00  0.00    -0.275 OA
ATOM     19  N   LIG    1        3.282  -1.207   1.253  0.00  0.00    -0.255 N 
ATOM     20  H   LIG    1        3.666  -1.519   2.133  0.00  0.00    +0.158 HD
ENDBRANCH   1  14
TORSDOF 1
