REMARK  Name = DB01103
REMARK                            x       y       z     vdW  Elec       q    Type
REMARK                         _______ _______ _______ _____ _____    ______ ____
ROOT
ATOM      1 CL   LIG    1        3.003   2.146  -6.388  0.00  0.00    -0.116 Cl
ATOM      2  C   LIG    1        2.591   2.158  -4.712  0.00  0.00    +0.073 C 
ATOM      3  C   LIG    1        1.256   2.071  -4.327  0.00  0.00    +0.021 C 
ATOM      4  C   LIG    1        0.900   2.066  -2.979  0.00  0.00    +0.009 C 
ATOM      5  C   LIG    1        1.893   2.163  -1.958  0.00  0.00    +0.024 C 
ATOM      6  C   LIG    1        3.248   2.254  -2.385  0.00  0.00    +0.052 C 
ATOM      7  N   LIG    1        4.219   2.347  -1.422  0.00  0.00    -0.300 NA
ATOM      8  H   LIG    1        5.176   2.412  -1.739  0.00  0.00    +0.123 HD
ATOM      9  C   LIG    1        4.007   2.387  -0.069  0.00  0.00    +0.051 C 
ATOM     10  C   LIG    1        5.096   2.517   0.819  0.00  0.00    +0.023 C 
ATOM     11  C   LIG    1        4.854   2.589   2.187  0.00  0.00    +0.036 C 
ATOM     12  C   LIG    1        3.547   2.545   2.693  0.00  0.00    +0.106 C 
ATOM     13  C   LIG    1        2.474   2.413   1.810  0.00  0.00    +0.041 C 
ATOM     14  C   LIG    1        2.665   2.309   0.401  0.00  0.00    +0.027 C 
ATOM     15  C   LIG    1        1.605   2.157  -0.555  0.00  0.00    +0.056 C 
ATOM     16  C   LIG    1        3.597   2.248  -3.754  0.00  0.00    +0.041 C 
ENDROOT
BRANCH  12  17
ATOM     17  O   LIG    1        3.229   2.627   4.036  0.00  0.00    -0.373 OA
ATOM     18  C   LIG    1        4.274   2.768   4.993  0.00  0.00    +0.194 C 
ENDBRANCH  12  17
BRANCH  15  19
ATOM     19  N   LIG    1        0.265   2.006  -0.148  0.00  0.00    -0.305 NA
ATOM     20  H   LIG    1       -0.394   2.239  -0.876  0.00  0.00    +0.123 HD
BRANCH  19  21
ATOM     21  C   LIG    1       -0.131   0.788   0.567  0.00  0.00    +0.051 C 
ATOM     22  C   LIG    1       -1.584   0.919   1.054  0.00  0.00    +0.024 C 
BRANCH  21  23
ATOM     23  C   LIG    1        0.084  -0.523  -0.240  0.00  0.00    +0.016 C 
BRANCH  23  24
ATOM     24  C   LIG    1        1.522  -1.089  -0.196  0.00  0.00    -0.017 C 
BRANCH  24  25
ATOM     25  C   LIG    1        1.661  -2.483  -0.838  0.00  0.00    -0.079 C 
BRANCH  25  26
ATOM     26  N   LIG    1        1.289  -2.464  -2.344  0.00  0.00    +0.379 N 
ATOM     27  H   LIG    1        0.483  -1.862  -2.440  0.00  0.00    -0.082 HD
BRANCH  26  28
ATOM     28  C   LIG    1        0.852  -3.866  -2.844  0.00  0.00    -0.082 C 
ATOM     29  C   LIG    1       -0.568  -4.205  -2.358  0.00  0.00    -0.017 C 
ENDBRANCH  26  28
BRANCH  26  30
ATOM     30  C   LIG    1        2.418  -1.845  -3.209  0.00  0.00    -0.082 C 
ATOM     31  C   LIG    1        1.913  -1.452  -4.608  0.00  0.00    -0.017 C 
ENDBRANCH  26  30
ENDBRANCH  25  26
ENDBRANCH  24  25
ENDBRANCH  23  24
ENDBRANCH  21  23
ENDBRANCH  19  21
ENDBRANCH  15  19
TORSDOF 9
