REMARK  Name = DB01116
REMARK                            x       y       z     vdW  Elec       q    Type
REMARK                         _______ _______ _______ _____ _____    ______ ____
ROOT
ATOM      1  S   LIG    1       -2.452   2.497   1.526  0.00  0.00    -0.201 S 
ATOM      2  C   LIG    1       -2.176   3.209   3.164  0.00  0.00    +0.059 C 
ATOM      3  C   LIG    1       -1.004   2.442   3.811  0.00  0.00    +0.011 C 
ATOM      4  C   LIG    1       -0.459   1.397   2.818  0.00  0.00    +0.016 C 
ATOM      5  C   LIG    1       -3.125   0.870   1.127  0.00  0.00    +0.083 C 
ATOM      6  C   LIG    1       -2.176   0.273   0.073  0.00  0.00    +0.108 C 
ATOM      7  C   LIG    1       -0.785   0.870   0.245  0.00  0.00    +0.111 C 
ATOM      8  N   LIG    1        0.046  -0.313   0.374  0.00  0.00    -0.275 N 
ATOM      9  C   LIG    1       -0.652  -1.433   0.658  0.00  0.00    +0.306 C 
ATOM     10  O   LIG    1       -0.249  -2.480   1.167  0.00  0.00    -0.252 OA
ATOM     11  N   LIG    1       -1.883  -1.148   0.178  0.00  0.00    -0.276 N 
ATOM     12  C   LIG    1       -0.765   1.903   1.397  0.00  0.00    +0.059 C 
ENDROOT
BRANCH   8  13
ATOM     13  C   LIG    1        1.481  -0.326   0.079  0.00  0.00    +0.144 C 
BRANCH  13  14
ATOM     14  C   LIG    1        1.847  -0.901  -1.286  0.00  0.00    -0.030 A 
ATOM     15  C   LIG    1        1.216  -0.445  -2.448  0.00  0.00    +0.005 A 
ATOM     16  C   LIG    1        1.552  -0.992  -3.684  0.00  0.00    +0.000 A 
ATOM     17  C   LIG    1        2.519  -1.992  -3.756  0.00  0.00    +0.000 A 
ATOM     18  C   LIG    1        3.154  -2.448  -2.603  0.00  0.00    +0.000 A 
ATOM     19  C   LIG    1        2.819  -1.902  -1.368  0.00  0.00    +0.005 A 
ENDBRANCH  13  14
ENDBRANCH   8  13
BRANCH  11  20
ATOM     20  C   LIG    1       -2.771  -2.184  -0.357  0.00  0.00    +0.144 C 
BRANCH  20  21
ATOM     21  C   LIG    1       -2.391  -2.703  -1.742  0.00  0.00    -0.030 A 
ATOM     22  C   LIG    1       -2.155  -1.821  -2.802  0.00  0.00    +0.005 A 
ATOM     23  C   LIG    1       -1.800  -2.314  -4.054  0.00  0.00    +0.000 A 
ATOM     24  C   LIG    1       -1.682  -3.688  -4.246  0.00  0.00    +0.000 A 
ATOM     25  C   LIG    1       -1.920  -4.574  -3.198  0.00  0.00    +0.000 A 
ATOM     26  C   LIG    1       -2.276  -4.081  -1.945  0.00  0.00    +0.005 A 
ENDBRANCH  20  21
ENDBRANCH  11  20
TORSDOF 4
