REMARK  Name = DB01089
REMARK                            x       y       z     vdW  Elec       q    Type
REMARK                         _______ _______ _______ _____ _____    ______ ____
ROOT
ATOM      1  C   LIG    1       -2.482  -0.359  -1.536  0.00  0.00    +0.172 C 
ATOM      2  C   LIG    1       -1.895  -1.056  -0.262  0.00  0.00    +0.206 C 
ATOM      3  C   LIG    1       -2.282  -2.546  -0.227  0.00  0.00    +0.052 C 
ATOM      4  C   LIG    1       -1.868  -3.295  -1.509  0.00  0.00    +0.011 C 
ATOM      5  C   LIG    1       -0.369  -3.634  -1.672  0.00  0.00    +0.089 C 
ATOM      6  N   LIG    1       -0.196  -4.631  -2.729  0.00  0.00    -0.293 NA
ATOM      7  C   LIG    1        1.167  -5.180  -2.781  0.00  0.00    +0.090 C 
ATOM      8  C   LIG    1        1.284  -6.408  -3.727  0.00  0.00    +0.053 C 
ATOM      9  C   LIG    1        0.558  -6.133  -5.035  0.00  0.00    -0.016 A 
ATOM     10  C   LIG    1        0.567  -6.811  -6.301  0.00  0.00    +0.003 A 
ATOM     11  C   LIG    1        1.240  -7.936  -6.805  0.00  0.00    +0.010 A 
ATOM     12  C   LIG    1        1.009  -8.327  -8.123  0.00  0.00    +0.001 A 
ATOM     13  C   LIG    1        0.127  -7.624  -8.939  0.00  0.00    +0.002 A 
ATOM     14  C   LIG    1       -0.566  -6.503  -8.482  0.00  0.00    +0.026 A 
ATOM     15  C   LIG    1       -0.336  -6.110  -7.159  0.00  0.00    +0.047 A 
ATOM     16  N   LIG    1       -0.856  -5.068  -6.420  0.00  0.00    -0.356 N 
ATOM     17  H   LIG    1       -1.526  -4.375  -6.721  0.00  0.00    +0.166 HD
ATOM     18  C   LIG    1       -0.330  -5.081  -5.152  0.00  0.00    +0.038 A 
ATOM     19  C   LIG    1       -0.639  -4.091  -4.036  0.00  0.00    +0.104 C 
ATOM     20  C   LIG    1       -2.088  -3.522  -4.031  0.00  0.00    +0.030 C 
ATOM     21  C   LIG    1       -2.476  -2.666  -2.788  0.00  0.00    +0.012 C 
ATOM     22  C   LIG    1       -2.210  -1.119  -2.879  0.00  0.00    +0.133 C 
ENDROOT
BRANCH   1  23
ATOM     23  O   LIG    1       -3.899  -0.200  -1.437  0.00  0.00    -0.375 OA
ATOM     24  C   LIG    1       -4.364   0.770  -0.505  0.00  0.00    +0.194 C 
ENDBRANCH   1  23
BRANCH  22  25
ATOM     25  C   LIG    1       -0.860  -0.728  -3.530  0.00  0.00    +0.313 C 
ATOM     26  O   LIG    1        0.127  -0.392  -2.874  0.00  0.00    -0.250 OA
BRANCH  25  27
ATOM     27  O   LIG    1       -0.924  -0.746  -4.880  0.00  0.00    -0.468 OA
ATOM     28  C   LIG    1        0.217  -0.429  -5.663  0.00  0.00    +0.280 C 
ENDBRANCH  25  27
ENDBRANCH  22  25
BRANCH   2  29
ATOM     29  O   LIG    1       -0.480  -0.924  -0.132  0.00  0.00    -0.455 OA
BRANCH  29  30
ATOM     30  C   LIG    1        0.115   0.219   0.308  0.00  0.00    +0.340 C 
ATOM     31  O   LIG    1       -0.509   1.242   0.603  0.00  0.00    -0.245 OA
BRANCH  30  32
ATOM     32  C   LIG    1        1.612   0.119   0.346  0.00  0.00    +0.066 A 
ATOM     33  C   LIG    1        2.376   1.269   0.583  0.00  0.00    +0.064 A 
ATOM     34  C   LIG    1        3.779   1.217   0.629  0.00  0.00    +0.166 A 
ATOM     35  C   LIG    1        4.417  -0.014   0.433  0.00  0.00    +0.204 A 
ATOM     36  C   LIG    1        3.679  -1.183   0.206  0.00  0.00    +0.166 A 
ATOM     37  C   LIG    1        2.279  -1.101   0.162  0.00  0.00    +0.064 A 
BRANCH  36  38
ATOM     38  O   LIG    1        4.390  -2.358   0.038  0.00  0.00    -0.491 OA
ATOM     39  C   LIG    1        3.688  -3.571  -0.212  0.00  0.00    +0.277 C 
ENDBRANCH  36  38
BRANCH  35  40
ATOM     40  O   LIG    1        5.789  -0.081   0.492  0.00  0.00    -0.488 OA
ATOM     41  C   LIG    1        6.432   0.081  -0.765  0.00  0.00    +0.277 C 
ENDBRANCH  35  40
BRANCH  34  42
ATOM     42  O   LIG    1        4.586   2.317   0.855  0.00  0.00    -0.491 OA
ATOM     43  C   LIG    1        3.991   3.596   1.047  0.00  0.00    +0.277 C 
ENDBRANCH  34  42
ENDBRANCH  30  32
ENDBRANCH  29  30
ENDBRANCH   2  29
TORSDOF 9
