REMARK  Name = DB01168
REMARK                            x       y       z     vdW  Elec       q    Type
REMARK                         _______ _______ _______ _____ _____    ______ ____
ROOT
ATOM      1  C   LIG    1       -2.792   0.252  -0.410  0.00  0.00    +0.037 A 
ATOM      2  C   LIG    1       -1.982  -0.775   0.100  0.00  0.00    +0.013 A 
ATOM      3  C   LIG    1       -0.601  -0.618   0.171  0.00  0.00    +0.005 A 
ATOM      4  C   LIG    1       -0.006   0.572  -0.257  0.00  0.00    -0.032 A 
ATOM      5  C   LIG    1       -0.802   1.595  -0.772  0.00  0.00    +0.005 A 
ATOM      6  C   LIG    1       -2.184   1.439  -0.843  0.00  0.00    +0.013 A 
ENDROOT
BRANCH   1   8
ATOM      7  O   LIG    1       -5.018   1.098  -0.643  0.00  0.00    -0.270 OA
ATOM      8  C   LIG    1       -4.298   0.109  -0.489  0.00  0.00    +0.244 C 
ATOM      9  N   LIG    1       -4.788  -1.144  -0.404  0.00  0.00    -0.309 N 
ATOM     10  H   LIG    1       -4.137  -1.900  -0.251  0.00  0.00    +0.149 HD
BRANCH   9  11
ATOM     11  C   LIG    1       -6.202  -1.520  -0.463  0.00  0.00    +0.067 C 
ATOM     12  C   LIG    1       -6.792  -1.388  -1.881  0.00  0.00    +0.027 C 
ATOM     13  C   LIG    1       -6.406  -2.934   0.106  0.00  0.00    +0.027 C 
ENDBRANCH   9  11
ENDBRANCH   1   8
BRANCH   4  14
ATOM     14  C   LIG    1        1.511   0.762  -0.202  0.00  0.00    +0.133 C 
BRANCH  14  15
ATOM     15  N   LIG    1        2.138   0.255   1.014  0.00  0.00    -0.253 NA
ATOM     16  H   LIG    1        1.992  -0.733   1.166  0.00  0.00    +0.141 HD
BRANCH  15  17
ATOM     17  N   LIG    1        1.715   0.972   2.192  0.00  0.00    -0.259 NA
ATOM     18  H   LIG    1        0.792   0.639   2.434  0.00  0.00    +0.140 HD
ATOM     19  C   LIG    1        2.678   0.820   3.266  0.00  0.00    +0.120 C 
ENDBRANCH  15  17
ENDBRANCH  14  15
ENDBRANCH   4  14
TORSDOF 5
