REMARK  Name = DB01069
REMARK                            x       y       z     vdW  Elec       q    Type
REMARK                         _______ _______ _______ _____ _____    ______ ____
ROOT
ATOM      1  S   LIG    1        1.172   0.554  -5.423  0.00  0.00    -0.086 S 
ATOM      2  C   LIG    1        0.028  -0.300  -4.402  0.00  0.00    +0.034 A 
ATOM      3  C   LIG    1       -1.196  -0.667  -4.967  0.00  0.00    +0.017 A 
ATOM      4  C   LIG    1       -2.133  -1.379  -4.226  0.00  0.00    +0.001 A 
ATOM      5  C   LIG    1       -1.842  -1.736  -2.916  0.00  0.00    +0.002 A 
ATOM      6  C   LIG    1       -0.614  -1.391  -2.358  0.00  0.00    +0.024 A 
ATOM      7  C   LIG    1        0.373  -0.700  -3.091  0.00  0.00    +0.048 A 
ATOM      8  N   LIG    1        1.581  -0.260  -2.499  0.00  0.00    -0.297 N 
ATOM      9  C   LIG    1        2.226   0.936  -2.894  0.00  0.00    +0.048 A 
ATOM     10  C   LIG    1        2.926   1.750  -1.980  0.00  0.00    +0.024 A 
ATOM     11  C   LIG    1        3.477   2.974  -2.352  0.00  0.00    +0.002 A 
ATOM     12  C   LIG    1        3.322   3.438  -3.651  0.00  0.00    +0.001 A 
ATOM     13  C   LIG    1        2.603   2.681  -4.568  0.00  0.00    +0.017 A 
ATOM     14  C   LIG    1        2.031   1.463  -4.191  0.00  0.00    +0.034 A 
ENDROOT
BRANCH   8  15
ATOM     15  C   LIG    1        2.019  -0.932  -1.254  0.00  0.00    +0.129 C 
BRANCH  15  16
ATOM     16  C   LIG    1        1.603  -0.438   0.187  0.00  0.00    +0.071 C 
ATOM     17  C   LIG    1        1.886  -1.633   1.136  0.00  0.00    +0.026 C 
BRANCH  16  18
ATOM     18  N   LIG    1        0.214   0.073   0.338  0.00  0.00    -0.304 NA
ATOM     19  C   LIG    1       -0.263   0.155   1.723  0.00  0.00    +0.104 C 
ATOM     20  C   LIG    1        0.037   1.411  -0.234  0.00  0.00    +0.104 C 
ENDBRANCH  16  18
ENDBRANCH  15  16
ENDBRANCH   8  15
TORSDOF 3
