REMARK  Name = DB01227
REMARK                            x       y       z     vdW  Elec       q    Type
REMARK                         _______ _______ _______ _____ _____    ______ ____
ROOT
ATOM      1  C   LIG    1       -0.286   0.115   0.048  0.00  0.00    +0.059 C 
ENDROOT
BRANCH   1   2
ATOM      2  C   LIG    1       -0.706   1.621   0.077  0.00  0.00    -0.033 A 
ATOM      3  C   LIG    1       -1.193   2.298  -1.055  0.00  0.00    +0.004 A 
ATOM      4  C   LIG    1       -1.517   3.651  -0.997  0.00  0.00    +0.000 A 
ATOM      5  C   LIG    1       -1.341   4.354   0.190  0.00  0.00    +0.000 A 
ATOM      6  C   LIG    1       -0.833   3.717   1.316  0.00  0.00    +0.000 A 
ATOM      7  C   LIG    1       -0.511   2.365   1.255  0.00  0.00    +0.004 A 
ENDBRANCH   1   2
BRANCH   1   8
ATOM      8  C   LIG    1       -0.795  -0.647   1.321  0.00  0.00    -0.033 A 
ATOM      9  C   LIG    1       -0.102  -1.754   1.844  0.00  0.00    +0.004 A 
ATOM     10  C   LIG    1       -0.574  -2.436   2.962  0.00  0.00    +0.000 A 
ATOM     11  C   LIG    1       -1.755  -2.031   3.572  0.00  0.00    +0.000 A 
ATOM     12  C   LIG    1       -2.471  -0.952   3.067  0.00  0.00    +0.000 A 
ATOM     13  C   LIG    1       -1.997  -0.273   1.949  0.00  0.00    +0.004 A 
ENDBRANCH   1   8
BRANCH   1  14
ATOM     14  C   LIG    1       -0.823  -0.680  -1.223  0.00  0.00    +0.191 C 
BRANCH  14  15
ATOM     15  C   LIG    1       -2.330  -1.102  -1.260  0.00  0.00    +0.042 C 
ATOM     16  C   LIG    1       -3.374   0.015  -1.389  0.00  0.00    +0.007 C 
ENDBRANCH  14  15
BRANCH  14  17
ATOM     17  O   LIG    1       -0.069  -1.895  -1.364  0.00  0.00    -0.460 OA
BRANCH  17  18
ATOM     18  C   LIG    1        0.249  -2.418  -2.572  0.00  0.00    +0.304 C 
ATOM     19  C   LIG    1        1.060  -3.701  -2.447  0.00  0.00    +0.136 C 
ATOM     20  O   LIG    1       -0.049  -1.951  -3.672  0.00  0.00    -0.251 OA
ENDBRANCH  17  18
ENDBRANCH  14  17
ENDBRANCH   1  14
BRANCH   1  21
ATOM     21  C   LIG    1        1.300   0.142   0.013  0.00  0.00    +0.038 C 
BRANCH  21  22
ATOM     22  C   LIG    1        2.005   0.828  -1.202  0.00  0.00    +0.054 C 
ATOM     23  C   LIG    1        3.388   0.195  -1.500  0.00  0.00    +0.024 C 
BRANCH  22  24
ATOM     24  N   LIG    1        2.053   2.299  -1.083  0.00  0.00    -0.306 NA
ATOM     25  C   LIG    1        2.263   2.968  -2.365  0.00  0.00    +0.104 C 
ATOM     26  C   LIG    1        2.995   2.818  -0.090  0.00  0.00    +0.104 C 
ENDBRANCH  22  24
ENDBRANCH  21  22
ENDBRANCH   1  21
TORSDOF 9
