REMARK  Name = DB01606
REMARK                            x       y       z     vdW  Elec       q    Type
REMARK                         _______ _______ _______ _____ _____    ______ ____
ROOT
ATOM      1  S   LIG    1       -0.539   1.794   0.061  0.00  0.00    -0.002 S 
ATOM      2  C   LIG    1       -2.237   1.448   0.784  0.00  0.00    +0.229 C 
ATOM      3  C   LIG    1       -2.613   2.167   2.099  0.00  0.00    +0.142 C 
ATOM      4  C   LIG    1       -2.130   0.868   2.800  0.00  0.00    +0.221 C 
ATOM      5  O   LIG    1       -2.007   0.498   3.966  0.00  0.00    -0.275 OA
ATOM      6  N   LIG    1       -1.902   0.248   1.571  0.00  0.00    -0.263 N 
ATOM      7  C   LIG    1       -0.813  -0.671   1.197  0.00  0.00    +0.215 C 
ATOM      8  C   LIG    1       -0.072  -0.054  -0.058  0.00  0.00    +0.135 C 
ATOM      9  C   LIG    1       -0.602  -0.564  -1.427  0.00  0.00    +0.040 C 
ATOM     10  O   LIG    1       -0.664   2.386  -1.276  0.00  0.00    -0.172 OA
ATOM     11  O   LIG    1        0.301   2.457   1.066  0.00  0.00    -0.172 OA
ENDROOT
BRANCH   7  12
ATOM     12  C   LIG    1       -1.219  -2.165   1.066  0.00  0.00    +0.328 C 
ATOM     13  O   LIG    1       -0.420  -3.055   0.874  0.00  0.00    -0.249 OA
BRANCH  12  14
ATOM     14  O   LIG    1       -2.566  -2.355   1.193  0.00  0.00    -0.479 OA
ATOM     15  H   LIG    1       -2.812  -3.280   1.115  0.00  0.00    +0.295 HD
ENDBRANCH  12  14
ENDBRANCH   7  12
BRANCH   8  16
ATOM     16  C   LIG    1        1.485  -0.110   0.029  0.00  0.00    +0.177 C 
BRANCH  16  17
ATOM     17  N   LIG    1        2.051  -1.454   0.056  0.00  0.00    -0.250 N 
ATOM     18  C   LIG    1        2.564  -2.139   1.129  0.00  0.00    +0.130 A 
ATOM     19  C   LIG    1        2.975  -3.349   0.594  0.00  0.00    +0.156 A 
ATOM     20  N   LIG    1        2.734  -3.385  -0.704  0.00  0.00    -0.138 NA
ATOM     21  N   LIG    1        2.151  -2.182  -1.064  0.00  0.00    -0.066 NA
ENDBRANCH  16  17
ENDBRANCH   8  16
TORSDOF 4
