REMARK  Name = DB01613
REMARK                            x       y       z     vdW  Elec       q    Type
REMARK                         _______ _______ _______ _____ _____    ______ ____
ROOT
ATOM      1  C   LIG    1       -0.226   0.013  -0.042  0.00  0.00    +0.295 C 
ENDROOT
BRANCH   1   2
ATOM      2  C   LIG    1       -0.842   1.431  -0.073  0.00  0.00    +0.318 C 
BRANCH   2   3
ATOM      3  O   LIG    1       -2.276   1.379  -0.092  0.00  0.00    -0.350 OA
BRANCH   3   4
ATOM      4  N   LIG    1       -2.869   1.118  -1.371  0.00  0.00    +0.171 N 
ATOM      5  O   LIG    1       -4.071   1.042  -1.312  0.00  0.00    -0.094 OA
BRANCH   4   6
ATOM      6  O   LIG    1       -2.133   1.016  -2.328  0.00  0.00    -0.370 OA
ATOM      7  H   LIG    1       -1.207   1.100  -2.217  0.00  0.00    +0.332 HD
ENDBRANCH   4   6
ENDBRANCH   3   4
ENDBRANCH   2   3
ENDBRANCH   1   2
BRANCH   1   8
ATOM      8  C   LIG    1        1.328   0.032  -0.094  0.00  0.00    +0.295 C 
BRANCH   8   9
ATOM      9  C   LIG    1        2.009   0.644   1.155  0.00  0.00    +0.318 C 
BRANCH   9  10
ATOM     10  O   LIG    1        1.693  -0.129   2.318  0.00  0.00    -0.350 OA
BRANCH  10  11
ATOM     11  N   LIG    1        2.242   0.374   3.540  0.00  0.00    +0.171 N 
ATOM     12  O   LIG    1        2.921   1.375   3.485  0.00  0.00    -0.094 OA
BRANCH  11  13
ATOM     13  O   LIG    1        1.936  -0.302   4.492  0.00  0.00    -0.370 OA
ATOM     14  H   LIG    1        1.396  -1.058   4.376  0.00  0.00    +0.332 HD
ENDBRANCH  11  13
ENDBRANCH  10  11
ENDBRANCH   9  10
ENDBRANCH   8   9
BRANCH   8  15
ATOM     15  O   LIG    1        1.776  -1.321  -0.276  0.00  0.00    -0.344 OA
BRANCH  15  16
ATOM     16  N   LIG    1        3.072  -1.485  -0.866  0.00  0.00    +0.171 N 
ATOM     17  O   LIG    1        3.390  -2.646  -0.954  0.00  0.00    -0.094 OA
BRANCH  16  18
ATOM     18  O   LIG    1        3.674  -0.491  -1.204  0.00  0.00    -0.370 OA
ATOM     19  H   LIG    1        3.294   0.355  -1.070  0.00  0.00    +0.332 HD
ENDBRANCH  16  18
ENDBRANCH  15  16
ENDBRANCH   8  15
ENDBRANCH   1   8
BRANCH   1  20
ATOM     20  O   LIG    1       -0.706  -0.600   1.167  0.00  0.00    -0.344 OA
BRANCH  20  21
ATOM     21  N   LIG    1       -0.879  -2.022   1.135  0.00  0.00    +0.171 N 
ATOM     22  O   LIG    1       -1.222  -2.463   2.204  0.00  0.00    -0.094 OA
BRANCH  21  23
ATOM     23  O   LIG    1       -0.686  -2.597   0.088  0.00  0.00    -0.370 OA
ATOM     24  H   LIG    1       -0.419  -2.115  -0.670  0.00  0.00    +0.332 HD
ENDBRANCH  21  23
ENDBRANCH  20  21
ENDBRANCH   1  20
TORSDOF 15
