REMARK  Name = DB01157
REMARK                            x       y       z     vdW  Elec       q    Type
REMARK                         _______ _______ _______ _____ _____    ______ ____
ROOT
ATOM      1  C   LIG    1       -2.267   0.949   0.023  0.00  0.00    -0.027 A 
ATOM      2  C   LIG    1       -2.990   0.801   1.204  0.00  0.00    +0.007 A 
ATOM      3  C   LIG    1       -4.351   0.546   1.190  0.00  0.00    +0.029 A 
ATOM      4  C   LIG    1       -5.042   0.438  -0.033  0.00  0.00    +0.078 A 
ATOM      5  C   LIG    1       -4.337   0.588  -1.275  0.00  0.00    +0.043 A 
ATOM      6  C   LIG    1       -5.179   0.463  -2.440  0.00  0.00    +0.129 A 
ATOM      7  N   LIG    1       -6.509   0.221  -2.372  0.00  0.00    -0.199 NA
ATOM      8  C   LIG    1       -7.045   0.098  -1.142  0.00  0.00    +0.215 A 
ATOM      9  N   LIG    1       -6.381   0.194   0.029  0.00  0.00    -0.215 NA
ATOM     10  C   LIG    1       -2.913   0.842  -1.228  0.00  0.00    -0.033 A 
ATOM     11  C   LIG    1       -2.117   0.989  -2.528  0.00  0.00    +0.045 C 
ENDROOT
BRANCH   6  12
ATOM     12  N   LIG    1       -4.728   0.583  -3.753  0.00  0.00    -0.343 N 
ATOM     13  H   LIG    1       -5.389   0.485  -4.510  0.00  0.00    +0.144 HD
ATOM     14  H   LIG    1       -3.751   0.765  -3.931  0.00  0.00    +0.144 HD
ENDBRANCH   6  12
BRANCH   8  15
ATOM     15  N   LIG    1       -8.411  -0.152  -1.072  0.00  0.00    -0.327 N 
ATOM     16  H   LIG    1       -8.849  -0.253  -0.168  0.00  0.00    +0.145 HD
ATOM     17  H   LIG    1       -8.944  -0.227  -1.926  0.00  0.00    +0.145 HD
ENDBRANCH   8  15
BRANCH   1  18
ATOM     18  C   LIG    1       -0.777   1.252   0.159  0.00  0.00    +0.137 C 
BRANCH  18  19
ATOM     19  N   LIG    1        0.014   0.049  -0.074  0.00  0.00    -0.340 N 
ATOM     20  H   LIG    1       -0.430  -0.836   0.126  0.00  0.00    +0.146 HD
BRANCH  19  25
ATOM     21  C   LIG    1        3.495  -1.200  -0.017  0.00  0.00    +0.167 A 
ATOM     22  C   LIG    1        4.219  -0.001  -0.009  0.00  0.00    +0.204 A 
ATOM     23  C   LIG    1        3.564   1.238  -0.008  0.00  0.00    +0.167 A 
ATOM     24  C   LIG    1        2.161   1.264  -0.032  0.00  0.00    +0.072 A 
ATOM     25  C   LIG    1        1.419   0.077  -0.049  0.00  0.00    +0.035 A 
ATOM     26  C   LIG    1        2.092  -1.144  -0.043  0.00  0.00    +0.072 A 
BRANCH  21  27
ATOM     27  O   LIG    1        4.222  -2.376   0.002  0.00  0.00    -0.491 OA
ATOM     28  C   LIG    1        3.537  -3.623   0.013  0.00  0.00    +0.277 C 
ENDBRANCH  21  27
BRANCH  23  29
ATOM     29  O   LIG    1        4.359   2.371   0.016  0.00  0.00    -0.491 OA
ATOM     30  C   LIG    1        3.746   3.656   0.022  0.00  0.00    +0.277 C 
ENDBRANCH  23  29
BRANCH  22  31
ATOM     31  O   LIG    1        5.593  -0.040   0.029  0.00  0.00    -0.488 OA
ATOM     32  C   LIG    1        6.208  -0.051  -1.252  0.00  0.00    +0.277 C 
ENDBRANCH  22  31
ENDBRANCH  19  25
ENDBRANCH  18  19
ENDBRANCH   1  18
TORSDOF 8
