REMARK  Name = DB01110
REMARK                            x       y       z     vdW  Elec       q    Type
REMARK                         _______ _______ _______ _____ _____    ______ ____
ROOT
ATOM      1  C   LIG    1        1.389   0.036   0.075  0.00  0.00    +0.170 C 
ENDROOT
BRANCH   1   9
ATOM      2 CL   LIG    1        4.133   1.523   0.050  0.00  0.00    -0.083 Cl
ATOM      3  C   LIG    1        3.211   1.179   1.474  0.00  0.00    +0.048 A 
ATOM      4  C   LIG    1        3.726   1.587   2.706  0.00  0.00    +0.040 A 
ATOM      5  C   LIG    1        3.030   1.323   3.885  0.00  0.00    +0.042 A 
ATOM      6  C   LIG    1        1.815   0.643   3.835  0.00  0.00    +0.020 A 
ATOM      7  C   LIG    1        1.296   0.233   2.609  0.00  0.00    +0.009 A 
ATOM      8 CL   LIG    1        3.674   1.832   5.402  0.00  0.00    -0.083 Cl
ATOM      9  C   LIG    1        1.979   0.501   1.414  0.00  0.00    +0.001 A 
ENDBRANCH   1   9
BRANCH   1  10
ATOM     10  C   LIG    1        1.907  -1.369  -0.303  0.00  0.00    +0.159 C 
BRANCH  10  11
ATOM     11  N   LIG    1        1.408  -1.783  -1.607  0.00  0.00    -0.334 N 
ATOM     12  C   LIG    1        1.957  -1.519  -2.838  0.00  0.00    +0.199 A 
ATOM     13  N   LIG    1        1.263  -2.010  -3.837  0.00  0.00    -0.244 NA
ATOM     14  C   LIG    1        0.231  -2.606  -3.265  0.00  0.00    +0.130 A 
ATOM     15  C   LIG    1        0.267  -2.491  -1.883  0.00  0.00    +0.107 A 
ENDBRANCH  10  11
ENDBRANCH   1  10
BRANCH   1  16
ATOM     16  O   LIG    1       -0.040   0.007   0.109  0.00  0.00    -0.366 OA
BRANCH  16  17
ATOM     17  C   LIG    1       -0.682   1.278   0.101  0.00  0.00    +0.197 C 
BRANCH  17  18
ATOM     18  C   LIG    1       -2.187   1.068   0.008  0.00  0.00    -0.004 A 
ATOM     19  C   LIG    1       -2.983   1.306   1.133  0.00  0.00    +0.009 A 
ATOM     20  C   LIG    1       -4.364   1.116   1.076  0.00  0.00    +0.020 A 
ATOM     21  C   LIG    1       -4.960   0.686  -0.109  0.00  0.00    +0.042 A 
ATOM     22  C   LIG    1       -4.174   0.447  -1.236  0.00  0.00    +0.040 A 
ATOM     23 CL   LIG    1       -6.668   0.450  -0.180  0.00  0.00    -0.083 Cl
ATOM     24  C   LIG    1       -2.791   0.636  -1.185  0.00  0.00    +0.048 A 
ATOM     25 CL   LIG    1       -1.860   0.330  -2.611  0.00  0.00    -0.083 Cl
ENDBRANCH  17  18
ENDBRANCH  16  17
ENDBRANCH   1  16
TORSDOF 6
