REMARK  Name = DB01154
REMARK                            x       y       z     vdW  Elec       q    Type
REMARK                         _______ _______ _______ _____ _____    ______ ____
ROOT
ATOM      1  S   LIG    1       -2.271  -4.088   0.350  0.00  0.00    -0.018 S 
ATOM      2  C   LIG    1       -1.489  -2.635   0.195  0.00  0.00    +0.143 C 
ATOM      3  N   LIG    1       -1.077  -1.942   1.295  0.00  0.00    -0.267 N 
ATOM      4  H   LIG    1       -1.323  -2.378   2.172  0.00  0.00    +0.157 HD
ATOM      5  C   LIG    1       -0.427  -0.757   1.335  0.00  0.00    +0.234 C 
ATOM      6  C   LIG    1       -0.043  -0.162  -0.078  0.00  0.00    +0.129 C 
ATOM      7  C   LIG    1       -0.651  -0.919  -1.324  0.00  0.00    +0.234 C 
ATOM      8  O   LIG    1       -0.596  -0.506  -2.482  0.00  0.00    -0.274 OA
ATOM      9  O   LIG    1       -0.154  -0.219   2.408  0.00  0.00    -0.274 OA
ATOM     10  N   LIG    1       -1.251  -2.095  -1.035  0.00  0.00    -0.267 N 
ATOM     11  H   LIG    1       -1.631  -2.634  -1.800  0.00  0.00    +0.157 HD
ENDROOT
BRANCH   6  12
ATOM     12  C   LIG    1        1.545  -0.223  -0.172  0.00  0.00    +0.010 C 
ATOM     13  C   LIG    1        2.136  -1.663  -0.217  0.00  0.00    +0.009 C 
BRANCH  12  14
ATOM     14  C   LIG    1        2.162   0.669  -1.293  0.00  0.00    +0.004 C 
BRANCH  14  15
ATOM     15  C   LIG    1        3.697   0.821  -1.243  0.00  0.00    -0.003 C 
ATOM     16  C   LIG    1        4.229   1.825  -2.276  0.00  0.00    +0.004 C 
ENDBRANCH  14  15
ENDBRANCH  12  14
ENDBRANCH   6  12
BRANCH   6  17
ATOM     17  C   LIG    1       -0.658   1.289  -0.101  0.00  0.00    +0.052 C 
BRANCH  17  18
ATOM     18  C   LIG    1       -2.168   1.423   0.091  0.00  0.00    -0.033 C 
ATOM     19  C   LIG    1       -2.757   2.028   1.134  0.00  0.00    +0.004 C 
ENDBRANCH  17  18
ENDBRANCH   6  17
TORSDOF 5
