REMARK  Name = DB01031
REMARK                            x       y       z     vdW  Elec       q    Type
REMARK                         _______ _______ _______ _____ _____    ______ ____
ROOT
ATOM      1  C   LIG    1        1.450   0.107  -0.055  0.00  0.00    +0.174 C 
ATOM      2  C   LIG    1        1.854  -1.349  -0.435  0.00  0.00    +0.061 C 
ATOM      3  C   LIG    1        1.450  -2.382   0.639  0.00  0.00    +0.005 C 
ATOM      4  C   LIG    1        1.995  -2.011   2.031  0.00  0.00    +0.000 C 
ATOM      5  C   LIG    1        1.625  -0.571   2.433  0.00  0.00    +0.005 C 
ATOM      6  C   LIG    1        2.036   0.451   1.351  0.00  0.00    +0.061 C 
ENDROOT
BRANCH   1   7
ATOM      7  C   LIG    1        2.020   1.028  -1.078  0.00  0.00    -0.058 C 
ATOM      8  C   LIG    1        2.484   1.793  -1.910  0.00  0.00    +0.008 C 
ENDBRANCH   1   7
BRANCH   1   9
ATOM      9  O   LIG    1        0.002   0.144  -0.073  0.00  0.00    -0.431 OA
BRANCH   9  10
ATOM     10  C   LIG    1       -0.782   1.238   0.164  0.00  0.00    +0.399 C 
ATOM     11  N   LIG    1       -2.106   0.882   0.040  0.00  0.00    -0.295 N 
ATOM     12  H   LIG    1       -2.343  -0.070  -0.195  0.00  0.00    +0.148 HD
ATOM     13  H   LIG    1       -2.820   1.581   0.185  0.00  0.00    +0.148 HD
ATOM     14  O   LIG    1       -0.379   2.365   0.447  0.00  0.00    -0.227 OA
ENDBRANCH   9  10
ENDBRANCH   1   9
TORSDOF 3
