REMARK  Name = DB01100
REMARK                            x       y       z     vdW  Elec       q    Type
REMARK                         _______ _______ _______ _____ _____    ______ ____
ROOT
ATOM      1  C   LIG    1        0.011   1.870   0.360  0.00  0.00    +0.084 C 
ENDROOT
BRANCH   1   2
ATOM      2  N   LIG    1        0.496   2.644  -0.790  0.00  0.00    -0.302 NA
ATOM      3  C   LIG    1       -0.201   2.316  -2.041  0.00  0.00    +0.086 C 
ATOM      4  C   LIG    1        0.394   3.067  -3.248  0.00  0.00    +0.040 C 
ATOM      5  C   LIG    1        0.485   4.595  -3.032  0.00  0.00    +0.095 C 
ATOM      6  C   LIG    1        1.054   4.926  -1.634  0.00  0.00    +0.040 C 
ATOM      7  C   LIG    1        0.429   4.082  -0.505  0.00  0.00    +0.086 C 
BRANCH   5   8
ATOM      8  N   LIG    1        1.052   5.368  -4.149  0.00  0.00    -0.289 N 
ATOM      9  C   LIG    1        2.345   5.243  -4.564  0.00  0.00    +0.328 A 
ATOM     10  N   LIG    1        2.464   6.112  -5.590  0.00  0.00    -0.306 N 
ATOM     11  H   LIG    1        3.317   6.251  -6.113  0.00  0.00    +0.170 HD
ATOM     12  C   LIG    1        1.289   6.778  -5.830  0.00  0.00    +0.067 A 
ATOM     13  C   LIG    1        0.942   7.750  -6.768  0.00  0.00    +0.028 A 
ATOM     14  C   LIG    1       -0.367   8.244  -6.757  0.00  0.00    +0.002 A 
ATOM     15  C   LIG    1       -1.296   7.767  -5.823  0.00  0.00    +0.002 A 
ATOM     16  C   LIG    1       -0.925   6.791  -4.891  0.00  0.00    +0.028 A 
ATOM     17  O   LIG    1        3.227   4.510  -4.119  0.00  0.00    -0.247 OA
ATOM     18  C   LIG    1        0.386   6.309  -4.916  0.00  0.00    +0.070 A 
ENDBRANCH   5   8
ENDBRANCH   1   2
BRANCH   1  19
ATOM     19  C   LIG    1        0.281   0.353   0.250  0.00  0.00    +0.016 C 
BRANCH  19  20
ATOM     20  C   LIG    1        1.771  -0.020   0.079  0.00  0.00    +0.014 C 
BRANCH  20  21
ATOM     21  C   LIG    1        2.026  -1.541  -0.103  0.00  0.00    +0.049 C 
BRANCH  21  26
ATOM     22  F   LIG    1        7.524  -2.914   0.167  0.00  0.00    -0.205 F 
ATOM     23  C   LIG    1        6.214  -2.585   0.098  0.00  0.00    +0.123 A 
ATOM     24  C   LIG    1        5.804  -1.554  -0.744  0.00  0.00    +0.038 A 
ATOM     25  C   LIG    1        4.455  -1.216  -0.816  0.00  0.00    +0.007 A 
ATOM     26  C   LIG    1        3.512  -1.911  -0.047  0.00  0.00    -0.040 A 
ATOM     27  C   LIG    1        3.937  -2.942   0.799  0.00  0.00    +0.007 A 
ATOM     28  C   LIG    1        5.286  -3.280   0.869  0.00  0.00    +0.038 A 
ENDBRANCH  21  26
BRANCH  21  29
ATOM     29  C   LIG    1        1.342  -2.142  -1.338  0.00  0.00    -0.040 A 
ATOM     30  C   LIG    1        1.435  -1.517  -2.588  0.00  0.00    +0.007 A 
ATOM     31  C   LIG    1        0.789  -2.062  -3.694  0.00  0.00    +0.038 A 
ATOM     32  C   LIG    1        0.047  -3.232  -3.553  0.00  0.00    +0.123 A 
ATOM     33  C   LIG    1       -0.055  -3.861  -2.314  0.00  0.00    +0.038 A 
ATOM     34  F   LIG    1       -0.580  -3.762  -4.628  0.00  0.00    -0.205 F 
ATOM     35  C   LIG    1        0.590  -3.315  -1.208  0.00  0.00    +0.007 A 
ENDBRANCH  21  29
ENDBRANCH  20  21
ENDBRANCH  19  20
ENDBRANCH   1  19
TORSDOF 7
