REMARK  Name = DB01032
REMARK                            x       y       z     vdW  Elec       q    Type
REMARK                         _______ _______ _______ _____ _____    ______ ____
ROOT
ATOM      1  S   LIG    1       -0.173  -0.091   0.467  0.00  0.00    +0.061 S 
ATOM      2  O   LIG    1       -0.777  -0.475   1.748  0.00  0.00    -0.153 OA
ATOM      3  O   LIG    1       -0.561  -0.784  -0.768  0.00  0.00    -0.153 OA
ENDROOT
BRANCH   1   4
ATOM      4  C   LIG    1       -0.497   1.652   0.208  0.00  0.00    +0.106 A 
ATOM      5  C   LIG    1       -0.379   2.193  -1.072  0.00  0.00    +0.029 A 
ATOM      6  C   LIG    1       -0.596   3.553  -1.272  0.00  0.00    +0.017 A 
ATOM      7  C   LIG    1       -0.929   4.387  -0.195  0.00  0.00    +0.059 A 
ATOM      8  C   LIG    1       -1.045   3.830   1.087  0.00  0.00    +0.017 A 
ATOM      9  C   LIG    1       -0.830   2.469   1.288  0.00  0.00    +0.029 A 
BRANCH   7  10
ATOM     10  C   LIG    1       -1.153   5.864  -0.429  0.00  0.00    +0.337 C 
ATOM     11  O   LIG    1       -1.064   6.374  -1.546  0.00  0.00    -0.245 OA
BRANCH  10  12
ATOM     12  O   LIG    1       -1.458   6.589   0.688  0.00  0.00    -0.477 OA
ATOM     13  H   LIG    1       -1.590   7.519   0.490  0.00  0.00    +0.295 HD
ENDBRANCH  10  12
ENDBRANCH   7  10
ENDBRANCH   1   4
BRANCH   1  14
ATOM     14  N   LIG    1        1.589  -0.204   0.641  0.00  0.00    -0.177 NA
BRANCH  14  15
ATOM     15  C   LIG    1        2.213   0.556   1.755  0.00  0.00    +0.109 C 
BRANCH  15  16
ATOM     16  C   LIG    1        2.912   1.827   1.239  0.00  0.00    +0.014 C 
ATOM     17  C   LIG    1        3.553   2.642   2.369  0.00  0.00    +0.005 C 
ENDBRANCH  15  16
ENDBRANCH  14  15
BRANCH  14  18
ATOM     18  C   LIG    1        2.240  -1.470   0.216  0.00  0.00    +0.109 C 
BRANCH  18  19
ATOM     19  C   LIG    1        3.656  -1.250  -0.347  0.00  0.00    +0.014 C 
ATOM     20  C   LIG    1        4.281  -2.546  -0.879  0.00  0.00    +0.005 C 
ENDBRANCH  18  19
ENDBRANCH  14  18
ENDBRANCH   1  14
TORSDOF 8
