REMARK  Name = DB01165
REMARK                            x       y       z     vdW  Elec       q    Type
REMARK                         _______ _______ _______ _____ _____    ______ ____
ROOT
ATOM      1  F   LIG    1        1.970   0.810  -2.680  0.00  0.00    -0.203 F 
ATOM      2  C   LIG    1        2.463   0.335  -1.512  0.00  0.00    +0.149 A 
ATOM      3  C   LIG    1        3.848   0.251  -1.378  0.00  0.00    +0.054 A 
ATOM      4  C   LIG    1        4.447  -0.190  -0.191  0.00  0.00    +0.052 A 
ATOM      5  C   LIG    1        5.957  -0.252  -0.080  0.00  0.00    +0.204 A 
ATOM      6  C   LIG    1        6.468  -0.727   1.247  0.00  0.00    +0.122 A 
ATOM      7  C   LIG    1        5.569  -1.067   2.213  0.00  0.00    +0.105 A 
ATOM      8  N   LIG    1        4.197  -1.008   2.076  0.00  0.00    -0.337 N 
ATOM      9  C   LIG    1        3.291  -1.248   3.213  0.00  0.00    +0.122 C 
ATOM     10  C   LIG    1        3.152   0.045   4.044  0.00  0.00    +0.034 C 
ATOM     11  C   LIG    1        1.931  -1.769   2.694  0.00  0.00    +0.254 C 
ATOM     12  O   LIG    1        1.361  -0.834   1.783  0.00  0.00    -0.486 OA
ATOM     13  C   LIG    1        2.201  -0.483   0.741  0.00  0.00    +0.168 A 
ATOM     14  O   LIG    1        6.665   0.076  -1.036  0.00  0.00    -0.286 OA
ATOM     15  C   LIG    1        3.601  -0.552   0.875  0.00  0.00    +0.097 A 
ATOM     16  C   LIG    1        1.611  -0.044  -0.458  0.00  0.00    +0.110 A 
ENDROOT
BRANCH  16  17
ATOM     17  N   LIG    1        0.225   0.084  -0.543  0.00  0.00    -0.322 N 
ATOM     18  C   LIG    1       -0.444   1.130   0.251  0.00  0.00    +0.120 C 
ATOM     19  C   LIG    1       -1.960   0.884   0.436  0.00  0.00    +0.103 C 
ATOM     20  N   LIG    1       -2.620   0.740  -0.861  0.00  0.00    -0.302 NA
ATOM     21  C   LIG    1       -4.053   0.538  -0.676  0.00  0.00    +0.105 C 
ATOM     22  C   LIG    1       -2.032  -0.411  -1.546  0.00  0.00    +0.103 C 
ATOM     23  C   LIG    1       -0.523  -0.178  -1.786  0.00  0.00    +0.120 C 
ENDBRANCH  16  17
BRANCH   6  24
ATOM     24  C   LIG    1        7.907  -0.833   1.509  0.00  0.00    +0.342 C 
ATOM     25  O   LIG    1        8.786  -0.559   0.691  0.00  0.00    -0.245 OA
BRANCH  24  26
ATOM     26  O   LIG    1        8.224  -1.271   2.766  0.00  0.00    -0.477 OA
ATOM     27  H   LIG    1        9.173  -1.326   2.900  0.00  0.00    +0.295 HD
ENDBRANCH  24  26
ENDBRANCH   6  24
TORSDOF 3
