REMARK  Name = DB01411
REMARK                            x       y       z     vdW  Elec       q    Type
REMARK                         _______ _______ _______ _____ _____    ______ ____
ROOT
ATOM      1  N   LIG    1       -3.777   5.463  -0.380  0.00  0.00    -0.279 N 
ATOM      2  H   LIG    1       -4.176   4.537  -0.453  0.00  0.00    +0.155 HD
ATOM      3  C   LIG    1       -2.444   5.507  -0.160  0.00  0.00    +0.248 C 
ATOM      4  O   LIG    1       -1.798   6.547  -0.010  0.00  0.00    -0.270 OA
ENDROOT
BRANCH   1  13
ATOM      5  C   LIG    1       -7.646   4.333  -0.537  0.00  0.00    +0.177 A 
ATOM      6  C   LIG    1       -8.698   5.178  -0.656  0.00  0.00    +0.101 A 
ATOM      7  C   LIG    1       -8.536   6.626  -0.743  0.00  0.00    +0.193 A 
ATOM      8  O   LIG    1       -9.473   7.416  -0.855  0.00  0.00    -0.287 OA
ATOM      9  C   LIG    1       -7.105   7.067  -0.684  0.00  0.00    +0.066 A 
ATOM     10  C   LIG    1       -6.760   8.422  -0.750  0.00  0.00    +0.015 A 
ATOM     11  C   LIG    1       -5.424   8.816  -0.695  0.00  0.00    +0.003 A 
ATOM     12  C   LIG    1       -4.412   7.866  -0.572  0.00  0.00    +0.027 A 
ATOM     13  C   LIG    1       -4.727   6.499  -0.501  0.00  0.00    +0.077 A 
ATOM     14  C   LIG    1       -6.076   6.116  -0.560  0.00  0.00    +0.160 A 
ATOM     15  O   LIG    1       -6.354   4.763  -0.489  0.00  0.00    -0.450 OA
BRANCH   5  16
ATOM     16  C   LIG    1       -7.729   2.864  -0.445  0.00  0.00    +0.215 A 
ATOM     17  N   LIG    1       -6.672   2.084  -0.331  0.00  0.00    -0.105 NA
ATOM     18  N   LIG    1       -7.159   0.801  -0.276  0.00  0.00    -0.023 NA
ATOM     19  N   LIG    1       -8.524   0.872  -0.361  0.00  0.00    -0.046 NA
ATOM     20  N   LIG    1       -8.866   2.199  -0.468  0.00  0.00    -0.236 N 
ATOM     21  H   LIG    1       -9.772   2.575  -0.546  0.00  0.00    +0.192 HD
ENDBRANCH   5  16
ENDBRANCH   1  13
BRANCH   3  22
ATOM     22  C   LIG    1       -1.744   4.161  -0.106  0.00  0.00    +0.037 A 
ATOM     23  C   LIG    1       -2.461   2.952  -0.140  0.00  0.00    +0.016 A 
ATOM     24  C   LIG    1       -1.794   1.732  -0.096  0.00  0.00    +0.046 A 
ATOM     25  C   LIG    1       -0.404   1.683  -0.017  0.00  0.00    +0.121 A 
ATOM     26  C   LIG    1        0.319   2.884   0.025  0.00  0.00    +0.046 A 
ATOM     27  C   LIG    1       -0.346   4.106  -0.019  0.00  0.00    +0.016 A 
BRANCH  25  28
ATOM     28  O   LIG    1        0.170   0.426   0.015  0.00  0.00    -0.492 OA
BRANCH  28  29
ATOM     29  C   LIG    1        1.589   0.307   0.061  0.00  0.00    +0.229 C 
BRANCH  29  30
ATOM     30  C   LIG    1        1.964  -1.181   0.006  0.00  0.00    +0.041 C 
BRANCH  30  31
ATOM     31  C   LIG    1        3.484  -1.416   0.040  0.00  0.00    +0.008 C 
BRANCH  31  32
ATOM     32  C   LIG    1        3.863  -2.905  -0.047  0.00  0.00    +0.035 C 
BRANCH  32  33
ATOM     33  C   LIG    1        5.368  -3.130  -0.018  0.00  0.00    -0.047 A 
ATOM     34  C   LIG    1        6.027  -3.279   1.206  0.00  0.00    +0.003 A 
ATOM     35  C   LIG    1        7.405  -3.482   1.233  0.00  0.00    +0.000 A 
ATOM     36  C   LIG    1        8.118  -3.533   0.038  0.00  0.00    +0.000 A 
ATOM     37  C   LIG    1        7.468  -3.384  -1.185  0.00  0.00    +0.000 A 
ATOM     38  C   LIG    1        6.090  -3.181  -1.214  0.00  0.00    +0.003 A 
ENDBRANCH  32  33
ENDBRANCH  31  32
ENDBRANCH  30  31
ENDBRANCH  29  30
ENDBRANCH  28  29
ENDBRANCH  25  28
ENDBRANCH   3  22
TORSDOF 9
