REMARK  Name = DB01098
REMARK                            x       y       z     vdW  Elec       q    Type
REMARK                         _______ _______ _______ _____ _____    ______ ____
ROOT
ATOM      1  N   LIG    1       -2.370   1.201   0.445  0.00  0.00    -0.212 NA
ATOM      2  C   LIG    1       -1.013   1.264   0.474  0.00  0.00    +0.083 A 
ATOM      3  C   LIG    1       -0.211   0.100   0.423  0.00  0.00    +0.022 A 
ATOM      4  C   LIG    1       -0.908  -1.127   0.370  0.00  0.00    +0.057 A 
ATOM      5  N   LIG    1       -2.269  -1.181   0.341  0.00  0.00    -0.217 NA
ATOM      6  C   LIG    1       -2.967  -0.014   0.376  0.00  0.00    +0.238 A 
ENDROOT
BRANCH   2   7
ATOM      7  C   LIG    1       -0.489   2.653   0.592  0.00  0.00    +0.001 A 
ATOM      8  C   LIG    1       -0.817   3.617  -0.369  0.00  0.00    +0.013 A 
ATOM      9  C   LIG    1       -0.316   4.912  -0.270  0.00  0.00    +0.039 A 
ATOM     10  C   LIG    1        0.511   5.252   0.797  0.00  0.00    +0.123 A 
ATOM     11  F   LIG    1        1.000   6.508   0.895  0.00  0.00    -0.205 F 
ATOM     12  C   LIG    1        0.837   4.307   1.766  0.00  0.00    +0.039 A 
ATOM     13  C   LIG    1        0.338   3.011   1.663  0.00  0.00    +0.013 A 
ENDBRANCH   2   7
BRANCH   4  14
ATOM     14  C   LIG    1       -0.203  -2.493   0.264  0.00  0.00    +0.032 C 
ATOM     15  C   LIG    1       -0.944  -3.645   0.982  0.00  0.00    +0.014 C 
ATOM     16  C   LIG    1        0.087  -2.850  -1.205  0.00  0.00    +0.014 C 
ENDBRANCH   4  14
BRANCH   3  17
ATOM     17  C   LIG    1        1.272   0.136   0.365  0.00  0.00    +0.010 C 
ATOM     18  C   LIG    1        2.015   0.995  -0.358  0.00  0.00    +0.005 C 
BRANCH  18  19
ATOM     19  C   LIG    1        3.534   1.014  -0.387  0.00  0.00    +0.140 C 
BRANCH  19  20
ATOM     20  O   LIG    1        3.926   1.026  -1.744  0.00  0.00    -0.388 OA
ATOM     21  H   LIG    1        3.595   0.228  -2.163  0.00  0.00    +0.210 HD
ENDBRANCH  19  20
BRANCH  19  22
ATOM     22  C   LIG    1        4.151   2.241   0.323  0.00  0.00    +0.067 C 
BRANCH  22  23
ATOM     23  C   LIG    1        4.054   2.210   1.867  0.00  0.00    +0.128 C 
BRANCH  23  24
ATOM     24  O   LIG    1        4.787   1.101   2.361  0.00  0.00    -0.391 OA
ATOM     25  H   LIG    1        5.713   1.222   2.136  0.00  0.00    +0.210 HD
ENDBRANCH  23  24
BRANCH  23  26
ATOM     26  C   LIG    1        4.572   3.525   2.504  0.00  0.00    +0.151 C 
BRANCH  26  27
ATOM     27  C   LIG    1        4.437   3.597   4.032  0.00  0.00    +0.307 C 
ATOM     28  O   LIG    1        5.399   3.740   4.783  0.00  0.00    -0.251 OA
BRANCH  27  29
ATOM     29  O   LIG    1        3.139   3.504   4.439  0.00  0.00    -0.481 OA
ATOM     30  H   LIG    1        3.055   3.554   5.393  0.00  0.00    +0.295 HD
ENDBRANCH  27  29
ENDBRANCH  26  27
ENDBRANCH  23  26
ENDBRANCH  22  23
ENDBRANCH  19  22
ENDBRANCH  18  19
ENDBRANCH   3  17
BRANCH   6  31
ATOM     31  N   LIG    1       -4.387  -0.055   0.352  0.00  0.00    -0.178 N 
ATOM     32  C   LIG    1       -5.036  -1.366   0.253  0.00  0.00    +0.160 C 
BRANCH  31  33
ATOM     33  S   LIG    1       -5.362   1.334  -0.252  0.00  0.00    +0.045 S 
ATOM     34  O   LIG    1       -4.884   2.551   0.414  0.00  0.00    -0.155 OA
ATOM     35  O   LIG    1       -6.779   0.963  -0.178  0.00  0.00    -0.155 OA
ATOM     36  C   LIG    1       -4.852   1.417  -2.067  0.00  0.00    +0.219 C 
ENDBRANCH  31  33
ENDBRANCH   6  31
TORSDOF 13
