REMARK  Name = DB01608
REMARK                            x       y       z     vdW  Elec       q    Type
REMARK                         _______ _______ _______ _____ _____    ______ ____
ROOT
ATOM      1  S   LIG    1        6.237  -2.586   0.160  0.00  0.00    -0.086 S 
ATOM      2  C   LIG    1        5.484  -2.030  -1.327  0.00  0.00    +0.034 A 
ATOM      3  C   LIG    1        6.281  -1.945  -2.471  0.00  0.00    +0.017 A 
ATOM      4  C   LIG    1        5.738  -1.531  -3.681  0.00  0.00    +0.001 A 
ATOM      5  C   LIG    1        4.389  -1.207  -3.752  0.00  0.00    +0.002 A 
ATOM      6  C   LIG    1        3.587  -1.312  -2.618  0.00  0.00    +0.024 A 
ATOM      7  C   LIG    1        4.096  -1.769  -1.386  0.00  0.00    +0.048 A 
ATOM      8  N   LIG    1        3.314  -1.796  -0.209  0.00  0.00    -0.298 N 
ATOM      9  C   LIG    1        3.869  -1.476   1.053  0.00  0.00    +0.049 A 
ATOM     10  C   LIG    1        3.152  -0.751   2.029  0.00  0.00    +0.043 A 
ATOM     11  C   LIG    1        3.735  -0.362   3.237  0.00  0.00    +0.054 A 
ATOM     12  C   LIG    1        5.069  -0.669   3.489  0.00  0.00    +0.020 A 
ATOM     13  C   LIG    1        5.814  -1.345   2.529  0.00  0.00    +0.018 A 
ATOM     14  C   LIG    1        5.237  -1.713   1.311  0.00  0.00    +0.034 A 
ENDROOT
BRANCH  11  15
ATOM     15  C   LIG    1        2.951   0.362   4.228  0.00  0.00    +0.099 C 
ATOM     16  N   LIG    1        2.328   0.937   5.015  0.00  0.00    -0.191 NA
ENDBRANCH  11  15
BRANCH   8  17
ATOM     17  C   LIG    1        1.840  -1.807  -0.329  0.00  0.00    +0.112 C 
BRANCH  17  18
ATOM     18  C   LIG    1        1.187  -0.407  -0.483  0.00  0.00    +0.035 C 
BRANCH  18  19
ATOM     19  C   LIG    1       -0.234  -0.312   0.114  0.00  0.00    +0.086 C 
BRANCH  19  20
ATOM     20  N   LIG    1       -0.651   1.071   0.362  0.00  0.00    -0.302 NA
ATOM     21  C   LIG    1       -0.825   1.844  -0.877  0.00  0.00    +0.087 C 
ATOM     22  C   LIG    1       -1.190   3.315  -0.593  0.00  0.00    +0.046 C 
ATOM     23  C   LIG    1       -2.400   3.463   0.348  0.00  0.00    +0.117 C 
ATOM     24  C   LIG    1       -2.262   2.542   1.574  0.00  0.00    +0.046 C 
ATOM     25  C   LIG    1       -1.858   1.102   1.197  0.00  0.00    +0.087 C 
BRANCH  23  26
ATOM     26  O   LIG    1       -2.574   4.809   0.742  0.00  0.00    -0.392 OA
ATOM     27  H   LIG    1       -1.794   5.087   1.228  0.00  0.00    +0.210 HD
ENDBRANCH  23  26
ENDBRANCH  19  20
ENDBRANCH  18  19
ENDBRANCH  17  18
ENDBRANCH   8  17
TORSDOF 6
