REMARK  Name = DB01121
REMARK                            x       y       z     vdW  Elec       q    Type
REMARK                         _______ _______ _______ _____ _____    ______ ____
ROOT
ATOM      1  O   LIG    1        0.155   2.400  -0.007  0.00  0.00    -0.275 OA
ATOM      2  C   LIG    1       -0.579   1.406  -0.004  0.00  0.00    +0.225 C 
ATOM      3  N   LIG    1       -1.932   1.440  -0.005  0.00  0.00    -0.240 N 
ATOM      4  H   LIG    1       -2.402   0.548   0.000  0.00  0.00    +0.159 HD
ATOM      5  C   LIG    1       -2.727   2.534  -0.016  0.00  0.00    +0.303 C 
ATOM      6  N   LIG    1       -4.019   2.204  -0.016  0.00  0.00    -0.313 N 
ATOM      7  H   LIG    1       -4.721   2.929  -0.026  0.00  0.00    +0.146 HD
ATOM      8  H   LIG    1       -4.305   1.236  -0.005  0.00  0.00    +0.146 HD
ATOM      9  O   LIG    1       -2.359   3.710  -0.025  0.00  0.00    -0.253 OA
ENDROOT
BRANCH   2  10
ATOM     10  C   LIG    1        0.023  -0.013   0.001  0.00  0.00    +0.131 C 
BRANCH  10  11
ATOM     11  C   LIG    1        1.550  -0.039   0.001  0.00  0.00    -0.039 A 
ATOM     12  C   LIG    1        2.249  -0.026  -1.210  0.00  0.00    +0.004 A 
ATOM     13  C   LIG    1        3.642  -0.017  -1.210  0.00  0.00    +0.000 A 
ATOM     14  C   LIG    1        4.332  -0.014   0.000  0.00  0.00    +0.000 A 
ATOM     15  C   LIG    1        3.642  -0.016   1.211  0.00  0.00    +0.000 A 
ATOM     16  C   LIG    1        2.250  -0.025   1.212  0.00  0.00    +0.004 A 
ENDBRANCH  10  11
ENDBRANCH   2  10
TORSDOF 2
