REMARK  Name = DB01005
REMARK                            x       y       z     vdW  Elec       q    Type
REMARK                         _______ _______ _______ _____ _____    ______ ____
ROOT
ATOM      1  N   LIG    1        1.370   0.062   0.000  0.00  0.00    -0.181 N 
ATOM      2  H   LIG    1        1.677   1.023   0.000  0.00  0.00    +0.184 HD
ATOM      3  C   LIG    1        2.115  -1.054   0.000  0.00  0.00    +0.320 C 
ATOM      4  N   LIG    1        3.421  -0.786   0.000  0.00  0.00    -0.312 N 
ATOM      5  H   LIG    1        4.089  -1.542   0.000  0.00  0.00    +0.147 HD
ATOM      6  H   LIG    1        3.748   0.169   0.000  0.00  0.00    +0.147 HD
ATOM      7  O   LIG    1        1.678  -2.204   0.000  0.00  0.00    -0.251 OA
ENDROOT
BRANCH   1   8
ATOM      8  O   LIG    1       -0.023  -0.074   0.000  0.00  0.00    -0.294 OA
ATOM      9  H   LIG    1       -0.335   0.834   0.000  0.00  0.00    +0.241 HD
ENDBRANCH   1   8
TORSDOF 1
