REMARK  Name = DB01415
REMARK                            x       y       z     vdW  Elec       q    Type
REMARK                         _______ _______ _______ _____ _____    ______ ____
ROOT
ATOM      1  N   UNK A  2       -0.586  -1.242   0.146  0.00  0.00    -0.298 N 
ATOM      2  H   ACE A  1       -0.113  -1.719   0.900  0.00  0.00    +0.150 HD
ATOM      3  C   UNK A  0        0.080  -0.289  -0.533  0.00  0.00    +0.247 C 
ATOM      4  O   UNK A  0       -0.442   0.393  -1.418  0.00  0.00    -0.270 OA
ENDROOT
BRANCH   1   6
ATOM      5  C   UNK A  2       -2.349  -2.434  -1.317  0.00  0.00    +0.169 C 
ATOM      6  C   UNK A  2       -1.993  -1.586  -0.064  0.00  0.00    +0.191 C 
ATOM      7  C   UNK A  2       -2.439  -2.830   0.753  0.00  0.00    +0.244 C 
ATOM      8  O   UNK A  2       -2.307  -3.206   1.917  0.00  0.00    -0.273 OA
ATOM      9  S   UNK A  2       -1.066  -3.266  -2.323  0.00  0.00    -0.131 S 
ATOM     10  C   UNK A  2       -2.151  -4.569  -3.012  0.00  0.00    +0.100 C 
ATOM     11  C   UNK A  2       -3.000  -5.244  -1.936  0.00  0.00    +0.014 C 
ATOM     12  C   UNK A  2       -3.348  -4.687  -0.749  0.00  0.00    +0.119 C 
ATOM     13  N   UNK A  2       -2.973  -3.419  -0.399  0.00  0.00    -0.249 N 
BRANCH  12  14
ATOM     14  C   UNK A  2       -4.207  -5.412   0.179  0.00  0.00    +0.351 C 
ATOM     15  O   UNK A  2       -5.067  -4.879   0.880  0.00  0.00    -0.244 OA
BRANCH  14  16
ATOM     16  O   UNK A  2       -3.944  -6.753   0.223  0.00  0.00    -0.476 OA
ATOM     17  H   UNK A  2       -4.507  -7.213   0.849  0.00  0.00    +0.295 HD
ENDBRANCH  14  16
ENDBRANCH  12  14
ENDBRANCH   1   6
BRANCH   3  18
ATOM     18  C   UNK A  0        1.476  -0.157  -0.139  0.00  0.00    +0.059 C 
ATOM     19  C   UNK A  0        1.991   1.072   0.130  0.00  0.00    -0.001 C 
BRANCH  18  20
ATOM     20  C   UNK A  0        2.349  -1.340  -0.022  0.00  0.00    +0.085 A 
ATOM     21  N   UNK A  0        2.250  -2.292  -0.941  0.00  0.00    -0.225 NA
ATOM     22  C   UNK A  0        3.071  -3.286  -0.725  0.00  0.00    +0.156 A 
ATOM     23  S   UNK A  0        4.077  -3.119   0.673  0.00  0.00    -0.060 S 
ATOM     24  C   UNK A  0        3.307  -1.587   0.966  0.00  0.00    +0.077 A 
BRANCH  22  25
ATOM     25  N   UNK A  0        3.170  -4.395  -1.512  0.00  0.00    -0.338 N 
ATOM     26  H   UNK A  0        3.834  -5.130  -1.315  0.00  0.00    +0.144 HD
ATOM     27  H   UNK A  0        2.589  -4.512  -2.330  0.00  0.00    +0.144 HD
ENDBRANCH  22  25
ENDBRANCH  18  20
BRANCH  19  28
ATOM     28  C   UNK A  0        1.322   2.449   0.120  0.00  0.00    +0.148 C 
BRANCH  28  29
ATOM     29  C   UNK A  0        1.257   3.038   1.533  0.00  0.00    +0.309 C 
ATOM     30  O   UNK A  0        0.199   3.271   2.113  0.00  0.00    -0.251 OA
BRANCH  29  31
ATOM     31  O   UNK A  0        2.497   3.278   2.050  0.00  0.00    -0.480 OA
ATOM     32  H   UNK A  0        2.456   3.653   2.933  0.00  0.00    +0.295 HD
ENDBRANCH  29  31
ENDBRANCH  28  29
ENDBRANCH  19  28
ENDBRANCH   3  18
TORSDOF 9
