REMARK  Name = DB01072
REMARK                            x       y       z     vdW  Elec       q    Type
REMARK                         _______ _______ _______ _____ _____    ______ ____
ROOT
ATOM      1  N   LIG    1       -0.676   1.474  -1.042  0.00  0.00    -0.220 NA
ENDROOT
BRANCH   1   2
ATOM      2  N   LIG    1       -0.924   1.856   0.311  0.00  0.00    -0.246 N 
ATOM      3  H   LIG    1       -0.399   2.672   0.591  0.00  0.00    +0.169 HD
ATOM      4  C   LIG    1       -1.801   1.239   1.135  0.00  0.00    +0.248 C 
ATOM      5  O   LIG    1       -2.479   0.253   0.837  0.00  0.00    -0.272 OA
BRANCH   4   6
ATOM      6  C   LIG    1       -1.930   1.852   2.552  0.00  0.00    +0.169 C 
BRANCH   6   7
ATOM      7  C   LIG    1       -1.519   0.922   3.756  0.00  0.00    -0.011 C 
ATOM      8  C   LIG    1       -2.530  -0.236   3.969  0.00  0.00    +0.013 C 
ATOM      9  C   LIG    1       -0.110   0.308   3.543  0.00  0.00    +0.013 C 
ATOM     10  C   LIG    1       -1.475   1.750   5.066  0.00  0.00    +0.013 C 
ENDBRANCH   6   7
BRANCH   6  11
ATOM     11  N   LIG    1       -3.264   2.461   2.717  0.00  0.00    -0.269 N 
ATOM     12  H   LIG    1       -4.012   1.894   3.087  0.00  0.00    +0.153 HD
ATOM     13  C   LIG    1       -3.530   3.764   2.306  0.00  0.00    +0.401 C 
ATOM     14  O   LIG    1       -2.731   4.543   1.778  0.00  0.00    -0.226 OA
BRANCH  13  15
ATOM     15  O   LIG    1       -4.819   4.049   2.574  0.00  0.00    -0.454 OA
ATOM     16  C   LIG    1       -5.356   5.331   2.277  0.00  0.00    +0.282 C 
ENDBRANCH  13  15
ENDBRANCH   6  11
ENDBRANCH   4   6
ENDBRANCH   1   2
BRANCH   1  17
ATOM     17  C   LIG    1        0.015   0.183  -1.177  0.00  0.00    +0.139 C 
BRANCH  17  18
ATOM     18  C   LIG    1        1.347   0.075  -0.382  0.00  0.00    +0.151 C 
BRANCH  18  19
ATOM     19  O   LIG    1        2.222   1.074  -0.886  0.00  0.00    -0.389 OA
ATOM     20  H   LIG    1        2.443   0.855  -1.795  0.00  0.00    +0.210 HD
ENDBRANCH  18  19
BRANCH  18  21
ATOM     21  C   LIG    1        1.993  -1.342  -0.478  0.00  0.00    +0.107 C 
BRANCH  21  24
ATOM     22  C   LIG    1        4.483  -1.258  -0.770  0.00  0.00    +0.234 C 
ATOM     23  O   LIG    1        4.454  -1.066  -1.987  0.00  0.00    -0.274 OA
ATOM     24  N   LIG    1        3.385  -1.365   0.000  0.00  0.00    -0.308 N 
ATOM     25  H   LIG    1        3.511  -1.530   0.989  0.00  0.00    +0.149 HD
BRANCH  22  26
ATOM     26  C   LIG    1        5.846  -1.374  -0.040  0.00  0.00    +0.167 C 
BRANCH  26  29
ATOM     27  C   LIG    1        6.511  -3.782  -0.183  0.00  0.00    +0.401 C 
ATOM     28  O   LIG    1        5.797  -4.174   0.744  0.00  0.00    -0.226 OA
ATOM     29  N   LIG    1        6.639  -2.470  -0.628  0.00  0.00    -0.269 N 
ATOM     30  H   LIG    1        7.212  -2.273  -1.435  0.00  0.00    +0.153 HD
BRANCH  27  32
ATOM     31  C   LIG    1        7.325  -5.979  -0.724  0.00  0.00    +0.282 C 
ATOM     32  O   LIG    1        7.293  -4.575  -0.939  0.00  0.00    -0.454 OA
ENDBRANCH  27  32
ENDBRANCH  26  29
BRANCH  26  33
ATOM     33  C   LIG    1        6.661  -0.035   0.114  0.00  0.00    -0.011 C 
ATOM     34  C   LIG    1        7.142   0.511  -1.257  0.00  0.00    +0.013 C 
ATOM     35  C   LIG    1        5.816   1.064   0.811  0.00  0.00    +0.013 C 
ATOM     36  C   LIG    1        7.920  -0.279   0.988  0.00  0.00    +0.013 C 
ENDBRANCH  26  33
ENDBRANCH  22  26
ENDBRANCH  21  24
BRANCH  21  37
ATOM     37  C   LIG    1        1.173  -2.424   0.274  0.00  0.00    +0.060 C 
BRANCH  37  38
ATOM     38  C   LIG    1        1.695  -3.842   0.065  0.00  0.00    -0.046 A 
ATOM     39  C   LIG    1        2.430  -4.475   1.071  0.00  0.00    +0.004 A 
ATOM     40  C   LIG    1        2.918  -5.764   0.869  0.00  0.00    +0.000 A 
ATOM     41  C   LIG    1        2.671  -6.414  -0.338  0.00  0.00    +0.000 A 
ATOM     42  C   LIG    1        1.937  -5.790  -1.344  0.00  0.00    +0.000 A 
ATOM     43  C   LIG    1        1.447  -4.502  -1.142  0.00  0.00    +0.004 A 
ENDBRANCH  37  38
ENDBRANCH  21  37
ENDBRANCH  18  21
ENDBRANCH  17  18
ENDBRANCH   1  17
BRANCH   1  44
ATOM     44  C   LIG    1       -1.841   1.586  -1.935  0.00  0.00    +0.140 C 
BRANCH  44  45
ATOM     45  C   LIG    1       -2.585   2.914  -1.819  0.00  0.00    -0.032 A 
ATOM     46  C   LIG    1       -3.917   2.924  -1.405  0.00  0.00    +0.005 A 
ATOM     47  C   LIG    1       -4.591   4.132  -1.263  0.00  0.00    +0.010 A 
ATOM     48  C   LIG    1       -3.952   5.354  -1.528  0.00  0.00    +0.000 A 
ATOM     49  C   LIG    1       -2.618   5.323  -1.959  0.00  0.00    +0.010 A 
ATOM     50  C   LIG    1       -1.939   4.116  -2.107  0.00  0.00    +0.005 A 
BRANCH  48  51
ATOM     51  C   LIG    1       -4.670   6.657  -1.349  0.00  0.00    +0.071 A 
ATOM     52  N   LIG    1       -6.031   6.624  -1.447  0.00  0.00    -0.255 NA
ATOM     53  C   LIG    1       -6.730   7.774  -1.276  0.00  0.00    +0.111 A 
ATOM     54  C   LIG    1       -6.118   8.995  -0.996  0.00  0.00    +0.020 A 
ATOM     55  C   LIG    1       -4.728   9.029  -0.886  0.00  0.00    +0.004 A 
ATOM     56  C   LIG    1       -3.994   7.854  -1.060  0.00  0.00    +0.028 A 
ENDBRANCH  48  51
ENDBRANCH  44  45
ENDBRANCH   1  44
TORSDOF 19
