REMARK  Name = DB01587
REMARK                            x       y       z     vdW  Elec       q    Type
REMARK                         _______ _______ _______ _____ _____    ______ ____
ROOT
ATOM      1 CL   LIG    1       -2.814   5.251  -0.037  0.00  0.00    -0.084 Cl
ATOM      2  C   LIG    1       -2.006   3.726  -0.054  0.00  0.00    +0.042 A 
ATOM      3  C   LIG    1       -0.866   3.552  -0.825  0.00  0.00    +0.022 A 
ATOM      4  C   LIG    1       -0.223   2.320  -0.832  0.00  0.00    +0.025 A 
ATOM      5  C   LIG    1       -0.698   1.235  -0.081  0.00  0.00    +0.045 A 
ATOM      6  C   LIG    1       -1.860   1.411   0.727  0.00  0.00    +0.042 A 
ATOM      7  C   LIG    1       -2.386   0.228   1.630  0.00  0.00    +0.235 C 
ATOM      8  N   LIG    1       -2.808  -0.927   0.792  0.00  0.00    -0.243 N 
ATOM      9  C   LIG    1       -3.819  -1.768   1.178  0.00  0.00    +0.246 C 
ATOM     10  C   LIG    1       -4.480  -1.371   2.393  0.00  0.00    +0.108 C 
ATOM     11  C   LIG    1       -4.367  -0.121   2.864  0.00  0.00    +0.103 C 
ATOM     12  C   LIG    1       -5.093   0.469   4.053  0.00  0.00    +0.086 C 
ATOM     13  O   LIG    1       -4.221  -2.736   0.531  0.00  0.00    -0.270 OA
ATOM     14  C   LIG    1       -2.100  -1.212  -0.474  0.00  0.00    +0.208 C 
ATOM     15  C   LIG    1       -0.570  -1.237  -0.319  0.00  0.00    +0.237 C 
ATOM     16  O   LIG    1        0.030  -2.314  -0.278  0.00  0.00    -0.274 OA
ATOM     17  O   LIG    1       -3.508   0.785   2.325  0.00  0.00    -0.464 OA
ATOM     18  N   LIG    1       -0.007  -0.004  -0.137  0.00  0.00    -0.273 N 
ATOM     19  C   LIG    1        1.436   0.001   0.148  0.00  0.00    +0.138 C 
ATOM     20  C   LIG    1       -2.492   2.670   0.710  0.00  0.00    +0.031 A 
ENDROOT
BRANCH   7  21
ATOM     21  C   LIG    1       -1.333  -0.102   2.751  0.00  0.00    +0.019 A 
ATOM     22  C   LIG    1       -0.785   0.950   3.499  0.00  0.00    +0.009 A 
ATOM     23  C   LIG    1        0.149   0.699   4.500  0.00  0.00    +0.000 A 
ATOM     24  C   LIG    1        0.541  -0.610   4.764  0.00  0.00    +0.000 A 
ATOM     25  C   LIG    1        0.003  -1.668   4.038  0.00  0.00    +0.000 A 
ATOM     26  C   LIG    1       -0.931  -1.416   3.038  0.00  0.00    +0.009 A 
ENDBRANCH   7  21
TORSDOF 1
