REMARK  Name = DB01394
REMARK                            x       y       z     vdW  Elec       q    Type
REMARK                         _______ _______ _______ _____ _____    ______ ____
ROOT
ATOM      1  C   LIG    1        0.035  -2.517   0.009  0.00  0.00    -0.009 A 
ATOM      2  C   LIG    1        1.032  -2.564   0.928  0.00  0.00    +0.012 A 
ATOM      3  C   LIG    1        1.974  -3.614   1.271  0.00  0.00    +0.050 A 
ATOM      4  C   LIG    1        2.035  -4.899   0.847  0.00  0.00    +0.167 A 
ATOM      5  C   LIG    1        1.160  -5.581  -0.114  0.00  0.00    +0.221 A 
ATOM      6  O   LIG    1        1.277  -6.795  -0.301  0.00  0.00    -0.284 OA
ATOM      7  C   LIG    1        0.148  -4.883  -0.895  0.00  0.00    +0.060 A 
ATOM      8  C   LIG    1       -0.736  -1.217  -0.023  0.00  0.00    +0.031 A 
ATOM      9  C   LIG    1       -2.150  -1.202   0.044  0.00  0.00    -0.032 A 
ATOM     10  C   LIG    1       -2.944  -2.507  -0.005  0.00  0.00    +0.038 C 
ATOM     11  C   LIG    1       -2.845  -3.254  -1.353  0.00  0.00    +0.032 C 
ATOM     12  C   LIG    1       -1.428  -3.294  -1.964  0.00  0.00    +0.104 C 
ATOM     13  C   LIG    1       -2.829   0.017   0.096  0.00  0.00    +0.054 A 
ATOM     14  C   LIG    1       -2.152   1.242   0.067  0.00  0.00    +0.165 A 
ATOM     15  C   LIG    1       -0.759   1.233  -0.059  0.00  0.00    +0.204 A 
ATOM     16  C   LIG    1       -0.059   0.021  -0.105  0.00  0.00    +0.173 A 
ATOM     17  C   LIG    1       -0.349  -3.619  -0.903  0.00  0.00    -0.016 A 
ENDROOT
BRANCH  12  18
ATOM     18  N   LIG    1       -1.409  -4.096  -3.200  0.00  0.00    -0.309 N 
ATOM     19  H   LIG    1       -1.917  -4.967  -3.168  0.00  0.00    +0.149 HD
ATOM     20  C   LIG    1       -0.641  -3.856  -4.279  0.00  0.00    +0.210 C 
ATOM     21  C   LIG    1       -0.752  -4.853  -5.428  0.00  0.00    +0.109 C 
ATOM     22  O   LIG    1        0.131  -2.902  -4.373  0.00  0.00    -0.276 OA
ENDBRANCH  12  18
BRANCH   4  23
ATOM     23  O   LIG    1        2.995  -5.781   1.277  0.00  0.00    -0.491 OA
ATOM     24  C   LIG    1        3.993  -5.375   2.212  0.00  0.00    +0.277 C 
ENDBRANCH   4  23
BRANCH  14  25
ATOM     25  O   LIG    1       -2.782   2.471   0.151  0.00  0.00    -0.491 OA
ATOM     26  C   LIG    1       -4.199   2.529   0.264  0.00  0.00    +0.277 C 
ENDBRANCH  14  25
BRANCH  15  27
ATOM     27  O   LIG    1       -0.050   2.411  -0.106  0.00  0.00    -0.488 OA
ATOM     28  C   LIG    1       -0.176   3.145  -1.319  0.00  0.00    +0.277 C 
ENDBRANCH  15  27
BRANCH  16  29
ATOM     29  O   LIG    1        1.310   0.069  -0.231  0.00  0.00    -0.491 OA
ATOM     30  C   LIG    1        1.784  -0.069  -1.565  0.00  0.00    +0.277 C 
ENDBRANCH  16  29
TORSDOF 5
