REMARK  Name = DB01914
REMARK                            x       y       z     vdW  Elec       q    Type
REMARK                         _______ _______ _______ _____ _____    ______ ____
ROOT
ATOM      1  C   LIG    1        1.517  -0.001   0.061  0.00  0.00    +0.176 C 
ENDROOT
BRANCH   1   2
ATOM      2  O   LIG    1        2.051   0.550  -1.134  0.00  0.00    -0.386 OA
ATOM      3  H   LIG    1        1.690   0.072  -1.884  0.00  0.00    +0.210 HD
ENDBRANCH   1   2
BRANCH   1   4
ATOM      4  C   LIG    1       -0.044  -0.084  -0.031  0.00  0.00    +0.181 C 
BRANCH   4   5
ATOM      5  O   LIG    1       -0.579   1.231   0.028  0.00  0.00    -0.386 OA
ATOM      6  H   LIG    1       -0.278   1.646   0.841  0.00  0.00    +0.210 HD
ENDBRANCH   4   5
BRANCH   4   7
ATOM      7  C   LIG    1       -0.620  -0.796  -1.295  0.00  0.00    +0.208 C 
BRANCH   7   8
ATOM      8  C   LIG    1       -0.053  -2.216  -1.507  0.00  0.00    +0.257 C 
ATOM      9  O   LIG    1       -0.755  -3.228  -1.541  0.00  0.00    -0.298 OA
ENDBRANCH   7   8
BRANCH   7  10
ATOM     10  O   LIG    1       -2.037  -0.875  -1.206  0.00  0.00    -0.382 OA
ATOM     11  H   LIG    1       -2.374  -1.263  -2.017  0.00  0.00    +0.210 HD
ENDBRANCH   7  10
ENDBRANCH   4   7
ENDBRANCH   1   4
BRANCH   1  12
ATOM     12  C   LIG    1        2.075   0.783   1.286  0.00  0.00    +0.171 C 
BRANCH  12  13
ATOM     13  O   LIG    1        1.507   0.265   2.478  0.00  0.00    -0.387 OA
ATOM     14  H   LIG    1        1.825  -0.632   2.605  0.00  0.00    +0.210 HD
ENDBRANCH  12  13
BRANCH  12  15
ATOM     15  C   LIG    1        3.618   0.725   1.408  0.00  0.00    +0.189 C 
BRANCH  15  16
ATOM     16  O   LIG    1        4.094   1.617   2.397  0.00  0.00    -0.392 OA
ATOM     17  H   LIG    1        5.052   1.565   2.422  0.00  0.00    +0.210 HD
ENDBRANCH  15  16
ENDBRANCH  12  15
ENDBRANCH   1  12
TORSDOF 10
