REMARK  Name = DB01125
REMARK                            x       y       z     vdW  Elec       q    Type
REMARK                         _______ _______ _______ _____ _____    ______ ____
ROOT
ATOM      1  O   LIG    1        5.886   0.772   2.391  0.00  0.00    -0.291 OA
ATOM      2  C   LIG    1        6.168   0.980   1.211  0.00  0.00    +0.179 C 
ATOM      3  C   LIG    1        7.135   1.960   0.688  0.00  0.00    +0.029 A 
ATOM      4  C   LIG    1        7.967   2.837   1.390  0.00  0.00    +0.012 A 
ATOM      5  C   LIG    1        8.804   3.704   0.686  0.00  0.00    +0.001 A 
ATOM      6  C   LIG    1        8.805   3.700  -0.711  0.00  0.00    +0.001 A 
ATOM      7  C   LIG    1        7.967   2.829  -1.411  0.00  0.00    +0.012 A 
ATOM      8  C   LIG    1        7.135   1.956  -0.704  0.00  0.00    +0.029 A 
ATOM      9  C   LIG    1        6.167   0.974  -1.222  0.00  0.00    +0.179 C 
ATOM     10  O   LIG    1        5.884   0.761  -2.401  0.00  0.00    -0.291 OA
ATOM     11  C   LIG    1        5.591   0.245  -0.003  0.00  0.00    +0.161 C 
ENDROOT
BRANCH  11  12
ATOM     12  C   LIG    1        4.059   0.173  -0.002  0.00  0.00    -0.029 A 
ATOM     13  C   LIG    1        3.439  -1.078  -0.001  0.00  0.00    +0.008 A 
ATOM     14  C   LIG    1        2.050  -1.171   0.002  0.00  0.00    +0.046 A 
ATOM     15  C   LIG    1        1.261  -0.021   0.003  0.00  0.00    +0.120 A 
ATOM     16  C   LIG    1        1.883   1.237   0.001  0.00  0.00    +0.046 A 
ATOM     17  C   LIG    1        3.272   1.332  -0.002  0.00  0.00    +0.008 A 
BRANCH  15  18
ATOM     18  O   LIG    1       -0.107  -0.213   0.005  0.00  0.00    -0.495 OA
ATOM     19  C   LIG    1       -0.968   0.921   0.003  0.00  0.00    +0.277 C 
ENDBRANCH  15  18
ENDBRANCH  11  12
TORSDOF 2
