REMARK  Name = DB01427
REMARK                            x       y       z     vdW  Elec       q    Type
REMARK                         _______ _______ _______ _____ _____    ______ ____
ROOT
ATOM      1  O   LIG    1        1.494   2.394   0.179  0.00  0.00    -0.266 OA
ATOM      2  C   LIG    1        2.066   1.304   0.130  0.00  0.00    +0.270 A 
ATOM      3  C   LIG    1        1.423   0.006  -0.140  0.00  0.00    +0.090 A 
ATOM      4  C   LIG    1        2.129  -1.153  -0.175  0.00  0.00    +0.038 A 
ATOM      5  C   LIG    1        3.580  -1.176   0.055  0.00  0.00    +0.000 A 
ATOM      6  C   LIG    1        4.111   0.049   0.297  0.00  0.00    +0.094 A 
ATOM      7  N   LIG    1        3.411   1.226   0.336  0.00  0.00    -0.327 N 
ATOM      8  H   LIG    1        3.880   2.099   0.525  0.00  0.00    +0.168 HD
ENDROOT
BRANCH   5   9
ATOM      9  C   LIG    1        4.395  -2.432   0.025  0.00  0.00    -0.014 A 
ATOM     10  C   LIG    1        3.806  -3.683  -0.236  0.00  0.00    +0.028 A 
ATOM     11  C   LIG    1        4.597  -4.832  -0.259  0.00  0.00    +0.111 A 
ATOM     12  N   LIG    1        5.934  -4.813  -0.038  0.00  0.00    -0.263 NA
ATOM     13  C   LIG    1        6.507  -3.612   0.215  0.00  0.00    +0.111 A 
ATOM     14  C   LIG    1        5.784  -2.418   0.254  0.00  0.00    +0.028 A 
ENDBRANCH   5   9
BRANCH   3  15
ATOM     15  N   LIG    1        0.066   0.057  -0.351  0.00  0.00    -0.354 N 
ATOM     16  H   LIG    1       -0.469  -0.778  -0.544  0.00  0.00    +0.142 HD
ATOM     17  H   LIG    1       -0.431   0.937  -0.318  0.00  0.00    +0.142 HD
ENDBRANCH   3  15
TORSDOF 2
