REMARK  Name = DB01369
REMARK                            x       y       z     vdW  Elec       q    Type
REMARK                         _______ _______ _______ _____ _____    ______ ____
ROOT
ATOM      1  N   LIG    1        0.463  -0.998   2.144  0.00  0.00    -0.287 N 
ATOM      2  C   LIG    1       -0.029  -1.896   3.213  0.00  0.00    +0.120 C 
ATOM      3  C   LIG    1       -0.847  -1.004   4.182  0.00  0.00    +0.082 C 
ATOM      4  C   LIG    1        0.052   0.088   4.811  0.00  0.00    +0.141 C 
ATOM      5  O   LIG    1       -0.261   0.742   5.805  0.00  0.00    -0.297 OA
ATOM      6  C   LIG    1        1.413   0.269   4.125  0.00  0.00    +0.106 C 
ATOM      7  C   LIG    1        1.400   0.083   2.570  0.00  0.00    +0.169 C 
ATOM      8  C   LIG    1        2.865  -0.203   2.168  0.00  0.00    +0.235 C 
ATOM      9  O   LIG    1        3.293  -1.352   2.045  0.00  0.00    -0.274 OA
ATOM     10  N   LIG    1        3.624   0.888   1.984  0.00  0.00    -0.297 N 
ATOM     11  H   LIG    1        3.187   1.793   2.084  0.00  0.00    +0.150 HD
ATOM     12  C   LIG    1        5.061   0.934   1.671  0.00  0.00    +0.213 C 
ATOM     13  C   LIG    1        5.543   2.341   2.024  0.00  0.00    +0.333 C 
ATOM     14  O   LIG    1        6.665   2.549   2.489  0.00  0.00    -0.248 OA
ATOM     15  O   LIG    1        4.615   3.313   1.751  0.00  0.00    -0.458 OA
ATOM     16  C   LIG    1        4.723   4.690   2.129  0.00  0.00    +0.203 C 
ATOM     17  C   LIG    1        5.879   5.416   1.403  0.00  0.00    +0.054 C 
ATOM     18  C   LIG    1        4.605   4.953   3.671  0.00  0.00    +0.200 C 
ATOM     19  C   LIG    1        3.635   3.970   4.398  0.00  0.00    +0.238 C 
ATOM     20  N   LIG    1        2.303   4.119   4.296  0.00  0.00    -0.302 N 
ATOM     21  H   LIG    1        1.734   3.451   4.797  0.00  0.00    +0.150 HD
ATOM     22  C   LIG    1        1.517   5.064   3.501  0.00  0.00    +0.159 C 
ATOM     23  C   LIG    1        0.590   4.218   2.599  0.00  0.00    +0.237 C 
ATOM     24  O   LIG    1       -0.024   3.281   3.115  0.00  0.00    -0.274 OA
ATOM     25  N   LIG    1        0.501   4.518   1.279  0.00  0.00    -0.288 N 
ATOM     26  C   LIG    1        1.035   5.703   0.599  0.00  0.00    +0.109 C 
ATOM     27  C   LIG    1        0.844   5.433  -0.889  0.00  0.00    +0.021 C 
ATOM     28  C   LIG    1       -0.375   4.527  -0.923  0.00  0.00    +0.033 C 
ATOM     29  C   LIG    1       -0.258   3.662   0.342  0.00  0.00    +0.162 C 
ATOM     30  C   LIG    1        0.464   2.315   0.059  0.00  0.00    +0.236 C 
ATOM     31  O   LIG    1        1.694   2.362   0.021  0.00  0.00    -0.274 OA
ATOM     32  N   LIG    1       -0.257   1.164  -0.091  0.00  0.00    -0.291 N 
ATOM     33  C   LIG    1       -1.725   1.178   0.018  0.00  0.00    +0.133 C 
ATOM     34  C   LIG    1        0.310  -0.204  -0.290  0.00  0.00    +0.166 C 
ATOM     35  O   LIG    1        4.100   3.033   5.049  0.00  0.00    -0.274 OA
ATOM     36  C   LIG    1        0.060  -1.225   0.857  0.00  0.00    +0.237 C 
ATOM     37  O   LIG    1       -0.583  -2.224   0.525  0.00  0.00    -0.274 OA
ENDROOT
BRANCH  12  38
ATOM     38  C   LIG    1        5.339   0.578   0.223  0.00  0.00    -0.017 A 
ATOM     39  C   LIG    1        6.028  -0.606  -0.060  0.00  0.00    +0.006 A 
ATOM     40  C   LIG    1        6.286  -0.974  -1.378  0.00  0.00    +0.000 A 
ATOM     41  C   LIG    1        5.857  -0.156  -2.420  0.00  0.00    +0.000 A 
ATOM     42  C   LIG    1        5.175   1.028  -2.155  0.00  0.00    +0.000 A 
ATOM     43  C   LIG    1        4.914   1.394  -0.838  0.00  0.00    +0.006 A 
ENDBRANCH  12  38
BRANCH  18  44
ATOM     44  N   LIG    1        5.932   4.964   4.306  0.00  0.00    -0.296 N 
ATOM     45  H   LIG    1        6.657   4.485   3.791  0.00  0.00    +0.150 HD
ATOM     46  C   LIG    1        6.246   5.501   5.503  0.00  0.00    +0.267 C 
ATOM     47  O   LIG    1        5.409   6.083   6.197  0.00  0.00    -0.268 OA
BRANCH  46  48
ATOM     48  C   LIG    1        7.692   5.353   5.958  0.00  0.00    +0.167 A 
ATOM     49  C   LIG    1        8.157   5.851   7.198  0.00  0.00    +0.147 A 
ATOM     50  C   LIG    1        9.501   5.671   7.537  0.00  0.00    +0.049 A 
ATOM     51  C   LIG    1       10.360   5.009   6.661  0.00  0.00    +0.023 A 
ATOM     52  C   LIG    1        9.842   4.540   5.457  0.00  0.00    +0.112 A 
ATOM     53  N   LIG    1        8.543   4.704   5.105  0.00  0.00    -0.247 NA
BRANCH  49  54
ATOM     54  O   LIG    1        7.354   6.504   8.099  0.00  0.00    -0.504 OA
ATOM     55  H   LIG    1        6.445   6.581   7.796  0.00  0.00    +0.292 HD
ENDBRANCH  49  54
ENDBRANCH  46  48
ENDBRANCH  18  44
BRANCH  22  56
ATOM     56  C   LIG    1        0.667   5.966   4.421  0.00  0.00    +0.028 C 
ATOM     57  C   LIG    1        1.505   6.833   5.375  0.00  0.00    +0.006 C 
ENDBRANCH  22  56
BRANCH   3  58
ATOM     58  C   LIG    1       -1.609  -1.830   5.245  0.00  0.00    +0.082 C 
BRANCH  58  59
ATOM     59  S   LIG    1       -2.987  -0.980   6.079  0.00  0.00    -0.155 S 
BRANCH  59  60
ATOM     60  C   LIG    1       -3.554  -2.272   7.237  0.00  0.00    +0.064 C 
ATOM     61  C   LIG    1       -4.514  -1.705   8.317  0.00  0.00    +0.006 C 
ATOM     62  C   LIG    1       -5.851  -1.346   7.622  0.00  0.00    +0.020 C 
ATOM     63  C   LIG    1       -6.421  -2.594   6.880  0.00  0.00    +0.085 C 
ATOM     64  N   LIG    1       -5.577  -3.802   7.019  0.00  0.00    -0.301 NA
ATOM     65  C   LIG    1       -5.435  -4.079   8.466  0.00  0.00    +0.085 C 
ATOM     66  C   LIG    1       -4.820  -2.888   9.268  0.00  0.00    +0.020 C 
ATOM     67  C   LIG    1       -4.232  -3.473   6.495  0.00  0.00    +0.098 C 
ENDBRANCH  59  60
ENDBRANCH  58  59
ENDBRANCH   3  58
BRANCH  34  68
ATOM     68  C   LIG    1        1.665  -0.407  -1.042  0.00  0.00    +0.067 C 
BRANCH  68  69
ATOM     69  C   LIG    1        1.568  -0.099  -2.536  0.00  0.00    -0.045 A 
ATOM     70  C   LIG    1        1.791   1.193  -3.014  0.00  0.00    +0.005 A 
ATOM     71  C   LIG    1        1.540   1.509  -4.346  0.00  0.00    +0.023 A 
ATOM     72  C   LIG    1        1.009   0.556  -5.231  0.00  0.00    +0.029 A 
ATOM     73  C   LIG    1        0.727  -0.723  -4.719  0.00  0.00    +0.023 A 
ATOM     74  C   LIG    1        0.978  -1.035  -3.386  0.00  0.00    +0.005 A 
BRANCH  72  75
ATOM     75  N   LIG    1        0.760   0.876  -6.596  0.00  0.00    -0.336 N 
ATOM     76  C   LIG    1        0.047  -0.069  -7.456  0.00  0.00    +0.129 C 
ATOM     77  C   LIG    1        0.784   2.272  -7.035  0.00  0.00    +0.129 C 
ENDBRANCH  72  75
ENDBRANCH  68  69
ENDBRANCH  34  68
TORSDOF 11
