REMARK  Name = DB01105
REMARK                            x       y       z     vdW  Elec       q    Type
REMARK                         _______ _______ _______ _____ _____    ______ ____
ROOT
ATOM      1  C   LIG    1       -0.617  -0.708   1.417  0.00  0.00    +0.011 C 
ATOM      2  C   LIG    1       -0.513  -2.269   1.400  0.00  0.00    +0.013 C 
ATOM      3  C   LIG    1       -1.879  -2.338   2.071  0.00  0.00    +0.002 C 
ATOM      4  C   LIG    1       -2.151  -1.016   1.367  0.00  0.00    +0.013 C 
ENDROOT
BRANCH   1   9
ATOM      5 CL   LIG    1        1.542   2.236   6.257  0.00  0.00    -0.084 Cl
ATOM      6  C   LIG    1        0.930   1.401   4.877  0.00  0.00    +0.041 A 
ATOM      7  C   LIG    1       -0.259   1.821   4.285  0.00  0.00    +0.020 A 
ATOM      8  C   LIG    1       -0.752   1.147   3.171  0.00  0.00    +0.005 A 
ATOM      9  C   LIG    1       -0.057   0.055   2.637  0.00  0.00    -0.040 A 
ATOM     10  C   LIG    1        1.132  -0.363   3.249  0.00  0.00    +0.005 A 
ATOM     11  C   LIG    1        1.627   0.311   4.362  0.00  0.00    +0.020 A 
ENDBRANCH   1   9
BRANCH   1  12
ATOM     12  C   LIG    1       -0.065  -0.038   0.077  0.00  0.00    +0.067 C 
BRANCH  12  13
ATOM     13  N   LIG    1       -0.510   1.384  -0.080  0.00  0.00    -0.305 NA
ATOM     14  C   LIG    1       -1.955   1.543  -0.276  0.00  0.00    +0.104 C 
ATOM     15  C   LIG    1        0.128   2.142  -1.163  0.00  0.00    +0.104 C 
ENDBRANCH  12  13
BRANCH  12  16
ATOM     16  C   LIG    1        1.504  -0.152  -0.074  0.00  0.00    +0.022 C 
BRANCH  16  17
ATOM     17  C   LIG    1        2.162  -1.550  -0.212  0.00  0.00    -0.016 C 
ATOM     18  C   LIG    1        1.697  -2.301  -1.476  0.00  0.00    +0.007 C 
ATOM     19  C   LIG    1        3.698  -1.432  -0.198  0.00  0.00    +0.007 C 
ENDBRANCH  16  17
ENDBRANCH  12  16
ENDBRANCH   1  12
TORSDOF 5
