REMARK  Name = DB01708
REMARK                            x       y       z     vdW  Elec       q    Type
REMARK                         _______ _______ _______ _____ _____    ______ ____
ROOT
ATOM      1  C   LIG    1       -2.027  -0.926  -1.265  0.00  0.00    +0.014 C 
ATOM      2  C   LIG    1       -2.571  -1.556   0.059  0.00  0.00    -0.008 C 
ATOM      3  C   LIG    1       -2.083  -3.026   0.194  0.00  0.00    +0.016 C 
ATOM      4  C   LIG    1       -4.148  -1.461   0.057  0.00  0.00    +0.003 C 
ATOM      5  C   LIG    1       -4.843  -2.357  -1.026  0.00  0.00    +0.005 C 
ATOM      6  C   LIG    1       -6.389  -2.288  -0.988  0.00  0.00    +0.015 C 
ATOM      7  C   LIG    1       -6.899  -2.643   0.429  0.00  0.00    +0.029 C 
ATOM      8  C   LIG    1       -6.577  -4.125   0.810  0.00  0.00    +0.019 C 
ATOM      9  C   LIG    1       -8.407  -2.468   0.696  0.00  0.00    +0.139 C 
ATOM     10  O   LIG    1       -9.316  -2.624  -0.117  0.00  0.00    -0.297 OA
ATOM     11  C   LIG    1       -8.575  -2.031   2.162  0.00  0.00    +0.075 C 
ATOM     12  C   LIG    1       -7.156  -1.727   2.670  0.00  0.00    +0.012 C 
ATOM     13  C   LIG    1       -6.323  -1.591   1.399  0.00  0.00    +0.006 C 
ATOM     14  C   LIG    1       -4.772  -1.647   1.481  0.00  0.00    +0.001 C 
ATOM     15  C   LIG    1       -4.240  -0.590   2.477  0.00  0.00    +0.031 C 
ATOM     16  C   LIG    1       -2.758  -0.324   2.289  0.00  0.00    -0.027 C 
ATOM     17  C   LIG    1       -1.996  -0.748   1.257  0.00  0.00    -0.065 C 
ATOM     18  C   LIG    1       -0.487  -0.477   1.233  0.00  0.00    +0.062 C 
ATOM     19  C   LIG    1       -0.059   0.165  -0.099  0.00  0.00    +0.119 C 
ATOM     20  C   LIG    1       -0.510  -0.672  -1.304  0.00  0.00    +0.032 C 
ENDROOT
BRANCH  19  21
ATOM     21  O   LIG    1        1.339   0.375  -0.129  0.00  0.00    -0.391 OA
ATOM     22  H   LIG    1        1.504   1.319  -0.193  0.00  0.00    +0.210 HD
ENDBRANCH  19  21
TORSDOF 1
