REMARK  Name = DB01321
REMARK                            x       y       z     vdW  Elec       q    Type
REMARK                         _______ _______ _______ _____ _____    ______ ____
ROOT
ATOM      1  O   LIG    1       -0.133   0.216  -0.428  0.00  0.00    -0.343 OA
ENDROOT
BRANCH   1   7
ATOM      2  O   LIG    1       -4.008   2.043   4.760  0.00  0.00    -0.251 OA
ATOM      3  C   LIG    1       -2.902   1.992   4.221  0.00  0.00    +0.311 C 
ATOM      4  C   LIG    1       -2.448   0.717   3.496  0.00  0.00    +0.167 C 
ATOM      5  C   LIG    1       -1.330   0.873   2.416  0.00  0.00    +0.218 C 
ATOM      6  C   LIG    1       -1.876   1.237   0.999  0.00  0.00    +0.188 C 
ATOM      7  C   LIG    1       -0.771   1.451  -0.092  0.00  0.00    +0.157 C 
ATOM      8  C   LIG    1       -1.209   2.119  -1.439  0.00  0.00    +0.028 C 
ATOM      9  C   LIG    1       -1.291   3.670  -1.348  0.00  0.00    +0.012 C 
ATOM     10  C   LIG    1        0.081   4.416  -1.393  0.00  0.00    +0.019 C 
ATOM     11  C   LIG    1        0.701   4.391  -2.808  0.00  0.00    +0.010 C 
ATOM     12  C   LIG    1        0.031   5.867  -0.834  0.00  0.00    +0.140 C 
ATOM     13  C   LIG    1       -0.284   5.920   0.648  0.00  0.00    +0.004 C 
ATOM     14  C   LIG    1        0.499   6.441   1.611  0.00  0.00    -0.002 C 
ATOM     15  C   LIG    1        0.155   6.321   3.015  0.00  0.00    -0.004 C 
ATOM     16  C   LIG    1       -0.190   5.139   3.556  0.00  0.00    -0.023 C 
ATOM     17  C   LIG    1       -0.764   4.920   4.944  0.00  0.00    +0.071 C 
ATOM     18  C   LIG    1       -2.141   4.215   4.923  0.00  0.00    +0.177 C 
ATOM     19  C   LIG    1       -3.233   5.102   4.278  0.00  0.00    +0.052 C 
ATOM     20  O   LIG    1       -1.973   2.974   4.229  0.00  0.00    -0.461 OA
BRANCH  12  21
ATOM     21  O   LIG    1       -0.948   6.634  -1.508  0.00  0.00    -0.387 OA
ATOM     22  H   LIG    1       -0.911   7.533  -1.175  0.00  0.00    +0.210 HD
ENDBRANCH  12  21
BRANCH   6  23
ATOM     23  O   LIG    1       -2.986   0.429   0.582  0.00  0.00    -0.374 OA
ATOM     24  C   LIG    1       -2.816  -0.980   0.467  0.00  0.00    +0.194 C 
ENDBRANCH   6  23
BRANCH   5  25
ATOM     25  O   LIG    1       -0.526  -0.312   2.378  0.00  0.00    -0.458 OA
BRANCH  25  26
ATOM     26  C   LIG    1        0.404  -0.569   3.331  0.00  0.00    +0.304 C 
ATOM     27  C   LIG    1        1.107  -1.904   3.122  0.00  0.00    +0.136 C 
ATOM     28  O   LIG    1        0.694   0.160   4.281  0.00  0.00    -0.251 OA
ENDBRANCH  25  26
ENDBRANCH   5  25
BRANCH   8  29
ATOM     29  C   LIG    1       -2.475   1.474  -2.064  0.00  0.00    +0.076 C 
BRANCH  29  30
ATOM     30  C   LIG    1       -2.692   1.818  -3.539  0.00  0.00    +0.223 C 
ATOM     31  O   LIG    1       -3.690   2.436  -3.904  0.00  0.00    -0.301 OA
ENDBRANCH  29  30
ENDBRANCH   8  29
ENDBRANCH   1   7
BRANCH   1  32
ATOM     32  C   LIG    1        1.261   0.180  -0.314  0.00  0.00    +0.278 C 
ATOM     33  C   LIG    1        1.737  -1.196  -0.808  0.00  0.00    +0.159 C 
ATOM     34  C   LIG    1        3.286  -1.242  -0.679  0.00  0.00    -0.003 C 
ATOM     35  C   LIG    1        3.959  -0.014  -1.347  0.00  0.00    +0.139 C 
ATOM     36  C   LIG    1        3.268   1.303  -0.905  0.00  0.00    +0.146 C 
ATOM     37  C   LIG    1        3.728   2.526  -1.714  0.00  0.00    +0.040 C 
ATOM     38  O   LIG    1        1.856   1.178  -1.107  0.00  0.00    -0.343 OA
BRANCH  34  39
ATOM     39  N   LIG    1        3.918  -2.532  -1.286  0.00  0.00    +0.381 N 
ATOM     40  H   LIG    1        4.886  -2.282  -1.437  0.00  0.00    -0.082 HD
ATOM     41  C   LIG    1        3.968  -3.721  -0.306  0.00  0.00    -0.096 C 
ATOM     42  C   LIG    1        3.389  -2.963  -2.671  0.00  0.00    -0.096 C 
ENDBRANCH  34  39
BRANCH  33  43
ATOM     43  O   LIG    1        1.095  -2.244  -0.106  0.00  0.00    -0.388 OA
ATOM     44  H   LIG    1        1.497  -3.077  -0.360  0.00  0.00    +0.210 HD
ENDBRANCH  33  43
BRANCH  35  45
ATOM     45  O   LIG    1        5.387  -0.029  -1.230  0.00  0.00    -0.347 OA
BRANCH  45  46
ATOM     46  C   LIG    1        5.957   0.170   0.035  0.00  0.00    +0.254 C 
ATOM     47  O   LIG    1        6.327   1.512   0.230  0.00  0.00    -0.345 OA
ATOM     48  C   LIG    1        7.370   1.996  -0.626  0.00  0.00    +0.162 C 
ATOM     49  C   LIG    1        7.562   3.485  -0.297  0.00  0.00    +0.042 C 
ATOM     50  C   LIG    1        8.660   1.159  -0.442  0.00  0.00    +0.236 C 
ATOM     51  C   LIG    1        8.379  -0.346  -0.678  0.00  0.00    +0.107 C 
ATOM     52  C   LIG    1        9.621  -1.198  -0.333  0.00  0.00    +0.045 C 
ATOM     53  C   LIG    1        7.169  -0.766   0.187  0.00  0.00    +0.099 C 
BRANCH  51  54
ATOM     54  O   LIG    1        8.106  -0.602  -2.047  0.00  0.00    -0.385 OA
ATOM     55  H   LIG    1        8.797  -0.193  -2.575  0.00  0.00    +0.210 HD
ENDBRANCH  51  54
BRANCH  50  56
ATOM     56  O   LIG    1        9.726   1.619  -1.284  0.00  0.00    -0.456 OA
BRANCH  56  57
ATOM     57  C   LIG    1       10.782   2.317  -0.801  0.00  0.00    +0.308 C 
ATOM     58  O   LIG    1       10.952   2.668   0.368  0.00  0.00    -0.251 OA
BRANCH  57  59
ATOM     59  C   LIG    1       11.808   2.652  -1.888  0.00  0.00    +0.123 C 
BRANCH  59  60
ATOM     60  C   LIG    1       12.511   1.419  -2.511  0.00  0.00    -0.007 C 
ATOM     61  C   LIG    1       13.391   1.848  -3.698  0.00  0.00    +0.008 C 
ATOM     62  C   LIG    1       13.332   0.606  -1.488  0.00  0.00    +0.008 C 
ENDBRANCH  59  60
ENDBRANCH  57  59
ENDBRANCH  56  57
ENDBRANCH  50  56
ENDBRANCH  45  46
ENDBRANCH  35  45
ENDBRANCH   1  32
TORSDOF 17
