REMARK  Name = DB01003
REMARK                            x       y       z     vdW  Elec       q    Type
REMARK                         _______ _______ _______ _____ _____    ______ ____
ROOT
ATOM      1  C   LIG    1        0.098   0.052   0.040  0.00  0.00    +0.189 C 
ENDROOT
BRANCH   1   2
ATOM      2  O   LIG    1       -0.394  -0.727   1.115  0.00  0.00    -0.385 OA
ATOM      3  H   LIG    1        0.040  -1.583   1.089  0.00  0.00    +0.210 HD
ENDBRANCH   1   2
BRANCH   1   4
ATOM      4  C   LIG    1        1.634   0.131   0.142  0.00  0.00    +0.263 C 
BRANCH   4   5
ATOM      5  O   LIG    1        2.182  -1.177  -0.011  0.00  0.00    -0.488 OA
BRANCH   5  15
ATOM      6  C   LIG    1        3.151  -3.906  -0.134  0.00  0.00    +0.197 A 
ATOM      7  O   LIG    1        1.924  -3.841  -0.192  0.00  0.00    -0.287 OA
ATOM      8  C   LIG    1        3.871  -5.175  -0.170  0.00  0.00    +0.105 A 
ATOM      9  C   LIG    1        5.222  -5.255  -0.103  0.00  0.00    +0.215 A 
ATOM     10  O   LIG    1        6.017  -4.153  -0.001  0.00  0.00    -0.448 OA
ATOM     11  C   LIG    1        5.441  -2.899   0.046  0.00  0.00    +0.143 A 
ATOM     12  C   LIG    1        6.326  -1.831   0.160  0.00  0.00    +0.047 A 
ATOM     13  C   LIG    1        5.833  -0.534   0.222  0.00  0.00    +0.007 A 
ATOM     14  C   LIG    1        4.461  -0.309   0.170  0.00  0.00    +0.046 A 
ATOM     15  C   LIG    1        3.552  -1.377   0.050  0.00  0.00    +0.135 A 
ATOM     16  C   LIG    1        4.048  -2.700  -0.013  0.00  0.00    +0.105 A 
BRANCH   9  17
ATOM     17  C   LIG    1        5.905  -6.538  -0.138  0.00  0.00    +0.373 C 
ATOM     18  O   LIG    1        5.341  -7.628  -0.235  0.00  0.00    -0.242 OA
BRANCH  17  19
ATOM     19  O   LIG    1        7.263  -6.416  -0.048  0.00  0.00    -0.475 OA
ATOM     20  H   LIG    1        7.706  -7.267  -0.070  0.00  0.00    +0.296 HD
ENDBRANCH  17  19
ENDBRANCH   9  17
ENDBRANCH   5  15
ENDBRANCH   4   5
ENDBRANCH   1   4
BRANCH   1  21
ATOM     21  C   LIG    1       -0.579   1.435   0.098  0.00  0.00    +0.263 C 
BRANCH  21  22
ATOM     22  O   LIG    1       -0.198   2.194  -1.047  0.00  0.00    -0.488 OA
BRANCH  22  23
ATOM     23  C   LIG    1       -0.652   3.493  -1.211  0.00  0.00    +0.135 A 
ATOM     24  C   LIG    1       -1.544   4.097  -0.305  0.00  0.00    +0.046 A 
ATOM     25  C   LIG    1       -1.990   5.402  -0.493  0.00  0.00    +0.007 A 
ATOM     26  C   LIG    1       -1.554   6.131  -1.591  0.00  0.00    +0.047 A 
ATOM     27  C   LIG    1       -0.671   5.551  -2.497  0.00  0.00    +0.143 A 
ATOM     28  O   LIG    1       -0.288   6.348  -3.556  0.00  0.00    -0.448 OA
ATOM     29  C   LIG    1        0.577   5.859  -4.490  0.00  0.00    +0.215 A 
ATOM     30  C   LIG    1        1.087   4.606  -4.423  0.00  0.00    +0.105 A 
ATOM     31  C   LIG    1        0.758   3.674  -3.349  0.00  0.00    +0.197 A 
ATOM     32  O   LIG    1        1.231   2.539  -3.291  0.00  0.00    -0.287 OA
ATOM     33  C   LIG    1       -0.203   4.233  -2.330  0.00  0.00    +0.105 A 
BRANCH  29  34
ATOM     34  C   LIG    1        0.928   6.760  -5.574  0.00  0.00    +0.373 C 
ATOM     35  O   LIG    1        1.678   6.474  -6.508  0.00  0.00    -0.242 OA
BRANCH  34  36
ATOM     36  O   LIG    1        0.333   7.985  -5.457  0.00  0.00    -0.475 OA
ATOM     37  H   LIG    1        0.571   8.576  -6.175  0.00  0.00    +0.296 HD
ENDBRANCH  34  36
ENDBRANCH  29  34
ENDBRANCH  22  23
ENDBRANCH  21  22
ENDBRANCH   1  21
TORSDOF 11
