REMARK  Name = DB01147
REMARK                            x       y       z     vdW  Elec       q    Type
REMARK                         _______ _______ _______ _____ _____    ______ ____
ROOT
ATOM      1  C   LIG    1       -0.909   0.918  -0.266  0.00  0.00    +0.250 C 
ATOM      2  N   LIG    1       -0.102   0.001   0.296  0.00  0.00    -0.298 N 
ATOM      3  H   LIG    1       -0.524  -0.771   0.790  0.00  0.00    +0.150 HD
ATOM      4  O   LIG    1       -0.509   1.889  -0.909  0.00  0.00    -0.270 OA
ENDROOT
BRANCH   2   5
ATOM      5  CA  LIG    1        1.359  -0.023   0.199  0.00  0.00    +0.190 C 
ATOM      6  C   LIG    1        1.924  -0.688  -1.079  0.00  0.00    +0.240 C 
ATOM      7  N   LIG    1        2.747  -1.517  -0.309  0.00  0.00    -0.271 N 
ATOM      8  CA  LIG    1        2.952  -2.947  -0.582  0.00  0.00    +0.201 C 
ATOM      9  C   LIG    1        2.607  -3.698   0.754  0.00  0.00    +0.042 C 
ATOM     10  C   LIG    1        2.155  -5.160   0.561  0.00  0.00    +0.025 C 
ATOM     11  C   LIG    1        3.781  -3.704   1.776  0.00  0.00    +0.025 C 
ATOM     12  S   LIG    1        1.310  -2.672   1.512  0.00  0.00    -0.127 S 
ATOM     13  O   LIG    1        1.690  -0.616  -2.284  0.00  0.00    -0.273 OA
ATOM     14  C   LIG    1        2.104  -1.133   0.975  0.00  0.00    +0.165 C 
BRANCH   8  15
ATOM     15  C   LIG    1        4.343  -3.272  -1.170  0.00  0.00    +0.327 C 
ATOM     16  OXT LIG    1        5.282  -2.502  -1.168  0.00  0.00    -0.249 OA
BRANCH  15  17
ATOM     17  O   LIG    1        4.346  -4.521  -1.718  0.00  0.00    -0.479 OA
ATOM     18  H   LIG    1        5.192  -4.745  -2.110  0.00  0.00    +0.295 HD
ENDBRANCH  15  17
ENDBRANCH   8  15
ENDBRANCH   2   5
BRANCH   1  20
ATOM     19  C   LIG    1       -3.345   1.643   0.046  0.00  0.00    +0.127 A 
ATOM     20  C   LIG    1       -2.314   0.685  -0.042  0.00  0.00    +0.106 A 
ATOM     21  C   LIG    1       -2.987  -0.533   0.005  0.00  0.00    +0.147 A 
ATOM     22  C   LIG    1       -2.588  -1.990  -0.091  0.00  0.00    +0.090 C 
ATOM     23  O   LIG    1       -4.310  -0.297   0.175  0.00  0.00    -0.359 OA
ATOM     24  N   LIG    1       -4.525   1.078   0.192  0.00  0.00    -0.077 NA
BRANCH  19  31
ATOM     25 CL   LIG    1       -4.849   3.199  -2.226  0.00  0.00    -0.083 Cl
ATOM     26  C   LIG    1       -3.889   3.916  -0.977  0.00  0.00    +0.050 A 
ATOM     27  C   LIG    1       -3.748   5.305  -0.964  0.00  0.00    +0.020 A 
ATOM     28  C   LIG    1       -2.965   5.926   0.007  0.00  0.00    +0.001 A 
ATOM     29  C   LIG    1       -2.315   5.158   0.971  0.00  0.00    +0.001 A 
ATOM     30  C   LIG    1       -2.452   3.771   0.965  0.00  0.00    +0.011 A 
ATOM     31  C   LIG    1       -3.241   3.135  -0.002  0.00  0.00    +0.023 A 
ENDBRANCH  19  31
ENDBRANCH   1  20
TORSDOF 5
