REMARK  Name = DB01187
REMARK                            x       y       z     vdW  Elec       q    Type
REMARK                         _______ _______ _______ _____ _____    ______ ____
ROOT
ATOM      1  C   LIG    1       -2.084   1.501   0.149  0.00  0.00    +0.001 C 
ENDROOT
BRANCH   1   2
ATOM      2  C   LIG    1       -2.752   0.915   1.412  0.00  0.00    +0.008 C 
BRANCH   2   3
ATOM      3  C   LIG    1       -4.298   0.998   1.408  0.00  0.00    +0.017 C 
ATOM      4  C   LIG    1       -4.914   0.216   2.586  0.00  0.00    +0.012 C 
BRANCH   3  11
ATOM      5  I   LIG    1       -5.676   1.895  -1.587  0.00  0.00    -0.044 I 
ATOM      6  C   LIG    1       -5.414   2.984   0.188  0.00  0.00    +0.017 A 
ATOM      7  C   LIG    1       -5.859   4.308   0.185  0.00  0.00    +0.014 A 
ATOM      8  C   LIG    1       -5.708   5.109   1.315  0.00  0.00    +0.001 A 
ATOM      9  C   LIG    1       -5.106   4.590   2.457  0.00  0.00    +0.000 A 
ATOM     10  C   LIG    1       -4.658   3.270   2.469  0.00  0.00    +0.005 A 
ATOM     11  C   LIG    1       -4.811   2.446   1.343  0.00  0.00    -0.031 A 
ENDBRANCH   3  11
ENDBRANCH   2   3
ENDBRANCH   1   2
BRANCH   1  12
ATOM     12  C   LIG    1       -0.545   1.424   0.148  0.00  0.00    +0.000 C 
BRANCH  12  13
ATOM     13  C   LIG    1        0.018  -0.008   0.063  0.00  0.00    +0.000 C 
BRANCH  13  14
ATOM     14  C   LIG    1        1.554  -0.044  -0.030  0.00  0.00    +0.000 C 
BRANCH  14  15
ATOM     15  C   LIG    1        2.113  -1.475  -0.128  0.00  0.00    +0.001 C 
BRANCH  15  16
ATOM     16  C   LIG    1        3.652  -1.518  -0.228  0.00  0.00    +0.011 C 
BRANCH  16  17
ATOM     17  C   LIG    1        4.255  -2.939  -0.240  0.00  0.00    +0.120 C 
BRANCH  17  18
ATOM     18  C   LIG    1        3.890  -3.752  -1.486  0.00  0.00    +0.307 C 
ATOM     19  O   LIG    1        4.535  -3.645  -2.530  0.00  0.00    -0.251 OA
BRANCH  18  20
ATOM     20  O   LIG    1        2.816  -4.545  -1.288  0.00  0.00    -0.465 OA
BRANCH  20  21
ATOM     21  C   LIG    1        2.317  -5.362  -2.338  0.00  0.00    +0.229 C 
ATOM     22  C   LIG    1        1.050  -6.080  -1.862  0.00  0.00    +0.048 C 
ENDBRANCH  20  21
ENDBRANCH  18  20
ENDBRANCH  17  18
ENDBRANCH  16  17
ENDBRANCH  15  16
ENDBRANCH  14  15
ENDBRANCH  13  14
ENDBRANCH  12  13
ENDBRANCH   1  12
TORSDOF 12
