REMARK  Name = DB01239
REMARK                            x       y       z     vdW  Elec       q    Type
REMARK                         _______ _______ _______ _____ _____    ______ ____
ROOT
ATOM      1  C   LIG    1        1.470  -0.050   2.467  0.00  0.00    -0.017 C 
ATOM      2  C   LIG    1        2.195  -0.069   3.616  0.00  0.00    -0.012 C 
ATOM      3  C   LIG    1        3.533  -0.723   3.774  0.00  0.00    -0.002 A 
ATOM      4  C   LIG    1        3.819  -1.927   3.109  0.00  0.00    +0.029 A 
ATOM      5  C   LIG    1        5.069  -2.537   3.216  0.00  0.00    +0.042 A 
ATOM      6 CL   LIG    1        5.386  -4.011   2.376  0.00  0.00    -0.084 Cl
ATOM      7  C   LIG    1        6.059  -1.955   4.002  0.00  0.00    +0.021 A 
ATOM      8  C   LIG    1        5.789  -0.778   4.694  0.00  0.00    +0.017 A 
ATOM      9  C   LIG    1        4.530  -0.179   4.608  0.00  0.00    +0.021 A 
ATOM     10  S   LIG    1        4.237   1.314   5.505  0.00  0.00    -0.088 S 
ATOM     11  C   LIG    1        2.499   1.187   5.800  0.00  0.00    +0.020 A 
ATOM     12  C   LIG    1        1.962   1.809   6.930  0.00  0.00    +0.015 A 
ATOM     13  C   LIG    1        0.591   1.777   7.169  0.00  0.00    +0.001 A 
ATOM     14  C   LIG    1       -0.253   1.137   6.267  0.00  0.00    +0.001 A 
ATOM     15  C   LIG    1        0.275   0.536   5.126  0.00  0.00    +0.009 A 
ATOM     16  C   LIG    1        1.657   0.551   4.867  0.00  0.00    -0.004 A 
ENDROOT
BRANCH   1  17
ATOM     17  C   LIG    1        1.861  -0.550   1.079  0.00  0.00    +0.043 C 
BRANCH  17  18
ATOM     18  C   LIG    1        1.414   0.360  -0.089  0.00  0.00    +0.088 C 
BRANCH  18  20
ATOM     19  C   LIG    1       -0.301   1.647  -1.158  0.00  0.00    +0.104 C 
ATOM     20  N   LIG    1       -0.024   0.651  -0.127  0.00  0.00    -0.308 NA
ATOM     21  C   LIG    1       -0.824  -0.545  -0.385  0.00  0.00    +0.104 C 
ENDBRANCH  18  20
ENDBRANCH  17  18
ENDBRANCH   1  17
TORSDOF 3
