REMARK  Name = DB01170
REMARK                            x       y       z     vdW  Elec       q    Type
REMARK                         _______ _______ _______ _____ _____    ______ ____
ROOT
ATOM      1  C   LIG    1        1.658  -1.589   0.137  0.00  0.00    +0.125 C 
ENDROOT
BRANCH   1   2
ATOM      2  N   LIG    1        2.256  -1.953  -1.158  0.00  0.00    -0.299 NA
ATOM      3  C   LIG    1        3.690  -1.629  -1.227  0.00  0.00    +0.084 C 
ATOM      4  C   LIG    1        4.417  -2.049  -2.528  0.00  0.00    +0.015 C 
ATOM      5  C   LIG    1        5.309  -3.302  -2.390  0.00  0.00    +0.001 C 
ATOM      6  C   LIG    1        4.602  -4.648  -2.113  0.00  0.00    +0.000 C 
ATOM      7  C   LIG    1        3.901  -4.758  -0.740  0.00  0.00    +0.001 C 
ATOM      8  C   LIG    1        2.379  -4.499  -0.749  0.00  0.00    +0.015 C 
ATOM      9  C   LIG    1        1.847  -3.303  -1.575  0.00  0.00    +0.084 C 
ENDBRANCH   1   2
BRANCH   1  10
ATOM     10  C   LIG    1        1.724  -0.086   0.510  0.00  0.00    +0.258 C 
BRANCH  10  11
ATOM     11  N   LIG    1        1.190   0.750  -0.561  0.00  0.00    -0.112 NA
ATOM     12  C   LIG    1        0.150   1.465  -0.385  0.00  0.00    +0.377 C 
BRANCH  12  13
ATOM     13  N   LIG    1       -0.439   1.828   0.851  0.00  0.00    -0.289 N 
ATOM     14  H   LIG    1       -0.892   2.728   0.906  0.00  0.00    +0.255 HD
ATOM     15  H   LIG    1        0.089   1.638   1.690  0.00  0.00    +0.255 HD
ENDBRANCH  12  13
BRANCH  12  16
ATOM     16  N   LIG    1       -0.546   2.034  -1.471  0.00  0.00    -0.289 N 
ATOM     17  H   LIG    1       -0.987   2.930  -1.329  0.00  0.00    +0.255 HD
ATOM     18  H   LIG    1       -0.106   1.987  -2.378  0.00  0.00    +0.255 HD
ENDBRANCH  12  16
ENDBRANCH  10  11
ENDBRANCH   1  10
TORSDOF 5
