REMARK  Name = DB01421
REMARK                            x       y       z     vdW  Elec       q    Type
REMARK                         _______ _______ _______ _____ _____    ______ ____
ROOT
ATOM      1  C   LIG    1        1.141   0.089  -0.390  0.00  0.00    +0.182 C 
ATOM      2  C   LIG    1        1.296   0.388  -1.913  0.00  0.00    +0.163 C 
ATOM      3  C   LIG    1        2.772   0.305  -2.397  0.00  0.00    +0.084 C 
ATOM      4  C   LIG    1        3.430  -1.021  -1.972  0.00  0.00    +0.042 C 
ATOM      5  C   LIG    1        3.335  -1.276  -0.456  0.00  0.00    +0.084 C 
ATOM      6  C   LIG    1        1.854  -1.244  -0.001  0.00  0.00    +0.169 C 
ENDROOT
BRANCH   5   7
ATOM      7  N   LIG    1        4.030  -2.501  -0.091  0.00  0.00    -0.325 NA
ATOM      8  H   LIG    1        4.982  -2.467  -0.427  0.00  0.00    +0.119 HD
ATOM      9  H   LIG    1        3.592  -3.291  -0.542  0.00  0.00    +0.119 HD
ENDBRANCH   5   7
BRANCH   3  10
ATOM     10  N   LIG    1        2.942   0.546  -3.821  0.00  0.00    -0.325 NA
ATOM     11  H   LIG    1        2.486   1.414  -4.068  0.00  0.00    +0.119 HD
ATOM     12  H   LIG    1        2.473  -0.178  -4.347  0.00  0.00    +0.119 HD
ENDBRANCH   3  10
BRANCH   2  13
ATOM     13  O   LIG    1        0.755   1.648  -2.268  0.00  0.00    -0.388 OA
ATOM     14  H   LIG    1        1.244   2.333  -1.806  0.00  0.00    +0.210 HD
ENDBRANCH   2  13
BRANCH   1  15
ATOM     15  O   LIG    1       -0.232  -0.029   0.000  0.00  0.00    -0.340 OA
BRANCH  15  16
ATOM     16  C   LIG    1       -0.897   1.146   0.372  0.00  0.00    +0.282 C 
ATOM     17  C   LIG    1       -2.341   0.802   0.693  0.00  0.00    +0.202 C 
ATOM     18  C   LIG    1       -2.698   2.002   1.562  0.00  0.00    +0.186 C 
ATOM     19  C   LIG    1       -1.414   2.298   2.347  0.00  0.00    +0.178 C 
ATOM     20  O   LIG    1       -0.393   1.679   1.562  0.00  0.00    -0.341 OA
BRANCH  17  21
ATOM     21  O   LIG    1       -3.116   0.630  -0.479  0.00  0.00    -0.384 OA
ATOM     22  H   LIG    1       -2.856  -0.195  -0.896  0.00  0.00    +0.210 HD
ENDBRANCH  17  21
BRANCH  19  23
ATOM     23  C   LIG    1       -1.399   1.694   3.764  0.00  0.00    +0.190 C 
BRANCH  23  24
ATOM     24  O   LIG    1       -0.180   1.970   4.424  0.00  0.00    -0.392 OA
ATOM     25  H   LIG    1       -0.192   1.539   5.282  0.00  0.00    +0.210 HD
ENDBRANCH  23  24
ENDBRANCH  19  23
BRANCH  18  26
ATOM     26  O   LIG    1       -2.970   3.140   0.734  0.00  0.00    -0.341 OA
BRANCH  26  27
ATOM     27  C   LIG    1       -4.128   3.856   1.046  0.00  0.00    +0.270 C 
ATOM     28  C   LIG    1       -4.288   4.983   0.007  0.00  0.00    +0.139 C 
ATOM     29  C   LIG    1       -5.555   5.810   0.349  0.00  0.00    +0.167 C 
ATOM     30  C   LIG    1       -5.594   6.232   1.839  0.00  0.00    +0.175 C 
ATOM     31  C   LIG    1       -5.266   5.026   2.760  0.00  0.00    +0.166 C 
ATOM     32  O   LIG    1       -4.037   4.418   2.333  0.00  0.00    -0.343 OA
BRANCH  28  33
ATOM     33  N   LIG    1       -3.103   5.805  -0.186  0.00  0.00    -0.321 NA
ATOM     34  H   LIG    1       -2.328   5.220  -0.464  0.00  0.00    +0.119 HD
ATOM     35  H   LIG    1       -2.845   6.234   0.692  0.00  0.00    +0.119 HD
ENDBRANCH  28  33
BRANCH  30  36
ATOM     36  O   LIG    1       -4.736   7.337   2.075  0.00  0.00    -0.387 OA
ATOM     37  H   LIG    1       -5.055   8.085   1.564  0.00  0.00    +0.210 HD
ENDBRANCH  30  36
BRANCH  29  38
ATOM     38  O   LIG    1       -6.732   5.115  -0.023  0.00  0.00    -0.387 OA
ATOM     39  H   LIG    1       -6.774   4.296   0.477  0.00  0.00    +0.210 HD
ENDBRANCH  29  38
BRANCH  31  40
ATOM     40  C   LIG    1       -5.158   5.405   4.253  0.00  0.00    +0.112 C 
BRANCH  40  41
ATOM     41  N   LIG    1       -5.042   4.220   5.084  0.00  0.00    -0.328 NA
ATOM     42  H   LIG    1       -4.948   4.493   6.052  0.00  0.00    +0.118 HD
ATOM     43  H   LIG    1       -4.194   3.726   4.843  0.00  0.00    +0.118 HD
ENDBRANCH  40  41
ENDBRANCH  31  40
ENDBRANCH  26  27
ENDBRANCH  18  26
ENDBRANCH  15  16
ENDBRANCH   1  15
BRANCH   6  44
ATOM     44  O   LIG    1        1.731  -1.716   1.350  0.00  0.00    -0.342 OA
BRANCH  44  45
ATOM     45  C   LIG    1        1.659  -0.844   2.448  0.00  0.00    +0.270 C 
ATOM     46  C   LIG    1        2.793  -1.165   3.439  0.00  0.00    +0.139 C 
ATOM     47  C   LIG    1        2.596  -2.576   4.040  0.00  0.00    +0.167 C 
ATOM     48  C   LIG    1        1.161  -2.753   4.586  0.00  0.00    +0.176 C 
ATOM     49  C   LIG    1        0.105  -2.288   3.553  0.00  0.00    +0.178 C 
ATOM     50  O   LIG    1        0.412  -0.962   3.088  0.00  0.00    -0.342 OA
BRANCH  46  51
ATOM     51  N   LIG    1        4.115  -0.932   2.879  0.00  0.00    -0.321 NA
ATOM     52  H   LIG    1        4.814  -1.138   3.578  0.00  0.00    +0.119 HD
ATOM     53  H   LIG    1        4.220   0.049   2.661  0.00  0.00    +0.119 HD
ENDBRANCH  46  51
BRANCH  48  54
ATOM     54  O   LIG    1        0.938  -4.095   4.986  0.00  0.00    -0.387 OA
ATOM     55  H   LIG    1        1.575  -4.319   5.669  0.00  0.00    +0.210 HD
ENDBRANCH  48  54
BRANCH  47  56
ATOM     56  O   LIG    1        3.541  -2.825   5.070  0.00  0.00    -0.387 OA
ATOM     57  H   LIG    1        3.417  -2.172   5.763  0.00  0.00    +0.210 HD
ENDBRANCH  47  56
BRANCH  49  58
ATOM     58  C   LIG    1       -1.324  -2.286   4.139  0.00  0.00    +0.190 C 
BRANCH  58  59
ATOM     59  O   LIG    1       -2.287  -2.035   3.136  0.00  0.00    -0.392 OA
ATOM     60  H   LIG    1       -3.160  -2.086   3.531  0.00  0.00    +0.210 HD
ENDBRANCH  58  59
ENDBRANCH  49  58
ENDBRANCH  44  45
ENDBRANCH   6  44
TORSDOF 22
