REMARK  Name = DB01075
REMARK                            x       y       z     vdW  Elec       q    Type
REMARK                         _______ _______ _______ _____ _____    ______ ____
ROOT
ATOM      1  C   LIG    1       -0.674   1.286  -0.140  0.00  0.00    +0.178 C 
ENDROOT
BRANCH   1   2
ATOM      2  C   LIG    1       -0.519   1.908  -1.531  0.00  0.00    -0.015 A 
ATOM      3  C   LIG    1       -0.893   1.185  -2.668  0.00  0.00    +0.006 A 
ATOM      4  C   LIG    1       -0.737   1.746  -3.933  0.00  0.00    +0.000 A 
ATOM      5  C   LIG    1       -0.203   3.027  -4.059  0.00  0.00    +0.000 A 
ATOM      6  C   LIG    1        0.177   3.751  -2.931  0.00  0.00    +0.000 A 
ATOM      7  C   LIG    1        0.021   3.191  -1.666  0.00  0.00    +0.006 A 
ENDBRANCH   1   2
BRANCH   1   8
ATOM      8  C   LIG    1       -2.141   1.055   0.234  0.00  0.00    -0.015 A 
ATOM      9  C   LIG    1       -2.693  -0.232   0.269  0.00  0.00    +0.006 A 
ATOM     10  C   LIG    1       -4.027  -0.411   0.626  0.00  0.00    +0.000 A 
ATOM     11  C   LIG    1       -4.809   0.694   0.953  0.00  0.00    +0.000 A 
ATOM     12  C   LIG    1       -4.268   1.977   0.927  0.00  0.00    +0.000 A 
ATOM     13  C   LIG    1       -2.935   2.156   0.571  0.00  0.00    +0.006 A 
ENDBRANCH   1   8
BRANCH   1  14
ATOM     14  O   LIG    1        0.061   0.061  -0.048  0.00  0.00    -0.366 OA
BRANCH  14  15
ATOM     15  C   LIG    1        1.481   0.173  -0.108  0.00  0.00    +0.176 C 
BRANCH  15  16
ATOM     16  C   LIG    1        2.138  -1.212   0.069  0.00  0.00    +0.112 C 
BRANCH  16  17
ATOM     17  N   LIG    1        2.119  -2.048  -1.139  0.00  0.00    -0.306 NA
ATOM     18  C   LIG    1        0.770  -2.435  -1.547  0.00  0.00    +0.104 C 
ATOM     19  C   LIG    1        2.911  -3.253  -0.909  0.00  0.00    +0.104 C 
ENDBRANCH  16  17
ENDBRANCH  15  16
ENDBRANCH  14  15
ENDBRANCH   1  14
TORSDOF 6
