REMARK  Name = DB01000
REMARK                            x       y       z     vdW  Elec       q    Type
REMARK                         _______ _______ _______ _____ _____    ______ ____
ROOT
ATOM      1  S   LIG    1        1.329  -2.837   1.460  0.00  0.00    -0.127 S 
ATOM      2  C   LIG    1        2.702  -3.790   0.742  0.00  0.00    +0.042 C 
ATOM      3  C   LIG    1        2.293  -5.241   0.415  0.00  0.00    +0.025 C 
ATOM      4  C   LIG    1        3.789  -3.850   1.855  0.00  0.00    +0.025 C 
ATOM      5  CA  LIG    1        3.140  -2.946  -0.509  0.00  0.00    +0.201 C 
ATOM      6  N   LIG    1        2.876  -1.542  -0.163  0.00  0.00    -0.271 N 
ATOM      7  C   LIG    1        2.093  -0.679  -0.938  0.00  0.00    +0.240 C 
ATOM      8  CA  LIG    1        1.428  -0.102   0.343  0.00  0.00    +0.190 C 
ATOM      9  O   LIG    1        1.953  -0.538  -2.152  0.00  0.00    -0.273 OA
ATOM     10  C   LIG    1        2.133  -1.255   1.092  0.00  0.00    +0.165 C 
ENDROOT
BRANCH   8  11
ATOM     11  N   LIG    1       -0.040  -0.056   0.406  0.00  0.00    -0.300 N 
ATOM     12  H   LIG    1       -0.436  -0.324   1.295  0.00  0.00    +0.150 HD
ATOM     13  C   LIG    1       -0.886   0.521  -0.475  0.00  0.00    +0.234 C 
ATOM     14  O   LIG    1       -0.476   1.097  -1.485  0.00  0.00    -0.274 OA
BRANCH  13  15
ATOM     15  C   LIG    1       -2.424   0.462  -0.178  0.00  0.00    +0.094 C 
ATOM     16  C   LIG    1       -2.939   1.937  -0.156  0.00  0.00    +0.031 C 
ATOM     17  C   LIG    1       -4.479   2.042  -0.090  0.00  0.00    +0.002 C 
ATOM     18  C   LIG    1       -5.141   1.282  -1.258  0.00  0.00    +0.000 C 
ATOM     19  C   LIG    1       -4.642  -0.173  -1.363  0.00  0.00    +0.002 C 
ATOM     20  C   LIG    1       -3.098  -0.237  -1.401  0.00  0.00    +0.031 C 
BRANCH  15  21
ATOM     21  N   LIG    1       -2.747  -0.226   1.074  0.00  0.00    -0.317 NA
ATOM     22  H   LIG    1       -3.722  -0.077   1.293  0.00  0.00    +0.119 HD
ATOM     23  H   LIG    1       -2.219   0.184   1.831  0.00  0.00    +0.119 HD
ENDBRANCH  15  21
ENDBRANCH  13  15
ENDBRANCH   8  11
BRANCH   5  24
ATOM     24  C   LIG    1        4.584  -3.203  -0.994  0.00  0.00    +0.327 C 
ATOM     25  OXT LIG    1        5.497  -2.410  -0.872  0.00  0.00    -0.249 OA
BRANCH  24  26
ATOM     26  O   LIG    1        4.671  -4.421  -1.601  0.00  0.00    -0.479 OA
ATOM     27  H   LIG    1        5.555  -4.601  -1.930  0.00  0.00    +0.295 HD
ENDBRANCH  24  26
ENDBRANCH   5  24
TORSDOF 5
