REMARK  Name = DB01235
REMARK                            x       y       z     vdW  Elec       q    Type
REMARK                         _______ _______ _______ _____ _____    ______ ____
ROOT
ATOM      1  C   LIG    1       -0.565   3.698   0.932  0.00  0.00    +0.158 A 
ATOM      2  C   LIG    1       -1.567   4.054   0.020  0.00  0.00    +0.158 A 
ATOM      3  C   LIG    1       -2.024   3.117  -0.907  0.00  0.00    +0.049 A 
ATOM      4  C   LIG    1       -1.484   1.831  -0.930  0.00  0.00    +0.007 A 
ATOM      5  C   LIG    1       -0.477   1.468  -0.030  0.00  0.00    -0.042 A 
ATOM      6  C   LIG    1       -0.028   2.409   0.905  0.00  0.00    +0.053 A 
ENDROOT
BRANCH   1   7
ATOM      7  O   LIG    1       -0.098   4.598   1.857  0.00  0.00    -0.503 OA
ATOM      8  H   LIG    1        0.594   4.237   2.416  0.00  0.00    +0.292 HD
ENDBRANCH   1   7
BRANCH   2   9
ATOM      9  O   LIG    1       -2.114   5.314   0.022  0.00  0.00    -0.503 OA
ATOM     10  H   LIG    1       -2.788   5.432  -0.650  0.00  0.00    +0.292 HD
ENDBRANCH   2   9
BRANCH   5  11
ATOM     11  C   LIG    1        0.097   0.050  -0.064  0.00  0.00    +0.065 C 
BRANCH  11  12
ATOM     12  CA  LIG    1        1.643  -0.015   0.052  0.00  0.00    +0.165 C 
BRANCH  12  13
ATOM     13  N   LIG    1        2.346   0.787  -0.969  0.00  0.00    -0.318 NA
ATOM     14  H1  LIG    1        1.946   0.655  -1.887  0.00  0.00    +0.119 HD
ATOM     15  H2  LIG    1        3.326   0.548  -1.022  0.00  0.00    +0.119 HD
ENDBRANCH  12  13
BRANCH  12  16
ATOM     16  C   LIG    1        2.149  -1.473  -0.034  0.00  0.00    +0.322 C 
ATOM     17  OXT LIG    1        2.638  -1.975  -1.047  0.00  0.00    -0.249 OA
BRANCH  16  18
ATOM     18  O   LIG    1        1.958  -2.124   1.150  0.00  0.00    -0.480 OA
ATOM     19  H   LIG    1        2.260  -3.035   1.118  0.00  0.00    +0.295 HD
ENDBRANCH  16  18
ENDBRANCH  12  16
ENDBRANCH  11  12
ENDBRANCH   5  11
TORSDOF 7
