REMARK  Name = DB01179
REMARK                            x       y       z     vdW  Elec       q    Type
REMARK                         _______ _______ _______ _____ _____    ______ ____
ROOT
ATOM      1  O   LIG    1        4.208   2.671   3.874  0.00  0.00    -0.464 OA
ATOM      2  C   LIG    1        3.548   2.849   2.704  0.00  0.00    +0.312 C 
ATOM      3  C   LIG    1        4.571   2.952   1.575  0.00  0.00    +0.118 C 
ATOM      4  C   LIG    1        4.275   2.456   0.134  0.00  0.00    +0.064 C 
ATOM      5  C   LIG    1        5.576   2.409  -0.699  0.00  0.00    -0.030 A 
ATOM      6  C   LIG    1        5.482   2.319  -2.101  0.00  0.00    +0.054 A 
ATOM      7  C   LIG    1        6.641   2.172  -2.846  0.00  0.00    +0.167 A 
ATOM      8  C   LIG    1        7.865   2.128  -2.255  0.00  0.00    +0.167 A 
ATOM      9  C   LIG    1        8.012   2.233  -0.881  0.00  0.00    +0.056 A 
ATOM     10  O   LIG    1        8.825   2.029  -3.211  0.00  0.00    -0.453 OA
ATOM     11  C   LIG    1        8.138   1.783  -4.409  0.00  0.00    +0.466 C 
ATOM     12  O   LIG    1        6.786   2.090  -4.194  0.00  0.00    -0.453 OA
ATOM     13  C   LIG    1        6.863   2.346  -0.072  0.00  0.00    -0.011 A 
ATOM     14  C   LIG    1        7.011   2.625   1.437  0.00  0.00    +0.152 C 
ATOM     15  C   LIG    1        5.737   2.220   2.198  0.00  0.00    +0.074 C 
ATOM     16  O   LIG    1        2.321   2.881   2.641  0.00  0.00    -0.250 OA
ATOM     17  C   LIG    1        5.619   2.591   3.674  0.00  0.00    +0.239 C 
ENDROOT
BRANCH   4  18
ATOM     18  C   LIG    1        3.483   1.137   0.067  0.00  0.00    -0.032 A 
ATOM     19  C   LIG    1        2.091   1.169  -0.051  0.00  0.00    +0.054 A 
ATOM     20  C   LIG    1        1.339  -0.014  -0.123  0.00  0.00    +0.165 A 
ATOM     21  C   LIG    1        2.010  -1.244  -0.085  0.00  0.00    +0.204 A 
ATOM     22  C   LIG    1        3.406  -1.303   0.011  0.00  0.00    +0.165 A 
ATOM     23  C   LIG    1        4.130  -0.103   0.091  0.00  0.00    +0.054 A 
BRANCH  22  24
ATOM     24  O   LIG    1        3.989  -2.557   0.020  0.00  0.00    -0.491 OA
ATOM     25  C   LIG    1        5.406  -2.669   0.100  0.00  0.00    +0.277 C 
ENDBRANCH  22  24
BRANCH  21  26
ATOM     26  O   LIG    1        1.290  -2.412  -0.174  0.00  0.00    -0.488 OA
ATOM     27  C   LIG    1        0.878  -2.935   1.082  0.00  0.00    +0.277 C 
ENDBRANCH  21  26
BRANCH  20  28
ATOM     28  O   LIG    1       -0.040  -0.048  -0.230  0.00  0.00    -0.491 OA
ATOM     29  C   LIG    1       -0.769   1.175  -0.246  0.00  0.00    +0.277 C 
ENDBRANCH  20  28
ENDBRANCH   4  18
BRANCH  14  30
ATOM     30  O   LIG    1        8.147   2.033   2.039  0.00  0.00    -0.387 OA
ATOM     31  H   LIG    1        8.012   1.084   2.076  0.00  0.00    +0.210 HD
ENDBRANCH  14  30
TORSDOF 5
