REMARK  Name = DB01009
REMARK                            x       y       z     vdW  Elec       q    Type
REMARK                         _______ _______ _______ _____ _____    ______ ____
ROOT
ATOM      1  C   LIG    1        1.343   0.095  -0.006  0.00  0.00    -0.033 A 
ATOM      2  C   LIG    1        2.001  -0.493  -1.091  0.00  0.00    +0.004 A 
ATOM      3  C   LIG    1        3.387  -0.414  -1.203  0.00  0.00    +0.001 A 
ATOM      4  C   LIG    1        4.130   0.257  -0.234  0.00  0.00    +0.012 A 
ATOM      5  C   LIG    1        3.495   0.875   0.854  0.00  0.00    +0.023 A 
ATOM      6  C   LIG    1        2.101   0.763   0.967  0.00  0.00    +0.016 A 
ENDROOT
BRANCH   1   7
ATOM      7  C   LIG    1       -0.180  -0.020   0.117  0.00  0.00    +0.124 C 
ATOM      8  C   LIG    1       -0.871   1.354   0.267  0.00  0.00    +0.024 C 
BRANCH   7   9
ATOM      9  C   LIG    1       -0.556  -0.990   1.254  0.00  0.00    +0.312 C 
ATOM     10  O   LIG    1       -0.667  -0.649   2.431  0.00  0.00    -0.250 OA
BRANCH   9  11
ATOM     11  O   LIG    1       -0.712  -2.268   0.801  0.00  0.00    -0.480 OA
ATOM     12  H   LIG    1       -0.930  -2.880   1.508  0.00  0.00    +0.295 HD
ENDBRANCH   9  11
ENDBRANCH   7   9
ENDBRANCH   1   7
BRANCH   5  13
ATOM     13  C   LIG    1        4.281   1.558   1.938  0.00  0.00    +0.193 C 
ATOM     14  O   LIG    1        3.836   1.576   3.089  0.00  0.00    -0.287 OA
BRANCH  13  15
ATOM     15  C   LIG    1        5.598   2.216   1.643  0.00  0.00    +0.022 A 
ATOM     16  C   LIG    1        5.857   2.801   0.395  0.00  0.00    +0.012 A 
ATOM     17  C   LIG    1        7.068   3.445   0.155  0.00  0.00    +0.001 A 
ATOM     18  C   LIG    1        8.021   3.525   1.167  0.00  0.00    +0.000 A 
ATOM     19  C   LIG    1        7.768   2.974   2.420  0.00  0.00    +0.001 A 
ATOM     20  C   LIG    1        6.557   2.331   2.661  0.00  0.00    +0.012 A 
ENDBRANCH  13  15
ENDBRANCH   5  13
TORSDOF 5
