REMARK  Name = DB01936
REMARK                            x       y       z     vdW  Elec       q    Type
REMARK                         _______ _______ _______ _____ _____    ______ ____
ROOT
ATOM      1  C   LIG    1        1.555   0.163  -0.037  0.00  0.00    +0.178 C 
ATOM      2  C   LIG    1        2.239   0.683  -1.309  0.00  0.00    +0.179 C 
ATOM      3  C   LIG    1        3.564  -0.070  -1.337  0.00  0.00    +0.201 C 
ATOM      4  C   LIG    1        3.084  -1.420  -0.814  0.00  0.00    +0.279 C 
ATOM      5  O   LIG    1        2.139  -1.121   0.166  0.00  0.00    -0.341 OA
ENDROOT
BRANCH   2   6
ATOM      6  O   LIG    1        2.419   2.087  -1.307  0.00  0.00    -0.386 OA
ATOM      7  H   LIG    1        1.577   2.501  -1.101  0.00  0.00    +0.210 HD
ENDBRANCH   2   6
BRANCH   3   8
ATOM      8  O   LIG    1        4.145  -0.198  -2.623  0.00  0.00    -0.384 OA
ATOM      9  H   LIG    1        4.496   0.658  -2.882  0.00  0.00    +0.210 HD
ENDBRANCH   3   8
BRANCH   4  10
ATOM     10  O   LIG    1        4.170  -2.109  -0.334  0.00  0.00    -0.365 OA
ATOM     11  H   LIG    1        4.672  -2.428  -1.087  0.00  0.00    +0.213 HD
ENDBRANCH   4  10
BRANCH   1  12
ATOM     12  C   LIG    1        0.026  -0.006  -0.119  0.00  0.00    +0.190 C 
BRANCH  12  13
ATOM     13  O   LIG    1       -0.615   1.252  -0.092  0.00  0.00    -0.392 OA
ATOM     14  H   LIG    1       -1.565   1.112  -0.114  0.00  0.00    +0.210 HD
ENDBRANCH  12  13
ENDBRANCH   1  12
TORSDOF 5
