REMARK  Name = DB01054
REMARK                            x       y       z     vdW  Elec       q    Type
REMARK                         _______ _______ _______ _____ _____    ______ ____
ROOT
ATOM      1  C   LIG    1        0.021   0.084   0.065  0.00  0.00    +0.065 C 
ATOM      2  C   LIG    1       -0.655   1.270   0.061  0.00  0.00    +0.016 C 
ATOM      3  C   LIG    1       -0.084   2.684  -0.055  0.00  0.00    +0.061 C 
ATOM      4  N   LIG    1       -2.030   1.279   0.064  0.00  0.00    -0.321 N 
ATOM      5  H   LIG    1       -2.486   2.176   0.151  0.00  0.00    +0.152 HD
ATOM      6  C   LIG    1       -2.836   0.164   0.049  0.00  0.00    +0.016 C 
ATOM      7  C   LIG    1       -4.312   0.540  -0.082  0.00  0.00    +0.061 C 
ATOM      8  C   LIG    1       -2.277  -1.081   0.048  0.00  0.00    +0.065 C 
ATOM      9  C   LIG    1       -0.734  -1.280   0.178  0.00  0.00    +0.096 C 
ENDROOT
BRANCH   9  10
ATOM     10  C   LIG    1       -0.341  -2.077   1.439  0.00  0.00    -0.033 A 
ATOM     11  C   LIG    1       -0.568  -1.534   2.708  0.00  0.00    +0.005 A 
ATOM     12  C   LIG    1       -0.209  -2.241   3.853  0.00  0.00    +0.003 A 
ATOM     13  C   LIG    1        0.384  -3.498   3.740  0.00  0.00    +0.032 A 
ATOM     14  C   LIG    1        0.625  -4.067   2.480  0.00  0.00    +0.122 A 
ATOM     15  C   LIG    1        0.254  -3.342   1.338  0.00  0.00    +0.037 A 
BRANCH  14  16
ATOM     16  N   LIG    1        1.261  -5.401   2.358  0.00  0.00    +0.006 N 
ATOM     17  O   LIG    1        1.573  -5.999   3.383  0.00  0.00    -0.130 OA
BRANCH  16  18
ATOM     18  O   LIG    1        1.454  -5.860   1.235  0.00  0.00    -0.396 OA
ATOM     19  H   LIG    1        1.854  -6.701   1.135  0.00  0.00    +0.329 HD
ENDBRANCH  16  18
ENDBRANCH  14  16
ENDBRANCH   9  10
BRANCH   1  20
ATOM     20  C   LIG    1        1.513   0.029   0.074  0.00  0.00    +0.338 C 
ATOM     21  O   LIG    1        2.237   0.996   0.327  0.00  0.00    -0.245 OA
BRANCH  20  22
ATOM     22  O   LIG    1        2.010  -1.204  -0.201  0.00  0.00    -0.462 OA
BRANCH  22  23
ATOM     23  C   LIG    1        3.409  -1.458  -0.200  0.00  0.00    +0.229 C 
ATOM     24  C   LIG    1        3.648  -2.959  -0.394  0.00  0.00    +0.048 C 
ENDBRANCH  22  23
ENDBRANCH  20  22
ENDBRANCH   1  20
BRANCH   8  25
ATOM     25  C   LIG    1       -3.113  -2.316   0.044  0.00  0.00    +0.337 C 
ATOM     26  O   LIG    1       -4.304  -2.340   0.367  0.00  0.00    -0.245 OA
BRANCH  25  27
ATOM     27  O   LIG    1       -2.430  -3.427  -0.330  0.00  0.00    -0.465 OA
ATOM     28  C   LIG    1       -3.060  -4.700  -0.369  0.00  0.00    +0.280 C 
ENDBRANCH  25  27
ENDBRANCH   8  25
TORSDOF 8
