REMARK  Name = DB01601
REMARK                            x       y       z     vdW  Elec       q    Type
REMARK                         _______ _______ _______ _____ _____    ______ ____
ROOT
ATOM      1  C   LIG    1        1.437   0.032  -0.173  0.00  0.00    +0.055 C 
ENDROOT
BRANCH   1   2
ATOM      2  C   LIG    1        2.041   0.688  -1.442  0.00  0.00    +0.080 C 
BRANCH   2   3
ATOM      3  N   LIG    1        3.503   0.701  -1.354  0.00  0.00    -0.311 N 
ATOM      4  H   LIG    1        3.990  -0.021  -1.866  0.00  0.00    +0.149 HD
ATOM      5  C   LIG    1        4.224   1.597  -0.661  0.00  0.00    +0.234 C 
ATOM      6  O   LIG    1        3.738   2.538  -0.029  0.00  0.00    -0.274 OA
BRANCH   5   7
ATOM      7  C   LIG    1        5.755   1.373  -0.668  0.00  0.00    +0.166 C 
BRANCH   7   8
ATOM      8  N   LIG    1        6.439   2.530  -1.313  0.00  0.00    -0.274 N 
ATOM      9  C   LIG    1        6.640   2.454  -2.676  0.00  0.00    +0.303 C 
ATOM     10  O   LIG    1        6.358   1.481  -3.378  0.00  0.00    -0.253 OA
ATOM     11  N   LIG    1        7.128   3.556  -3.295  0.00  0.00    -0.299 N 
ATOM     12  H   LIG    1        7.487   3.435  -4.231  0.00  0.00    +0.150 HD
ATOM     13  C   LIG    1        7.217   4.892  -2.704  0.00  0.00    +0.107 C 
ATOM     14  C   LIG    1        7.695   4.703  -1.267  0.00  0.00    +0.038 C 
ATOM     15  C   LIG    1        6.742   3.758  -0.521  0.00  0.00    +0.111 C 
ENDBRANCH   7   8
BRANCH   7  16
ATOM     16  C   LIG    1        6.214   1.076   0.800  0.00  0.00    +0.012 C 
ATOM     17  C   LIG    1        5.410  -0.041   1.505  0.00  0.00    +0.009 C 
ATOM     18  C   LIG    1        7.710   0.710   0.839  0.00  0.00    +0.009 C 
ENDBRANCH   7  16
ENDBRANCH   5   7
ENDBRANCH   2   3
BRANCH   2  19
ATOM     19  C   LIG    1        1.579   0.008  -2.754  0.00  0.00    +0.057 C 
BRANCH  19  22
ATOM     20  C   LIG    1        1.813   2.456  -5.667  0.00  0.00    +0.000 A 
ATOM     21  C   LIG    1        1.351   1.793  -4.532  0.00  0.00    +0.004 A 
ATOM     22  C   LIG    1        2.074   0.718  -4.009  0.00  0.00    -0.046 A 
ATOM     23  C   LIG    1        3.261   0.307  -4.624  0.00  0.00    +0.004 A 
ATOM     24  C   LIG    1        3.724   0.972  -5.756  0.00  0.00    +0.000 A 
ATOM     25  C   LIG    1        2.998   2.043  -6.273  0.00  0.00    +0.000 A 
ENDBRANCH  19  22
ENDBRANCH   2  19
ENDBRANCH   1   2
BRANCH   1  26
ATOM     26  C   LIG    1       -0.099   0.157   0.024  0.00  0.00    +0.137 C 
BRANCH  26  27
ATOM     27  O   LIG    1       -0.466   1.527  -0.007  0.00  0.00    -0.390 OA
ATOM     28  H   LIG    1       -0.136   1.915  -0.821  0.00  0.00    +0.210 HD
ENDBRANCH  26  27
BRANCH  26  29
ATOM     29  C   LIG    1       -0.586  -0.499   1.349  0.00  0.00    +0.106 C 
BRANCH  29  30
ATOM     30  N   LIG    1        0.124   0.072   2.502  0.00  0.00    -0.307 N 
ATOM     31  H   LIG    1        0.295   1.067   2.453  0.00  0.00    +0.149 HD
ATOM     32  C   LIG    1        0.657  -0.596   3.542  0.00  0.00    +0.251 C 
ATOM     33  O   LIG    1        0.518  -1.808   3.709  0.00  0.00    -0.272 OA
BRANCH  32  34
ATOM     34  C   LIG    1        1.480   0.215   4.553  0.00  0.00    +0.324 C 
BRANCH  34  35
ATOM     35  O   LIG    1        1.886   1.452   3.961  0.00  0.00    -0.482 OA
BRANCH  35  36
ATOM     36  C   LIG    1        2.058   2.500   4.833  0.00  0.00    +0.127 A 
ATOM     37  C   LIG    1        0.955   3.229   5.311  0.00  0.00    -0.009 A 
ATOM     38  C   LIG    1       -0.461   2.896   4.862  0.00  0.00    +0.047 C 
ATOM     39  C   LIG    1        1.162   4.302   6.183  0.00  0.00    +0.007 A 
ATOM     40  C   LIG    1        2.452   4.654   6.574  0.00  0.00    +0.001 A 
ATOM     41  C   LIG    1        3.547   3.943   6.087  0.00  0.00    +0.007 A 
ATOM     42  C   LIG    1        3.358   2.868   5.213  0.00  0.00    -0.009 A 
ATOM     43  C   LIG    1        4.563   2.114   4.672  0.00  0.00    +0.047 C 
ENDBRANCH  35  36
ENDBRANCH  34  35
ENDBRANCH  32  34
ENDBRANCH  29  30
BRANCH  29  44
ATOM     44  C   LIG    1       -2.127  -0.435   1.522  0.00  0.00    +0.060 C 
BRANCH  44  45
ATOM     45  C   LIG    1       -2.660  -1.273   2.678  0.00  0.00    -0.046 A 
ATOM     46  C   LIG    1       -2.840  -2.648   2.515  0.00  0.00    +0.004 A 
ATOM     47  C   LIG    1       -3.319  -3.417   3.572  0.00  0.00    +0.000 A 
ATOM     48  C   LIG    1       -3.614  -2.807   4.790  0.00  0.00    +0.000 A 
ATOM     49  C   LIG    1       -3.436  -1.436   4.960  0.00  0.00    +0.000 A 
ATOM     50  C   LIG    1       -2.959  -0.666   3.902  0.00  0.00    +0.004 A 
ENDBRANCH  44  45
ENDBRANCH  29  44
ENDBRANCH  26  29
ENDBRANCH   1  26
TORSDOF 16
