REMARK  Name = DB01007
REMARK                            x       y       z     vdW  Elec       q    Type
REMARK                         _______ _______ _______ _____ _____    ______ ____
ROOT
ATOM      1  C   LIG    1        1.390   0.006   0.066  0.00  0.00    +0.170 C 
ENDROOT
BRANCH   1   9
ATOM      2 CL   LIG    1        4.088   1.582   0.026  0.00  0.00    -0.083 Cl
ATOM      3  C   LIG    1        3.160   1.248   1.449  0.00  0.00    +0.048 A 
ATOM      4  C   LIG    1        3.645   1.709   2.675  0.00  0.00    +0.040 A 
ATOM      5  C   LIG    1        2.945   1.453   3.853  0.00  0.00    +0.042 A 
ATOM      6  C   LIG    1        1.755   0.729   3.810  0.00  0.00    +0.020 A 
ATOM      7  C   LIG    1        1.266   0.267   2.590  0.00  0.00    +0.009 A 
ATOM      8 CL   LIG    1        3.552   2.028   5.363  0.00  0.00    -0.083 Cl
ATOM      9  C   LIG    1        1.953   0.527   1.396  0.00  0.00    +0.001 A 
ENDBRANCH   1   9
BRANCH   1  10
ATOM     10  C   LIG    1        1.909  -1.413  -0.246  0.00  0.00    +0.159 C 
BRANCH  10  11
ATOM     11  N   LIG    1        1.444  -1.867  -1.549  0.00  0.00    -0.334 N 
ATOM     12  C   LIG    1        2.103  -1.784  -2.751  0.00  0.00    +0.199 A 
ATOM     13  N   LIG    1        1.412  -2.256  -3.762  0.00  0.00    -0.244 NA
ATOM     14  C   LIG    1        0.270  -2.651  -3.229  0.00  0.00    +0.130 A 
ATOM     15  C   LIG    1        0.232  -2.429  -1.861  0.00  0.00    +0.107 A 
ENDBRANCH  10  11
ENDBRANCH   1  10
BRANCH   1  16
ATOM     16  O   LIG    1       -0.040  -0.024   0.084  0.00  0.00    -0.366 OA
BRANCH  16  17
ATOM     17  C   LIG    1       -0.686   1.238  -0.049  0.00  0.00    +0.198 C 
BRANCH  17  18
ATOM     18  C   LIG    1       -2.182   1.016  -0.037  0.00  0.00    +0.004 A 
ATOM     19  C   LIG    1       -2.955   0.812   1.108  0.00  0.00    +0.083 A 
ATOM     20  S   LIG    1       -4.641   0.584   0.766  0.00  0.00    -0.085 S 
ATOM     21  C   LIG    1       -4.333   0.763  -0.925  0.00  0.00    +0.047 A 
ATOM     22 CL   LIG    1       -2.420   0.767   2.742  0.00  0.00    -0.075 Cl
ATOM     23  C   LIG    1       -2.990   0.987  -1.186  0.00  0.00    +0.015 A 
ENDBRANCH  17  18
ENDBRANCH  16  17
ENDBRANCH   1  16
TORSDOF 6
