REMARK  Name = DB01062
REMARK                            x       y       z     vdW  Elec       q    Type
REMARK                         _______ _______ _______ _____ _____    ______ ____
ROOT
ATOM      1  C   LIG    1       -0.848   3.290   1.179  0.00  0.00    +0.190 C 
ENDROOT
BRANCH   1   2
ATOM      2  C   LIG    1        0.347   4.166   0.707  0.00  0.00    -0.005 A 
ATOM      3  C   LIG    1        1.599   4.059   1.337  0.00  0.00    +0.007 A 
ATOM      4  C   LIG    1        2.672   4.848   0.932  0.00  0.00    +0.000 A 
ATOM      5  C   LIG    1        2.502   5.761  -0.103  0.00  0.00    +0.000 A 
ATOM      6  C   LIG    1        1.268   5.896  -0.731  0.00  0.00    +0.000 A 
ATOM      7  C   LIG    1        0.196   5.107  -0.325  0.00  0.00    +0.007 A 
ENDBRANCH   1   2
BRANCH   1   8
ATOM      8  C   LIG    1       -1.266   3.663   2.655  0.00  0.00    +0.036 C 
ATOM      9  C   LIG    1       -1.630   5.166   2.827  0.00  0.00    +0.007 C 
ATOM     10  C   LIG    1       -1.899   5.532   4.301  0.00  0.00    +0.000 C 
ATOM     11  C   LIG    1       -3.004   4.649   4.915  0.00  0.00    +0.000 C 
ATOM     12  C   LIG    1       -2.734   3.146   4.701  0.00  0.00    +0.000 C 
ATOM     13  C   LIG    1       -2.455   2.827   3.219  0.00  0.00    +0.007 C 
ENDBRANCH   1   8
BRANCH   1  14
ATOM     14  O   LIG    1       -2.005   3.447   0.358  0.00  0.00    -0.373 OA
ATOM     15  H   LIG    1       -1.833   3.029  -0.489  0.00  0.00    +0.211 HD
ENDBRANCH   1  14
BRANCH   1  16
ATOM     16  C   LIG    1       -0.389   1.806   1.027  0.00  0.00    +0.345 C 
ATOM     17  O   LIG    1        0.017   1.149   1.990  0.00  0.00    -0.247 OA
BRANCH  16  18
ATOM     18  O   LIG    1       -0.405   1.359  -0.267  0.00  0.00    -0.449 OA
BRANCH  18  19
ATOM     19  C   LIG    1        0.089   0.072  -0.641  0.00  0.00    +0.320 C 
BRANCH  19  20
ATOM     20  C   LIG    1        1.563  -0.036  -0.626  0.00  0.00    -0.060 C 
ATOM     21  C   LIG    1        2.781  -0.108  -0.581  0.00  0.00    -0.083 C 
BRANCH  21  22
ATOM     22  C   LIG    1        4.254  -0.190  -0.497  0.00  0.00    +0.174 C 
BRANCH  22  23
ATOM     23  N   LIG    1        4.694  -0.893   0.719  0.00  0.00    -0.292 NA
BRANCH  23  24
ATOM     24  C   LIG    1        4.350  -2.328   0.727  0.00  0.00    +0.082 C 
ATOM     25  C   LIG    1        3.680  -2.717   2.053  0.00  0.00    +0.020 C 
ENDBRANCH  23  24
BRANCH  23  26
ATOM     26  C   LIG    1        6.130  -0.651   0.920  0.00  0.00    +0.082 C 
ATOM     27  C   LIG    1        6.659  -1.137   2.281  0.00  0.00    +0.020 C 
ENDBRANCH  23  26
ENDBRANCH  22  23
ENDBRANCH  21  22
ENDBRANCH  19  20
ENDBRANCH  18  19
ENDBRANCH  16  18
ENDBRANCH   1  16
TORSDOF 11
