REMARK  Name = DB01091
REMARK                            x       y       z     vdW  Elec       q    Type
REMARK                         _______ _______ _______ _____ _____    ______ ____
ROOT
ATOM      1  N   LIG    1       -0.125  -0.037  -0.346  0.00  0.00    -0.297 NA
ATOM      2  C   LIG    1       -0.476  -0.409  -1.719  0.00  0.00    +0.105 C 
ENDROOT
BRANCH   1   3
ATOM      3  C   LIG    1       -0.600   1.318  -0.043  0.00  0.00    +0.120 C 
BRANCH   3   4
ATOM      4  C   LIG    1       -2.124   1.417   0.054  0.00  0.00    -0.026 A 
ATOM      5  C   LIG    1       -2.813   2.185  -0.886  0.00  0.00    +0.005 A 
ATOM      6  C   LIG    1       -4.192   2.333  -0.820  0.00  0.00    +0.001 A 
ATOM      7  C   LIG    1       -4.918   1.732   0.200  0.00  0.00    +0.008 A 
ATOM      8  C   LIG    1       -4.262   0.968   1.196  0.00  0.00    -0.018 A 
ATOM      9  C   LIG    1       -4.991   0.364   2.251  0.00  0.00    +0.008 A 
ATOM     10  C   LIG    1       -4.334  -0.377   3.228  0.00  0.00    +0.001 A 
ATOM     11  C   LIG    1       -2.955  -0.534   3.184  0.00  0.00    +0.001 A 
ATOM     12  C   LIG    1       -2.209   0.044   2.162  0.00  0.00    +0.009 A 
ATOM     13  C   LIG    1       -2.840   0.807   1.137  0.00  0.00    -0.013 A 
ENDBRANCH   3   4
ENDBRANCH   1   3
BRANCH   1  14
ATOM     14  C   LIG    1        1.328  -0.113  -0.155  0.00  0.00    +0.119 C 
BRANCH  14  15
ATOM     15  C   LIG    1        1.884  -1.536  -0.143  0.00  0.00    -0.033 A 
ATOM     16  C   LIG    1        1.214  -2.565   0.523  0.00  0.00    +0.005 A 
ATOM     17  C   LIG    1        1.769  -3.840   0.580  0.00  0.00    +0.004 A 
ATOM     18  C   LIG    1        3.014  -4.111  -0.006  0.00  0.00    -0.042 A 
ATOM     19  C   LIG    1        3.695  -3.059  -0.641  0.00  0.00    +0.004 A 
ATOM     20  C   LIG    1        3.141  -1.783  -0.696  0.00  0.00    +0.005 A 
BRANCH  18  21
ATOM     21  C   LIG    1        3.595  -5.546   0.071  0.00  0.00    -0.013 C 
ATOM     22  C   LIG    1        2.600  -6.551  -0.562  0.00  0.00    +0.015 C 
ATOM     23  C   LIG    1        4.946  -5.704  -0.676  0.00  0.00    +0.015 C 
ATOM     24  C   LIG    1        3.830  -5.932   1.552  0.00  0.00    +0.015 C 
ENDBRANCH  18  21
ENDBRANCH  14  15
ENDBRANCH   1  14
TORSDOF 5
