REMARK  Name = DB01400
REMARK                            x       y       z     vdW  Elec       q    Type
REMARK                         _______ _______ _______ _____ _____    ______ ____
ROOT
ATOM      1  C   LIG    1       -0.041  -0.077   0.130  0.00  0.00    +0.135 A 
ATOM      2  C   LIG    1       -0.733  -1.288   0.035  0.00  0.00    +0.046 A 
ATOM      3  C   LIG    1       -2.123  -1.297  -0.066  0.00  0.00    +0.005 A 
ATOM      4  C   LIG    1       -2.836  -0.098  -0.083  0.00  0.00    +0.022 A 
ATOM      5  C   LIG    1       -2.148   1.124   0.001  0.00  0.00    +0.019 A 
ATOM      6  C   LIG    1       -0.748   1.129   0.102  0.00  0.00    +0.068 A 
ENDROOT
BRANCH   5   7
ATOM      7  N   LIG    1       -2.884   2.453  -0.014  0.00  0.00    -0.390 NA
ATOM      8  C   LIG    1       -2.433   3.330  -1.210  0.00  0.00    +0.109 C 
ATOM      9  C   LIG    1       -2.618   3.256   1.286  0.00  0.00    +0.109 C 
ATOM     10  C   LIG    1       -4.429   2.340  -0.132  0.00  0.00    +0.109 C 
ENDBRANCH   5   7
BRANCH   1  11
ATOM     11  O   LIG    1        1.333  -0.077   0.212  0.00  0.00    -0.411 OA
BRANCH  11  12
ATOM     12  C   LIG    1        1.945   0.011   1.435  0.00  0.00    +0.408 C 
ATOM     13  O   LIG    1        1.329   0.096   2.503  0.00  0.00    -0.226 OA
ATOM     14  N   LIG    1        3.345  -0.010   1.319  0.00  0.00    -0.273 N 
ATOM     15  C   LIG    1        4.192   0.053   2.510  0.00  0.00    +0.135 C 
ATOM     16  C   LIG    1        4.068  -0.097   0.046  0.00  0.00    +0.135 C 
ENDBRANCH  11  12
ENDBRANCH   1  11
TORSDOF 3
