REMARK  Name = DB01588
REMARK                            x       y       z     vdW  Elec       q    Type
REMARK                         _______ _______ _______ _____ _____    ______ ____
ROOT
ATOM      1 CL   LIG    1       -2.933   5.351  -0.710  0.00  0.00    -0.084 Cl
ATOM      2  C   LIG    1       -2.121   3.840  -0.521  0.00  0.00    +0.042 A 
ATOM      3  C   LIG    1       -0.841   3.669  -1.026  0.00  0.00    +0.022 A 
ATOM      4  C   LIG    1       -0.199   2.446  -0.874  0.00  0.00    +0.025 A 
ATOM      5  C   LIG    1       -0.813   1.344  -0.251  0.00  0.00    +0.046 A 
ATOM      6  C   LIG    1       -2.102   1.551   0.332  0.00  0.00    +0.023 A 
ATOM      7  C   LIG    1       -2.833   0.511   1.119  0.00  0.00    +0.075 C 
ATOM      8  N   LIG    1       -2.863  -0.734   0.808  0.00  0.00    -0.273 NA
ATOM      9  C   LIG    1       -2.147  -1.187  -0.375  0.00  0.00    +0.238 C 
ATOM     10  C   LIG    1       -0.612  -1.137  -0.197  0.00  0.00    +0.241 C 
ATOM     11  O   LIG    1        0.039  -2.185  -0.189  0.00  0.00    -0.273 OA
ATOM     12  N   LIG    1       -0.092   0.125  -0.048  0.00  0.00    -0.269 N 
ATOM     13  C   LIG    1       -2.739   2.793   0.150  0.00  0.00    +0.032 A 
ENDROOT
BRANCH   7  14
ATOM     14  C   LIG    1       -3.551   0.952   2.339  0.00  0.00    +0.001 A 
ATOM     15  C   LIG    1       -4.813   0.425   2.652  0.00  0.00    +0.010 A 
ATOM     16  C   LIG    1       -5.484   0.840   3.799  0.00  0.00    +0.001 A 
ATOM     17  C   LIG    1       -4.896   1.779   4.642  0.00  0.00    +0.000 A 
ATOM     18  C   LIG    1       -3.641   2.306   4.350  0.00  0.00    +0.001 A 
ATOM     19  C   LIG    1       -2.969   1.892   3.203  0.00  0.00    +0.010 A 
ENDBRANCH   7  14
BRANCH  12  20
ATOM     20  C   LIG    1        1.381   0.174   0.096  0.00  0.00    +0.117 C 
BRANCH  20  21
ATOM     21  C   LIG    1        2.164  -0.023  -1.222  0.00  0.00    +0.007 C 
ATOM     22  C   LIG    1        3.503   0.662  -1.376  0.00  0.00    +0.005 C 
ATOM     23  C   LIG    1        3.439  -0.835  -1.202  0.00  0.00    +0.005 C 
ENDBRANCH  20  21
ENDBRANCH  12  20
TORSDOF 3
