REMARK  Name = DB01061
REMARK                            x       y       z     vdW  Elec       q    Type
REMARK                         _______ _______ _______ _____ _____    ______ ____
ROOT
ATOM      1  CA  LIG    1        3.824   0.157  -0.805  0.00  0.00    +0.191 C 
ENDROOT
BRANCH   1   2
ATOM      2  N   LIG    1        4.433   1.454  -1.152  0.00  0.00    -0.284 N 
ATOM      3  H   LIG    1        4.651   1.567  -2.131  0.00  0.00    +0.151 HD
ATOM      4  C   LIG    1        4.527   2.546  -0.357  0.00  0.00    +0.311 C 
ATOM      5  O   LIG    1        4.105   2.519   0.804  0.00  0.00    -0.252 OA
ATOM      6  N   LIG    1        5.141   3.635  -0.920  0.00  0.00    -0.208 N 
ATOM      7  C   LIG    1        5.499   3.673  -2.345  0.00  0.00    +0.138 C 
ATOM      8  C   LIG    1        6.192   5.000  -2.490  0.00  0.00    +0.125 C 
ATOM      9  N   LIG    1        5.698   5.671  -1.320  0.00  0.00    -0.297 N 
ATOM     10  H   LIG    1        5.531   6.667  -1.319  0.00  0.00    +0.150 HD
ATOM     11  C   LIG    1        5.297   4.857  -0.328  0.00  0.00    +0.310 C 
ATOM     12  O   LIG    1        5.201   5.166   0.862  0.00  0.00    -0.252 OA
ENDBRANCH   1   2
BRANCH   1  16
ATOM     13  C   LIG    1        5.422  -3.160  -3.071  0.00  0.00    +0.000 A 
ATOM     14  C   LIG    1        5.794  -1.865  -3.418  0.00  0.00    +0.000 A 
ATOM     15  C   LIG    1        5.287  -0.784  -2.703  0.00  0.00    +0.006 A 
ATOM     16  C   LIG    1        4.396  -0.987  -1.634  0.00  0.00    -0.018 A 
ATOM     17  C   LIG    1        4.039  -2.301  -1.298  0.00  0.00    +0.006 A 
ATOM     18  C   LIG    1        4.546  -3.383  -2.012  0.00  0.00    +0.000 A 
ENDBRANCH   1  16
BRANCH   1  19
ATOM     19  C   LIG    1        2.283   0.248  -0.916  0.00  0.00    +0.239 C 
ATOM     20  O   LIG    1        1.769   0.651  -1.960  0.00  0.00    -0.273 OA
ATOM     21  N   LIG    1        1.592  -0.195   0.150  0.00  0.00    -0.300 N 
ATOM     22  H   LIG    1        2.114  -0.630   0.897  0.00  0.00    +0.150 HD
BRANCH  21  23
ATOM     23  CA  LIG    1        0.132  -0.266   0.274  0.00  0.00    +0.190 C 
ATOM     24  C   LIG    1       -0.455  -0.313   1.703  0.00  0.00    +0.165 C 
ATOM     25  S   LIG    1        0.421   0.326   3.155  0.00  0.00    -0.127 S 
ATOM     26  C   LIG    1       -1.006   1.329   3.672  0.00  0.00    +0.042 C 
ATOM     27  C   LIG    1       -1.952   0.345   4.421  0.00  0.00    +0.025 C 
ATOM     28  C   LIG    1       -0.607   2.437   4.668  0.00  0.00    +0.025 C 
ATOM     29  CA  LIG    1       -1.607   1.861   2.321  0.00  0.00    +0.201 C 
ATOM     30  N   LIG    1       -1.337   0.820   1.318  0.00  0.00    -0.271 N 
ATOM     31  C   LIG    1       -0.673   1.053   0.108  0.00  0.00    +0.240 C 
ATOM     32  O   LIG    1       -0.682   1.994  -0.683  0.00  0.00    -0.273 OA
BRANCH  29  33
ATOM     33  C   LIG    1       -3.092   2.280   2.391  0.00  0.00    +0.327 C 
ATOM     34  OXT LIG    1       -4.001   1.663   1.875  0.00  0.00    -0.249 OA
BRANCH  33  35
ATOM     35  O   LIG    1       -3.223   3.450   3.081  0.00  0.00    -0.479 OA
ATOM     36  H   LIG    1       -4.135   3.745   3.126  0.00  0.00    +0.295 HD
ENDBRANCH  33  35
ENDBRANCH  29  33
ENDBRANCH  21  23
ENDBRANCH   1  19
TORSDOF 6
