REMARK  Name = DB01132
REMARK                            x       y       z     vdW  Elec       q    Type
REMARK                         _______ _______ _______ _____ _____    ______ ____
ROOT
ATOM      1  C   LIG    1       -1.660   3.863  -0.105  0.00  0.00    -0.046 A 
ATOM      2  C   LIG    1       -0.271   3.765  -0.009  0.00  0.00    +0.007 A 
ATOM      3  C   LIG    1        0.342   2.516  -0.008  0.00  0.00    +0.046 A 
ATOM      4  C   LIG    1       -0.431   1.348  -0.098  0.00  0.00    +0.121 A 
ATOM      5  C   LIG    1       -1.820   1.456  -0.190  0.00  0.00    +0.046 A 
ATOM      6  C   LIG    1       -2.435   2.705  -0.195  0.00  0.00    +0.007 A 
ENDROOT
BRANCH   1   7
ATOM      7  C   LIG    1       -2.325   5.235  -0.107  0.00  0.00    +0.059 C 
BRANCH   7  15
ATOM      8  S   LIG    1       -2.832   5.237  -2.869  0.00  0.00    -0.054 S 
ATOM      9  C   LIG    1       -3.834   6.688  -3.235  0.00  0.00    +0.279 C 
ATOM     10  N   LIG    1       -3.589   7.633  -2.321  0.00  0.00    -0.246 N 
ATOM     11  H   LIG    1       -4.072   8.517  -2.384  0.00  0.00    +0.158 HD
ATOM     12  C   LIG    1       -2.719   7.430  -1.325  0.00  0.00    +0.234 C 
ATOM     13  O   LIG    1       -2.438   8.252  -0.454  0.00  0.00    -0.274 OA
ATOM     14  O   LIG    1       -4.610   6.766  -4.184  0.00  0.00    -0.263 OA
ATOM     15  C   LIG    1       -2.105   6.032  -1.417  0.00  0.00    +0.146 C 
ENDBRANCH   7  15
ENDBRANCH   1   7
BRANCH   4  16
ATOM     16  O   LIG    1        0.088   0.068  -0.100  0.00  0.00    -0.492 OA
BRANCH  16  17
ATOM     17  C   LIG    1        1.501  -0.116  -0.036  0.00  0.00    +0.235 C 
BRANCH  17  18
ATOM     18  C   LIG    1        1.839  -1.617  -0.002  0.00  0.00    +0.096 C 
BRANCH  18  19
ATOM     19  C   LIG    1        1.372  -2.315   1.269  0.00  0.00    +0.045 A 
ATOM     20  C   LIG    1        2.263  -2.582   2.313  0.00  0.00    +0.024 A 
ATOM     21  C   LIG    1        1.778  -3.216   3.459  0.00  0.00    +0.007 A 
ATOM     22  C   LIG    1        0.425  -3.564   3.538  0.00  0.00    -0.030 A 
ATOM     23  C   LIG    1       -0.399  -3.261   2.448  0.00  0.00    +0.114 A 
ATOM     24  N   LIG    1        0.055  -2.648   1.325  0.00  0.00    -0.260 NA
BRANCH  22  25
ATOM     25  C   LIG    1       -0.132  -4.249   4.776  0.00  0.00    +0.033 C 
ATOM     26  C   LIG    1       -0.416  -3.266   5.921  0.00  0.00    +0.009 C 
ENDBRANCH  22  25
ENDBRANCH  18  19
ENDBRANCH  17  18
ENDBRANCH  16  17
ENDBRANCH   4  16
TORSDOF 7
