REMARK  Name = DB01359
REMARK                            x       y       z     vdW  Elec       q    Type
REMARK                         _______ _______ _______ _____ _____    ______ ____
ROOT
ATOM      1  O   LIG    1        2.266  -1.171   0.030  0.00  0.00    -0.489 OA
ENDROOT
BRANCH   1   2
ATOM      2  C   LIG    1        3.631  -1.395   0.006  0.00  0.00    +0.124 A 
ATOM      3  C   LIG    1        4.581  -0.357  -0.005  0.00  0.00    +0.046 A 
ATOM      4  C   LIG    1        5.946  -0.636  -0.027  0.00  0.00    +0.004 A 
ATOM      5  C   LIG    1        6.385  -1.956  -0.039  0.00  0.00    +0.001 A 
ATOM      6  C   LIG    1        5.458  -2.995  -0.030  0.00  0.00    +0.007 A 
ATOM      7  C   LIG    1        4.083  -2.729  -0.009  0.00  0.00    -0.003 A 
BRANCH   7   8
ATOM      8  C   LIG    1        3.100  -3.908   0.003  0.00  0.00    +0.023 C 
ATOM      9  C   LIG    1        3.142  -4.793  -1.255  0.00  0.00    +0.008 C 
ATOM     10  C   LIG    1        2.611  -6.149  -0.798  0.00  0.00    +0.001 C 
ATOM     11  C   LIG    1        3.181  -6.300   0.611  0.00  0.00    +0.001 C 
ATOM     12  C   LIG    1        3.227  -4.880   1.202  0.00  0.00    +0.008 C 
ENDBRANCH   7   8
ENDBRANCH   1   2
BRANCH   1  13
ATOM     13  C   LIG    1        1.762   0.162   0.106  0.00  0.00    +0.261 C 
BRANCH  13  14
ATOM     14  C   LIG    1        0.224   0.129   0.200  0.00  0.00    +0.166 C 
BRANCH  14  15
ATOM     15  O   LIG    1       -0.136  -0.451   1.443  0.00  0.00    -0.387 OA
ATOM     16  H   LIG    1       -1.093  -0.500   1.490  0.00  0.00    +0.210 HD
ENDBRANCH  14  15
BRANCH  14  17
ATOM     17  C   LIG    1       -0.388   1.543   0.089  0.00  0.00    +0.116 C 
BRANCH  17  18
ATOM     18  N   LIG    1       -1.850   1.480   0.023  0.00  0.00    -0.309 NA
ATOM     19  H   LIG    1       -2.208   0.926   0.787  0.00  0.00    +0.123 HD
BRANCH  18  20
ATOM     20  C   LIG    1       -2.580   2.752  -0.049  0.00  0.00    +0.011 C 
ATOM     21  C   LIG    1       -2.336   3.593   1.227  0.00  0.00    +0.027 C 
ATOM     22  C   LIG    1       -2.181   3.544  -1.316  0.00  0.00    +0.027 C 
ATOM     23  C   LIG    1       -4.074   2.369  -0.131  0.00  0.00    +0.027 C 
ENDBRANCH  18  20
ENDBRANCH  17  18
ENDBRANCH  14  17
ENDBRANCH  13  14
ENDBRANCH   1  13
TORSDOF 8
