REMARK  Name = DB01065
REMARK                            x       y       z     vdW  Elec       q    Type
REMARK                         _______ _______ _______ _____ _____    ______ ____
ROOT
ATOM      1  C   LIG    1        3.206  -4.511   1.495  0.00  0.00    +0.030 A 
ATOM      2  C   LIG    1        2.849  -3.510   0.588  0.00  0.00    +0.047 A 
ATOM      3  N   LIG    1        2.912  -3.471  -0.786  0.00  0.00    -0.360 N 
ATOM      4  H   LIG    1        3.242  -4.194  -1.410  0.00  0.00    +0.165 HD
ATOM      5  C   LIG    1        2.444  -2.264  -1.237  0.00  0.00    +0.087 A 
ATOM      6  C   LIG    1        2.057  -1.470  -0.173  0.00  0.00    -0.021 A 
ATOM      7  C   LIG    1        2.313  -2.256   1.007  0.00  0.00    +0.006 A 
ATOM      8  C   LIG    1        2.141  -2.026   2.382  0.00  0.00    +0.056 A 
ATOM      9  C   LIG    1        2.494  -3.023   3.305  0.00  0.00    +0.121 A 
ATOM     10  C   LIG    1        3.015  -4.234   2.849  0.00  0.00    +0.047 A 
ENDROOT
BRANCH   9  11
ATOM     11  O   LIG    1        2.362  -2.892   4.674  0.00  0.00    -0.495 OA
ATOM     12  C   LIG    1        1.827  -1.686   5.209  0.00  0.00    +0.277 C 
ENDBRANCH   9  11
BRANCH   6  13
ATOM     13  C   LIG    1        1.480  -0.071  -0.218  0.00  0.00    +0.056 C 
BRANCH  13  14
ATOM     14  C   LIG    1       -0.021  -0.053   0.135  0.00  0.00    +0.109 C 
BRANCH  14  15
ATOM     15  N   LIG    1       -0.607   1.286   0.116  0.00  0.00    -0.315 N 
ATOM     16  H   LIG    1       -1.163   1.521  -0.693  0.00  0.00    +0.149 HD
ATOM     17  C   LIG    1       -0.465   2.203   1.089  0.00  0.00    +0.210 C 
ATOM     18  C   LIG    1       -1.161   3.542   0.869  0.00  0.00    +0.109 C 
ATOM     19  O   LIG    1        0.183   2.015   2.119  0.00  0.00    -0.276 OA
ENDBRANCH  14  15
ENDBRANCH  13  14
ENDBRANCH   6  13
TORSDOF 4
