REMARK  Name = DB01135
REMARK                            x       y       z     vdW  Elec       q    Type
REMARK                         _______ _______ _______ _____ _____    ______ ____
ROOT
ATOM      1  C   LIG    1       -0.366  -0.159   0.161  0.00  0.00    +0.132 C 
ENDROOT
BRANCH   1   2
ATOM      2  C   LIG    1       -1.581   0.781   0.074  0.00  0.00    +0.308 C 
ATOM      3  O   LIG    1       -2.700   0.323  -0.158  0.00  0.00    -0.251 OA
BRANCH   2   4
ATOM      4  O   LIG    1       -1.293   2.092   0.282  0.00  0.00    -0.465 OA
BRANCH   4   5
ATOM      5  C   LIG    1       -2.309   3.094   0.259  0.00  0.00    +0.230 C 
BRANCH   5   6
ATOM      6  C   LIG    1       -2.837   3.439   1.666  0.00  0.00    +0.023 C 
BRANCH   6   7
ATOM      7  C   LIG    1       -3.494   2.240   2.394  0.00  0.00    -0.071 C 
BRANCH   7   9
ATOM      8  C   LIG    1       -3.362   3.559   4.578  0.00  0.00    -0.091 C 
ATOM      9  N   LIG    1       -4.235   2.587   3.729  0.00  0.00    +0.383 N 
ATOM     10  C   LIG    1       -4.486   1.282   4.574  0.00  0.00    -0.026 C 
ATOM     11  C   LIG    1       -5.347   1.599   5.819  0.00  0.00    -0.011 A 
ATOM     12  C   LIG    1       -5.217   0.831   6.990  0.00  0.00    +0.167 A 
ATOM     13  C   LIG    1       -6.094   1.000   8.069  0.00  0.00    +0.204 A 
ATOM     14  C   LIG    1       -7.086   1.979   8.024  0.00  0.00    +0.165 A 
ATOM     15  C   LIG    1       -7.175   2.786   6.883  0.00  0.00    +0.053 A 
ATOM     16  C   LIG    1       -6.316   2.625   5.791  0.00  0.00    -0.040 A 
ATOM     17  C   LIG    1       -6.400   3.627   4.642  0.00  0.00    +0.017 C 
ATOM     18  C   LIG    1       -5.595   3.255   3.381  0.00  0.00    -0.070 C 
BRANCH  12  19
ATOM     19  O   LIG    1       -4.238  -0.132   7.062  0.00  0.00    -0.491 OA
ATOM     20  C   LIG    1       -3.102   0.234   7.833  0.00  0.00    +0.277 C 
ENDBRANCH  12  19
BRANCH  13  21
ATOM     21  O   LIG    1       -5.976   0.214   9.191  0.00  0.00    -0.488 OA
ATOM     22  C   LIG    1       -6.594  -1.062   9.076  0.00  0.00    +0.277 C 
ENDBRANCH  13  21
BRANCH  14  23
ATOM     23  O   LIG    1       -7.914   2.097   9.125  0.00  0.00    -0.491 OA
ATOM     24  C   LIG    1       -8.944   3.080   9.125  0.00  0.00    +0.277 C 
ENDBRANCH  14  23
BRANCH  10  25
ATOM     25  C   LIG    1       -5.112   0.135   3.708  0.00  0.00    +0.025 C 
BRANCH  25  26
ATOM     26  C   LIG    1       -5.221  -1.202   4.430  0.00  0.00    -0.041 A 
ATOM     27  C   LIG    1       -4.090  -2.003   4.587  0.00  0.00    +0.053 A 
ATOM     28  C   LIG    1       -4.161  -3.217   5.287  0.00  0.00    +0.165 A 
ATOM     29  C   LIG    1       -5.395  -3.623   5.814  0.00  0.00    +0.204 A 
ATOM     30  C   LIG    1       -6.541  -2.830   5.666  0.00  0.00    +0.165 A 
ATOM     31  C   LIG    1       -6.441  -1.620   4.962  0.00  0.00    +0.053 A 
BRANCH  28  32
ATOM     32  O   LIG    1       -3.076  -4.049   5.501  0.00  0.00    -0.491 OA
ATOM     33  C   LIG    1       -1.795  -3.665   5.014  0.00  0.00    +0.277 C 
ENDBRANCH  28  32
BRANCH  29  34
ATOM     34  O   LIG    1       -5.476  -4.802   6.517  0.00  0.00    -0.488 OA
ATOM     35  C   LIG    1       -5.765  -5.937   5.712  0.00  0.00    +0.277 C 
ENDBRANCH  29  34
BRANCH  30  36
ATOM     36  O   LIG    1       -7.711  -3.295   6.240  0.00  0.00    -0.491 OA
ATOM     37  C   LIG    1       -8.899  -2.519   6.130  0.00  0.00    +0.277 C 
ENDBRANCH  30  36
ENDBRANCH  25  26
ENDBRANCH  10  25
ENDBRANCH   7   9
ENDBRANCH   6   7
ENDBRANCH   5   6
ENDBRANCH   4   5
ENDBRANCH   2   4
ENDBRANCH   1   2
BRANCH   1  38
ATOM     38  C   LIG    1        1.045   0.486   0.208  0.00  0.00    +0.132 C 
BRANCH  38  39
ATOM     39  C   LIG    1        1.558   1.094  -1.106  0.00  0.00    +0.308 C 
ATOM     40  O   LIG    1        0.859   1.173  -2.119  0.00  0.00    -0.251 OA
BRANCH  39  41
ATOM     41  O   LIG    1        2.842   1.501  -0.996  0.00  0.00    -0.465 OA
BRANCH  41  42
ATOM     42  C   LIG    1        3.543   2.078  -2.095  0.00  0.00    +0.230 C 
BRANCH  42  43
ATOM     43  C   LIG    1        4.016   1.015  -3.104  0.00  0.00    +0.023 C 
BRANCH  43  44
ATOM     44  C   LIG    1        4.936   1.625  -4.191  0.00  0.00    -0.071 C 
BRANCH  44  45
ATOM     45  N   LIG    1        5.327   0.673  -5.382  0.00  0.00    +0.383 N 
ATOM     46  C   LIG    1        4.373   0.845  -6.620  0.00  0.00    -0.026 C 
ATOM     47  C   LIG    1        4.770  -0.134  -7.751  0.00  0.00    -0.011 A 
ATOM     48  C   LIG    1        4.522   0.199  -9.096  0.00  0.00    +0.167 A 
ATOM     49  C   LIG    1        4.720  -0.734 -10.123  0.00  0.00    +0.204 A 
ATOM     50  C   LIG    1        5.216  -2.005  -9.832  0.00  0.00    +0.165 A 
ATOM     51  C   LIG    1        5.531  -2.310  -8.503  0.00  0.00    +0.053 A 
ATOM     52  C   LIG    1        5.339  -1.394  -7.465  0.00  0.00    -0.040 A 
ATOM     53  C   LIG    1        5.840  -1.757  -6.068  0.00  0.00    +0.017 C 
ATOM     54  C   LIG    1        5.376  -0.818  -4.937  0.00  0.00    -0.070 C 
ATOM     55  C   LIG    1        6.760   1.111  -5.819  0.00  0.00    -0.091 C 
BRANCH  48  56
ATOM     56  O   LIG    1        4.035   1.447  -9.403  0.00  0.00    -0.491 OA
ATOM     57  C   LIG    1        5.000   2.346  -9.932  0.00  0.00    +0.277 C 
ENDBRANCH  48  56
BRANCH  49  58
ATOM     58  O   LIG    1        4.446  -0.401 -11.428  0.00  0.00    -0.488 OA
ATOM     59  C   LIG    1        3.072  -0.496 -11.783  0.00  0.00    +0.277 C 
ENDBRANCH  49  58
BRANCH  50  60
ATOM     60  O   LIG    1        5.380  -2.880 -10.891  0.00  0.00    -0.491 OA
ATOM     61  C   LIG    1        5.857  -4.198 -10.641  0.00  0.00    +0.277 C 
ENDBRANCH  50  60
BRANCH  46  62
ATOM     62  C   LIG    1        2.871   0.705  -6.207  0.00  0.00    +0.025 C 
BRANCH  62  63
ATOM     63  C   LIG    1        1.880   0.885  -7.351  0.00  0.00    -0.041 A 
ATOM     64  C   LIG    1        1.385  -0.230  -8.028  0.00  0.00    +0.053 A 
ATOM     65  C   LIG    1        0.513  -0.082  -9.117  0.00  0.00    +0.165 A 
ATOM     66  C   LIG    1        0.126   1.210  -9.503  0.00  0.00    +0.204 A 
ATOM     67  C   LIG    1        0.610   2.341  -8.830  0.00  0.00    +0.165 A 
ATOM     68  C   LIG    1        1.486   2.164  -7.747  0.00  0.00    +0.053 A 
BRANCH  65  69
ATOM     69  O   LIG    1        0.017  -1.141  -9.856  0.00  0.00    -0.491 OA
ATOM     70  C   LIG    1        0.420  -2.467  -9.531  0.00  0.00    +0.277 C 
ENDBRANCH  65  69
BRANCH  66  71
ATOM     71  O   LIG    1       -0.709   1.371 -10.582  0.00  0.00    -0.488 OA
ATOM     72  C   LIG    1       -2.091   1.372 -10.250  0.00  0.00    +0.277 C 
ENDBRANCH  66  71
BRANCH  67  73
ATOM     73  O   LIG    1        0.192   3.577  -9.290  0.00  0.00    -0.491 OA
ATOM     74  C   LIG    1        0.671   4.758  -8.656  0.00  0.00    +0.277 C 
ENDBRANCH  67  73
ENDBRANCH  62  63
ENDBRANCH  46  62
ENDBRANCH  44  45
ENDBRANCH  43  44
ENDBRANCH  42  43
ENDBRANCH  41  42
ENDBRANCH  39  41
ENDBRANCH  38  39
ENDBRANCH   1  38
TORSDOF 29
