REMARK  Name = DB01252
REMARK                            x       y       z     vdW  Elec       q    Type
REMARK                         _______ _______ _______ _____ _____    ______ ____
ROOT
ATOM      1  C   LIG    1        0.001   0.003  -0.002  0.00  0.00    +0.111 C 
ENDROOT
BRANCH   1   3
ATOM      2  O   LIG    1       -0.149   2.345  -0.509  0.00  0.00    -0.276 OA
ATOM      3  C   LIG    1       -0.743   1.359  -0.068  0.00  0.00    +0.216 C 
ATOM      4  N   LIG    1       -1.999   1.431   0.441  0.00  0.00    -0.301 N 
ATOM      5  C   LIG    1       -2.791   2.663   0.335  0.00  0.00    +0.111 C 
ATOM      6  C   LIG    1       -3.940   2.283  -0.605  0.00  0.00    +0.011 C 
ATOM      7  C   LIG    1       -5.279   3.001  -0.329  0.00  0.00    +0.005 C 
ATOM      8  C   LIG    1       -6.430   2.412  -1.173  0.00  0.00    +0.000 C 
ATOM      9  C   LIG    1       -6.523   0.862  -1.122  0.00  0.00    +0.000 C 
ATOM     10  C   LIG    1       -5.433   0.191  -0.257  0.00  0.00    +0.005 C 
ATOM     11  C   LIG    1       -4.024   0.745  -0.565  0.00  0.00    +0.011 C 
ATOM     12  C   LIG    1       -2.920   0.288   0.396  0.00  0.00    +0.111 C 
ENDBRANCH   1   3
BRANCH   1  13
ATOM     13  C   LIG    1        1.561   0.072   0.072  0.00  0.00    +0.111 C 
BRANCH  13  14
ATOM     14  C   LIG    1        2.056   0.690   1.415  0.00  0.00    +0.309 C 
ATOM     15  O   LIG    1        1.707   0.144   2.488  0.00  0.00    -0.251 OA
BRANCH  14  16
ATOM     16  O   LIG    1        2.791   1.701   1.347  0.00  0.00    -0.480 OA
ATOM     17  H   LIG    1        3.239   2.007   2.111  0.00  0.00    +0.295 HD
ENDBRANCH  14  16
ENDBRANCH  13  14
BRANCH  13  18
ATOM     18  C   LIG    1        2.181  -1.337  -0.173  0.00  0.00    +0.050 C 
BRANCH  18  19
ATOM     19  C   LIG    1        3.707  -1.404  -0.129  0.00  0.00    -0.047 A 
ATOM     20  C   LIG    1        4.454  -0.933  -1.212  0.00  0.00    +0.003 A 
ATOM     21  C   LIG    1        5.845  -0.992  -1.177  0.00  0.00    +0.000 A 
ATOM     22  C   LIG    1        6.484  -1.522  -0.058  0.00  0.00    +0.000 A 
ATOM     23  C   LIG    1        5.746  -1.993   1.026  0.00  0.00    +0.000 A 
ATOM     24  C   LIG    1        4.355  -1.935   0.990  0.00  0.00    +0.003 A 
ENDBRANCH  18  19
ENDBRANCH  13  18
ENDBRANCH   1  13
TORSDOF 6
