REMARK  Name = DB01002
REMARK                            x       y       z     vdW  Elec       q    Type
REMARK                         _______ _______ _______ _____ _____    ______ ____
ROOT
ATOM      1  O   LIG    1        0.664   1.609   2.265  0.00  0.00    -0.274 OA
ATOM      2  C   LIG    1        0.411   2.248   1.240  0.00  0.00    +0.234 C 
ATOM      3  N   LIG    1        0.683   3.563   1.101  0.00  0.00    -0.284 N 
ATOM      4  H   LIG    1        0.305   4.039   0.294  0.00  0.00    +0.155 HD
ENDROOT
BRANCH   3   5
ATOM      5  C   LIG    1        1.319   4.378   2.056  0.00  0.00    +0.039 A 
ATOM      6  C   LIG    1        2.628   4.117   2.522  0.00  0.00    -0.029 A 
ATOM      7  C   LIG    1        3.485   2.974   1.985  0.00  0.00    +0.045 C 
ATOM      8  C   LIG    1        3.201   4.969   3.471  0.00  0.00    +0.005 A 
ATOM      9  C   LIG    1        2.502   6.075   3.946  0.00  0.00    +0.001 A 
ATOM     10  C   LIG    1        1.225   6.349   3.468  0.00  0.00    +0.005 A 
ATOM     11  C   LIG    1        0.626   5.514   2.521  0.00  0.00    -0.029 A 
ATOM     12  C   LIG    1       -0.778   5.854   2.031  0.00  0.00    +0.045 C 
ENDBRANCH   3   5
BRANCH   2  13
ATOM     13  C   LIG    1       -0.301   1.573   0.029  0.00  0.00    +0.143 C 
ATOM     14  C   LIG    1       -1.842   1.678   0.212  0.00  0.00    +0.028 C 
ATOM     15  C   LIG    1       -2.436   0.600   1.135  0.00  0.00    +0.003 C 
ATOM     16  C   LIG    1       -1.933  -0.792   0.737  0.00  0.00    +0.015 C 
ATOM     17  C   LIG    1       -0.396  -0.859   0.669  0.00  0.00    +0.085 C 
ATOM     18  N   LIG    1        0.163   0.181  -0.213  0.00  0.00    -0.291 NA
BRANCH  18  19
ATOM     19  C   LIG    1        1.609   0.050  -0.449  0.00  0.00    +0.085 C 
BRANCH  19  20
ATOM     20  C   LIG    1        1.995  -1.242  -1.198  0.00  0.00    +0.015 C 
BRANCH  20  21
ATOM     21  C   LIG    1        3.428  -1.201  -1.757  0.00  0.00    -0.002 C 
ATOM     22  C   LIG    1        3.834  -2.505  -2.458  0.00  0.00    +0.004 C 
ENDBRANCH  20  21
ENDBRANCH  19  20
ENDBRANCH  18  19
ENDBRANCH   2  13
TORSDOF 5
