REMARK  Name = DB01390
REMARK                            x       y       z     vdW  Elec       q    Type
REMARK                         _______ _______ _______ _____ _____    ______ ____
ROOT
ATOM      1  C   LIG    1        0.045  -0.047   0.028  0.00  0.00    +0.505 C 
ATOM      2  O   LIG    1       -0.119  -1.260  -0.221  0.00  0.00    -0.203 OA
ENDROOT
BRANCH   1   3
ATOM      3  O   LIG    1       -0.811   0.862  -0.513  0.00  0.00    -0.450 OA
ATOM      4  H   LIG    1       -1.478   0.435  -1.054  0.00  0.00    +0.299 HD
ENDBRANCH   1   3
BRANCH   1   5
ATOM      5  O   LIG    1        0.976   0.345   0.763  0.00  0.00    -0.450 OA
ATOM      6  H   LIG    1        1.082   1.260   0.937  0.00  0.00    +0.299 HD
ENDBRANCH   1   5
TORSDOF 2
