REMARK  Name = DB01625
REMARK                            x       y       z     vdW  Elec       q    Type
REMARK                         _______ _______ _______ _____ _____    ______ ____
ROOT
ATOM      1  C   LIG    1        3.696  -0.744   1.182  0.00  0.00    +0.095 C 
ENDROOT
BRANCH   1   2
ATOM      2  C   LIG    1        4.244  -1.576   2.389  0.00  0.00    -0.028 A 
ATOM      3  C   LIG    1        3.530  -2.663   2.926  0.00  0.00    +0.005 A 
ATOM      4  C   LIG    1        4.040  -3.400   3.991  0.00  0.00    +0.000 A 
ATOM      5  C   LIG    1        5.278  -3.069   4.531  0.00  0.00    +0.000 A 
ATOM      6  C   LIG    1        6.013  -2.011   4.009  0.00  0.00    +0.000 A 
ATOM      7  C   LIG    1        5.502  -1.276   2.944  0.00  0.00    +0.005 A 
ENDBRANCH   1   2
BRANCH   1   8
ATOM      8  C   LIG    1        4.119   0.761   1.279  0.00  0.00    -0.028 A 
ATOM      9  C   LIG    1        3.933   1.437   2.497  0.00  0.00    +0.005 A 
ATOM     10  C   LIG    1        4.248   2.785   2.628  0.00  0.00    +0.000 A 
ATOM     11  C   LIG    1        4.740   3.487   1.533  0.00  0.00    +0.000 A 
ATOM     12  C   LIG    1        4.910   2.851   0.308  0.00  0.00    +0.000 A 
ATOM     13  C   LIG    1        4.595   1.501   0.179  0.00  0.00    +0.005 A 
ENDBRANCH   1   8
BRANCH   1  15
ATOM     14  O   LIG    1        3.534  -2.026  -0.903  0.00  0.00    -0.275 OA
ATOM     15  C   LIG    1        4.269  -1.462  -0.093  0.00  0.00    +0.225 C 
ATOM     16  N   LIG    1        5.595  -1.472  -0.278  0.00  0.00    -0.328 N 
ATOM     17  H   LIG    1        5.991  -1.934  -1.084  0.00  0.00    +0.145 HD
ATOM     18  H   LIG    1        6.207  -1.025   0.389  0.00  0.00    +0.145 HD
ENDBRANCH   1  15
BRANCH   1  19
ATOM     19  C   LIG    1        2.115  -0.752   1.161  0.00  0.00    +0.007 C 
BRANCH  19  20
ATOM     20  C   LIG    1        1.426   0.177   0.110  0.00  0.00    -0.073 C 
BRANCH  20  21
ATOM     21  N   LIG    1       -0.152   0.149   0.075  0.00  0.00    +0.381 N 
ATOM     22  C   LIG    1       -0.752  -0.285   1.448  0.00  0.00    -0.091 C 
BRANCH  21  23
ATOM     23  C   LIG    1       -0.640  -0.860  -1.049  0.00  0.00    -0.072 C 
ATOM     24  C   LIG    1       -0.104  -2.303  -0.881  0.00  0.00    -0.013 C 
ATOM     25  C   LIG    1       -2.178  -0.880  -1.250  0.00  0.00    -0.013 C 
ENDBRANCH  21  23
BRANCH  21  26
ATOM     26  C   LIG    1       -0.681   1.615  -0.228  0.00  0.00    -0.072 C 
ATOM     27  C   LIG    1       -0.430   2.637   0.918  0.00  0.00    -0.013 C 
ATOM     28  C   LIG    1       -0.183   2.167  -1.588  0.00  0.00    -0.013 C 
ENDBRANCH  21  26
ENDBRANCH  20  21
ENDBRANCH  19  20
ENDBRANCH   1  19
TORSDOF 8
