REMARK  Name = DB01233
REMARK                            x       y       z     vdW  Elec       q    Type
REMARK                         _______ _______ _______ _____ _____    ______ ____
ROOT
ATOM      1  C   LIG    1       -1.600   3.170   0.142  0.00  0.00    +0.080 A 
ATOM      2  C   LIG    1       -0.918   3.798  -0.913  0.00  0.00    +0.038 A 
ATOM      3  C   LIG    1       -1.092   5.153  -1.186  0.00  0.00    +0.062 A 
ATOM      4 CL   LIG    1       -0.215   5.855  -2.505  0.00  0.00    -0.082 Cl
ATOM      5  C   LIG    1       -1.960   5.910  -0.394  0.00  0.00    +0.047 A 
ATOM      6  C   LIG    1       -2.642   5.302   0.658  0.00  0.00    +0.070 A 
ATOM      7  C   LIG    1       -2.477   3.934   0.944  0.00  0.00    +0.134 A 
ENDROOT
BRANCH   1   8
ATOM      8  C   LIG    1       -1.364   1.696   0.411  0.00  0.00    +0.248 C 
ATOM      9  N   LIG    1       -1.109   0.935  -0.670  0.00  0.00    -0.310 N 
ATOM     10  H   LIG    1       -1.120   1.373  -1.579  0.00  0.00    +0.149 HD
ATOM     11  O   LIG    1       -1.410   1.238   1.555  0.00  0.00    -0.270 OA
BRANCH   9  12
ATOM     12  C   LIG    1       -0.805  -0.497  -0.647  0.00  0.00    +0.120 C 
BRANCH  12  13
ATOM     13  C   LIG    1        0.582  -0.858  -0.057  0.00  0.00    +0.103 C 
BRANCH  13  14
ATOM     14  N   LIG    1        1.706  -0.864  -1.013  0.00  0.00    -0.301 NA
BRANCH  14  15
ATOM     15  C   LIG    1        2.936  -1.361  -0.371  0.00  0.00    +0.081 C 
ATOM     16  C   LIG    1        2.855  -2.824   0.107  0.00  0.00    +0.020 C 
ENDBRANCH  14  15
BRANCH  14  17
ATOM     17  C   LIG    1        1.918   0.473  -1.593  0.00  0.00    +0.081 C 
ATOM     18  C   LIG    1        2.984   0.525  -2.705  0.00  0.00    +0.020 C 
ENDBRANCH  14  17
ENDBRANCH  13  14
ENDBRANCH  12  13
ENDBRANCH   9  12
ENDBRANCH   1   8
BRANCH   5  19
ATOM     19  N   LIG    1       -2.163   7.271  -0.635  0.00  0.00    -0.357 N 
ATOM     20  H   LIG    1       -2.912   7.741  -0.147  0.00  0.00    +0.142 HD
ATOM     21  H   LIG    1       -1.767   7.674  -1.472  0.00  0.00    +0.142 HD
ENDBRANCH   5  19
BRANCH   7  22
ATOM     22  O   LIG    1       -3.159   3.303   1.973  0.00  0.00    -0.494 OA
ATOM     23  C   LIG    1       -4.034   4.048   2.814  0.00  0.00    +0.277 C 
ENDBRANCH   7  22
TORSDOF 8
