REMARK  Name = DB01112
REMARK                            x       y       z     vdW  Elec       q    Type
REMARK                         _______ _______ _______ _____ _____    ______ ____
ROOT
ATOM      1  C   LIG    1       -0.509  -0.032   1.604  0.00  0.00    +0.169 C 
ATOM      2  CA  LIG    1        0.052  -0.231   0.166  0.00  0.00    +0.191 C 
ATOM      3  C   LIG    1       -0.662   1.108  -0.168  0.00  0.00    +0.244 C 
ATOM      4  O   LIG    1       -0.636   1.900  -1.109  0.00  0.00    -0.273 OA
ATOM      5  S   LIG    1        0.528   0.553   2.983  0.00  0.00    -0.131 S 
ATOM      6  C   LIG    1       -0.872   1.165   3.985  0.00  0.00    +0.107 C 
ATOM      7  C   LIG    1       -1.809   2.111   3.212  0.00  0.00    +0.006 C 
ATOM      8  CA  LIG    1       -1.945   2.044   1.853  0.00  0.00    +0.125 C 
ATOM      9  N   LIG    1       -1.291   1.113   1.084  0.00  0.00    -0.249 N 
ENDROOT
BRANCH   2  10
ATOM     10  N   LIG    1        1.502  -0.155  -0.015  0.00  0.00    -0.296 N 
ATOM     11  H   LIG    1        1.857   0.670  -0.477  0.00  0.00    +0.150 HD
ATOM     12  C   LIG    1        2.371  -1.114   0.357  0.00  0.00    +0.270 C 
ATOM     13  O   LIG    1        2.035  -2.174   0.889  0.00  0.00    -0.268 OA
BRANCH  12  14
ATOM     14  C   LIG    1        3.772  -0.793   0.054  0.00  0.00    +0.206 C 
ATOM     15  N   LIG    1        4.482  -1.514  -0.740  0.00  0.00    -0.076 NA
BRANCH  14  16
ATOM     16  C   LIG    1        4.391   0.381   0.691  0.00  0.00    +0.161 A 
ATOM     17  C   LIG    1        5.653   0.964   0.589  0.00  0.00    +0.052 A 
ATOM     18  C   LIG    1        5.683   2.069   1.440  0.00  0.00    +0.042 A 
ATOM     19  C   LIG    1        4.439   2.125   2.038  0.00  0.00    +0.196 A 
ATOM     20  O   LIG    1        3.663   1.107   1.589  0.00  0.00    -0.461 OA
ENDBRANCH  14  16
BRANCH  15  21
ATOM     21  O   LIG    1        3.810  -2.609  -1.332  0.00  0.00    -0.396 OA
ATOM     22  C   LIG    1        4.720  -3.309  -2.164  0.00  0.00    +0.313 C 
ENDBRANCH  15  21
ENDBRANCH  12  14
ENDBRANCH   2  10
BRANCH   8  23
ATOM     23  C   LIG    1       -2.803   2.982   1.140  0.00  0.00    +0.351 C 
ATOM     24  O   LIG    1       -2.748   4.205   1.266  0.00  0.00    -0.244 OA
BRANCH  23  25
ATOM     25  OXT LIG    1       -3.692   2.355   0.313  0.00  0.00    -0.476 OA
ATOM     26  HXT LIG    1       -4.254   2.976  -0.156  0.00  0.00    +0.295 HD
ENDBRANCH  23  25
ENDBRANCH   8  23
BRANCH   7  27
ATOM     27  C   LIG    1       -2.567   3.081   4.122  0.00  0.00    +0.268 C 
BRANCH  27  28
ATOM     28  O   LIG    1       -1.685   4.063   4.652  0.00  0.00    -0.446 OA
BRANCH  28  29
ATOM     29  C   LIG    1       -2.095   4.904   5.619  0.00  0.00    +0.398 C 
ATOM     30  O   LIG    1       -3.216   4.916   6.128  0.00  0.00    -0.227 OA
ATOM     31  N   LIG    1       -1.065   5.753   5.955  0.00  0.00    -0.295 N 
ATOM     32  H   LIG    1       -0.179   5.670   5.480  0.00  0.00    +0.148 HD
ATOM     33  H   LIG    1       -1.213   6.450   6.670  0.00  0.00    +0.148 HD
ENDBRANCH  28  29
ENDBRANCH  27  28
ENDBRANCH   7  27
TORSDOF 9
