REMARK  Name = DB01301
REMARK                            x       y       z     vdW  Elec       q    Type
REMARK                         _______ _______ _______ _____ _____    ______ ____
ROOT
ATOM      1  C   LIG    1       -4.391   4.577   1.315  0.00  0.00    -0.001 A 
ATOM      2  C   LIG    1       -4.003   3.125   0.965  0.00  0.00    +0.096 C 
ATOM      3  C   LIG    1       -4.439   2.105   2.058  0.00  0.00    +0.047 C 
ATOM      4  C   LIG    1       -2.453   3.063   0.743  0.00  0.00    +0.062 C 
ATOM      5  C   LIG    1       -2.023   4.054  -0.361  0.00  0.00    +0.047 C 
ATOM      6  C   LIG    1       -2.529   5.451  -0.224  0.00  0.00    +0.197 C 
ATOM      7  O   LIG    1       -2.024   6.399  -0.830  0.00  0.00    -0.287 OA
ATOM      8  C   LIG    1       -1.169   3.704  -1.372  0.00  0.00    +0.141 C 
ATOM      9  C   LIG    1       -0.471   2.322  -1.530  0.00  0.00    +0.190 C 
ATOM     10  C   LIG    1       -1.127   1.482  -2.670  0.00  0.00    +0.211 C 
ATOM     11  O   LIG    1       -1.459   2.018  -3.732  0.00  0.00    -0.288 OA
ATOM     12  C   LIG    1       -1.342   0.023  -2.431  0.00  0.00    +0.121 C 
ATOM     13  C   LIG    1       -0.802  -0.578  -1.330  0.00  0.00    +0.127 C 
ATOM     14  C   LIG    1        0.036   0.124  -0.241  0.00  0.00    +0.129 C 
ATOM     15  C   LIG    1       -0.504   1.590  -0.149  0.00  0.00    +0.061 C 
ATOM     16  C   LIG    1       -1.930   1.631   0.446  0.00  0.00    +0.020 C 
ATOM     17  C   LIG    1       -3.678   5.671   0.751  0.00  0.00    +0.069 A 
ATOM     18  C   LIG    1       -4.085   6.990   1.096  0.00  0.00    +0.128 A 
ATOM     19  C   LIG    1       -5.157   7.212   1.954  0.00  0.00    +0.046 A 
ATOM     20  C   LIG    1       -5.857   6.144   2.486  0.00  0.00    +0.004 A 
ATOM     21  C   LIG    1       -5.477   4.851   2.166  0.00  0.00    +0.007 A 
ENDROOT
BRANCH  12  22
ATOM     22  C   LIG    1       -2.160  -0.773  -3.341  0.00  0.00    +0.252 C 
ATOM     23  O   LIG    1       -3.124  -1.433  -2.945  0.00  0.00    -0.270 OA
ATOM     24  N   LIG    1       -1.777  -0.735  -4.633  0.00  0.00    -0.298 N 
ATOM     25  H   LIG    1       -0.991  -0.153  -4.883  0.00  0.00    +0.150 HD
BRANCH  24  26
ATOM     26  C   LIG    1       -2.479  -1.382  -5.742  0.00  0.00    +0.192 C 
BRANCH  26  27
ATOM     27  N   LIG    1       -3.678  -0.674  -6.194  0.00  0.00    -0.287 NA
ATOM     28  C   LIG    1       -3.410   0.615  -6.821  0.00  0.00    +0.086 C 
ATOM     29  C   LIG    1       -4.708   0.988  -7.539  0.00  0.00    +0.017 C 
ATOM     30  C   LIG    1       -5.388  -0.358  -7.809  0.00  0.00    +0.017 C 
ATOM     31  C   LIG    1       -4.424  -1.391  -7.217  0.00  0.00    +0.086 C 
ENDBRANCH  26  27
ENDBRANCH  24  26
ENDBRANCH  12  22
BRANCH  14  32
ATOM     32  N   LIG    1        1.500  -0.007  -0.449  0.00  0.00    -0.299 NA
ATOM     33  C   LIG    1        1.959  -1.377  -0.693  0.00  0.00    +0.105 C 
ATOM     34  C   LIG    1        2.259   0.502   0.696  0.00  0.00    +0.105 C 
ENDBRANCH  14  32
BRANCH   2  35
ATOM     35  O   LIG    1       -4.686   2.706  -0.207  0.00  0.00    -0.384 OA
ATOM     36  H   LIG    1       -4.503   1.775  -0.352  0.00  0.00    +0.211 HD
ENDBRANCH   2  35
BRANCH   8  37
ATOM     37  O   LIG    1       -0.801   4.534  -2.398  0.00  0.00    -0.507 OA
ATOM     38  H   LIG    1       -0.188   4.073  -2.975  0.00  0.00    +0.292 HD
ENDBRANCH   8  37
BRANCH   9  39
ATOM     39  O   LIG    1        0.890   2.518  -1.901  0.00  0.00    -0.373 OA
ATOM     40  H   LIG    1        1.359   1.689  -1.775  0.00  0.00    +0.211 HD
ENDBRANCH   9  39
BRANCH  13  41
ATOM     41  O   LIG    1       -0.990  -1.884  -0.971  0.00  0.00    -0.509 OA
ATOM     42  H   LIG    1       -0.514  -2.064  -0.157  0.00  0.00    +0.292 HD
ENDBRANCH  13  41
BRANCH  18  43
ATOM     43  O   LIG    1       -3.462   8.124   0.634  0.00  0.00    -0.506 OA
ATOM     44  H   LIG    1       -3.857   8.932   0.969  0.00  0.00    +0.292 HD
ENDBRANCH  18  43
TORSDOF 9
