REMARK  Name = DB01259
REMARK                            x       y       z     vdW  Elec       q    Type
REMARK                         _______ _______ _______ _____ _____    ______ ____
ROOT
ATOM      1  C   LIG    1        4.464  -5.126  -1.805  0.00  0.00    +0.134 A 
ATOM      2  C   LIG    1        4.777  -3.736  -1.684  0.00  0.00    +0.041 A 
ATOM      3  C   LIG    1        6.154  -3.383  -1.845  0.00  0.00    +0.076 A 
ATOM      4  C   LIG    1        6.540  -2.028  -1.731  0.00  0.00    +0.029 A 
ATOM      5  C   LIG    1        5.588  -1.047  -1.466  0.00  0.00    +0.013 A 
ATOM      6  C   LIG    1        4.240  -1.373  -1.310  0.00  0.00    +0.018 A 
ATOM      7  N   LIG    1        7.109  -4.320  -2.107  0.00  0.00    -0.235 NA
ATOM      8  C   LIG    1        6.688  -5.603  -2.208  0.00  0.00    +0.223 A 
ATOM      9  C   LIG    1        3.833  -2.706  -1.417  0.00  0.00    +0.025 A 
ATOM     10  N   LIG    1        5.419  -6.053  -2.073  0.00  0.00    -0.220 NA
ENDROOT
BRANCH   6  11
ATOM     11  C   LIG    1        3.247  -0.296  -1.030  0.00  0.00    +0.135 A 
ATOM     12  C   LIG    1        3.355   1.023  -0.610  0.00  0.00    +0.050 A 
ATOM     13  C   LIG    1        2.061   1.535  -0.532  0.00  0.00    +0.046 A 
ATOM     14  C   LIG    1        1.200   0.513  -0.908  0.00  0.00    +0.119 A 
ATOM     15  O   LIG    1        1.930  -0.591  -1.214  0.00  0.00    -0.458 OA
BRANCH  14  16
ATOM     16  C   LIG    1       -0.305   0.383  -1.061  0.00  0.00    +0.156 C 
BRANCH  16  17
ATOM     17  N   LIG    1       -1.055   1.376  -0.300  0.00  0.00    -0.308 NA
ATOM     18  H   LIG    1       -0.737   2.309  -0.527  0.00  0.00    +0.122 HD
BRANCH  17  19
ATOM     19  C   LIG    1       -1.009   1.146   1.140  0.00  0.00    +0.104 C 
BRANCH  19  20
ATOM     20  C   LIG    1       -1.644   2.321   1.902  0.00  0.00    +0.180 C 
BRANCH  20  21
ATOM     21  S   LIG    1       -0.721   3.949   1.590  0.00  0.00    -0.033 S 
ATOM     22  C   LIG    1       -1.600   5.177   2.716  0.00  0.00    +0.194 C 
ATOM     23  O   LIG    1       -0.956   4.363   0.203  0.00  0.00    -0.175 OA
ATOM     24  O   LIG    1        0.653   3.792   2.080  0.00  0.00    -0.175 OA
ENDBRANCH  20  21
ENDBRANCH  19  20
ENDBRANCH  17  19
ENDBRANCH  16  17
ENDBRANCH  14  16
ENDBRANCH   6  11
BRANCH   1  25
ATOM     25  N   LIG    1        3.130  -5.558  -1.673  0.00  0.00    -0.299 N 
ATOM     26  H   LIG    1        2.470  -4.800  -1.585  0.00  0.00    +0.154 HD
BRANCH  25  32
ATOM     27 CL   LIG    1       -1.168  -8.199  -2.337  0.00  0.00    -0.080 Cl
ATOM     28  C   LIG    1        0.509  -8.146  -1.918  0.00  0.00    +0.084 A 
ATOM     29  C   LIG    1        1.189  -9.314  -1.551  0.00  0.00    +0.139 A 
ATOM     30  C   LIG    1        2.549  -9.219  -1.210  0.00  0.00    +0.049 A 
ATOM     31  C   LIG    1        3.209  -7.992  -1.244  0.00  0.00    +0.027 A 
ATOM     32  C   LIG    1        2.529  -6.829  -1.628  0.00  0.00    +0.034 A 
ATOM     33  C   LIG    1        1.174  -6.918  -1.950  0.00  0.00    +0.047 A 
BRANCH  29  34
ATOM     34  O   LIG    1        0.472 -10.497  -1.544  0.00  0.00    -0.486 OA
BRANCH  34  35
ATOM     35  C   LIG    1        1.119 -11.713  -1.170  0.00  0.00    +0.264 C 
BRANCH  35  36
ATOM     36  C   LIG    1        0.155 -12.892  -1.238  0.00  0.00    -0.008 A 
ATOM     37  C   LIG    1        0.670 -14.192  -1.286  0.00  0.00    +0.007 A 
ATOM     38  C   LIG    1       -0.187 -15.291  -1.341  0.00  0.00    +0.003 A 
ATOM     39  C   LIG    1       -1.568 -15.099  -1.347  0.00  0.00    +0.038 A 
ATOM     40  C   LIG    1       -2.092 -13.808  -1.294  0.00  0.00    +0.124 A 
ATOM     41  F   LIG    1       -3.431 -13.622  -1.297  0.00  0.00    -0.205 F 
ATOM     42  C   LIG    1       -1.235 -12.708  -1.237  0.00  0.00    +0.045 A 
ENDBRANCH  35  36
ENDBRANCH  34  35
ENDBRANCH  29  34
ENDBRANCH  25  32
ENDBRANCH   1  25
TORSDOF 11
