REMARK  Name = DB01579
REMARK                            x       y       z     vdW  Elec       q    Type
REMARK                         _______ _______ _______ _____ _____    ______ ____
ROOT
ATOM      1  C   LIG    1        0.020   0.010   0.085  0.00  0.00    +0.165 C 
ATOM      2  O   LIG    1       -0.447   1.357   0.153  0.00  0.00    -0.369 OA
ATOM      3  C   LIG    1       -1.862   1.465   0.136  0.00  0.00    +0.176 C 
ATOM      4  C   LIG    1       -2.445   0.711   1.342  0.00  0.00    +0.112 C 
ATOM      5  N   LIG    1       -2.014  -0.692   1.340  0.00  0.00    -0.298 NA
ATOM      6  C   LIG    1       -2.607  -1.358   2.500  0.00  0.00    +0.105 C 
ATOM      7  C   LIG    1       -0.542  -0.829   1.285  0.00  0.00    +0.087 C 
ATOM      8  C   LIG    1       -0.045  -2.294   1.210  0.00  0.00    +0.027 C 
ENDROOT
BRANCH   1   9
ATOM      9  C   LIG    1        1.548   0.022   0.019  0.00  0.00    -0.017 A 
ATOM     10  C   LIG    1        2.286   0.665   1.019  0.00  0.00    +0.006 A 
ATOM     11  C   LIG    1        3.677   0.675   0.962  0.00  0.00    +0.000 A 
ATOM     12  C   LIG    1        4.329   0.044  -0.095  0.00  0.00    +0.000 A 
ATOM     13  C   LIG    1        3.602  -0.598  -1.095  0.00  0.00    +0.000 A 
ATOM     14  C   LIG    1        2.211  -0.608  -1.039  0.00  0.00    +0.006 A 
ENDBRANCH   1   9
TORSDOF 1
