REMARK  Name = DB01481
REMARK                            x       y       z     vdW  Elec       q    Type
REMARK                         _______ _______ _______ _____ _____    ______ ____
ROOT
ATOM      1  C   LIG    1        1.453   0.039   0.036  0.00  0.00    +0.121 C 
ATOM      2  C   LIG    1        2.095  -0.634   1.270  0.00  0.00    +0.032 C 
ATOM      3  C   LIG    1        3.225  -1.539   0.737  0.00  0.00    +0.007 C 
ATOM      4  C   LIG    1        3.317  -1.186  -0.753  0.00  0.00    +0.001 C 
ATOM      5  C   LIG    1        3.997  -2.160  -1.752  0.00  0.00    -0.003 C 
ATOM      6  C   LIG    1        5.403  -2.595  -1.272  0.00  0.00    +0.004 C 
ATOM      7  C   LIG    1        6.101  -3.497  -2.304  0.00  0.00    +0.005 C 
ATOM      8  C   LIG    1        6.191  -2.777  -3.666  0.00  0.00    +0.006 C 
ATOM      9  C   LIG    1        7.103  -3.505  -4.687  0.00  0.00    +0.083 C 
ATOM     10  C   LIG    1        7.212  -2.735  -6.016  0.00  0.00    +0.156 C 
ATOM     11  C   LIG    1        6.082  -1.882  -6.372  0.00  0.00    +0.042 C 
ATOM     12  C   LIG    1        4.999  -1.712  -5.584  0.00  0.00    -0.016 C 
ATOM     13  O   LIG    1        8.169  -2.877  -6.774  0.00  0.00    -0.293 OA
ATOM     14  C   LIG    1        4.769  -2.410  -4.235  0.00  0.00    -0.007 C 
ATOM     15  C   LIG    1        3.927  -3.680  -4.553  0.00  0.00    +0.016 C 
ATOM     16  C   LIG    1        4.056  -1.487  -3.175  0.00  0.00    +0.002 C 
ATOM     17  C   LIG    1        2.652  -0.948  -3.613  0.00  0.00    +0.005 C 
ATOM     18  C   LIG    1        1.979  -0.072  -2.526  0.00  0.00    +0.010 C 
ATOM     19  C   LIG    1        1.871  -0.830  -1.176  0.00  0.00    -0.003 C 
ATOM     20  C   LIG    1        0.908  -2.052  -1.296  0.00  0.00    +0.014 C 
ENDROOT
BRANCH   1  21
ATOM     21  O   LIG    1        0.086   0.376   0.177  0.00  0.00    -0.391 OA
ATOM     22  H   LIG    1       -0.140   1.022  -0.497  0.00  0.00    +0.210 HD
ENDBRANCH   1  21
TORSDOF 1
