REMARK  Name = DB01418
REMARK                            x       y       z     vdW  Elec       q    Type
REMARK                         _______ _______ _______ _____ _____    ______ ____
ROOT
ATOM      1  C   LIG    1        0.075   0.188  -0.119  0.00  0.00    +0.067 C 
ENDROOT
BRANCH   1   8
ATOM      2  C   LIG    1       -2.714  -3.836  -4.561  0.00  0.00    +0.004 A 
ATOM      3  C   LIG    1       -1.925  -2.693  -4.684  0.00  0.00    +0.047 A 
ATOM      4  C   LIG    1       -1.464  -2.044  -3.537  0.00  0.00    +0.143 A 
ATOM      5  O   LIG    1       -0.684  -0.913  -3.721  0.00  0.00    -0.422 OA
ATOM      6  C   LIG    1       -0.162  -0.187  -2.661  0.00  0.00    +0.345 A 
ATOM      7  O   LIG    1        0.529   0.776  -2.991  0.00  0.00    -0.245 OA
ATOM      8  C   LIG    1       -0.489  -0.654  -1.283  0.00  0.00    +0.087 A 
ATOM      9  C   LIG    1       -1.253  -1.762  -1.118  0.00  0.00    +0.138 A 
ATOM     10  C   LIG    1       -1.786  -2.528  -2.262  0.00  0.00    +0.059 A 
ATOM     11  C   LIG    1       -2.580  -3.679  -2.150  0.00  0.00    +0.015 A 
ATOM     12  C   LIG    1       -3.041  -4.328  -3.297  0.00  0.00    +0.001 A 
BRANCH   9  13
ATOM     13  O   LIG    1       -1.598  -2.255   0.105  0.00  0.00    -0.506 OA
ATOM     14  H   LIG    1       -2.133  -3.044  -0.008  0.00  0.00    +0.292 HD
ENDBRANCH   9  13
ENDBRANCH   1   8
BRANCH   1  15
ATOM     15  C   LIG    1       -0.530   1.605  -0.073  0.00  0.00    -0.039 A 
ATOM     16  C   LIG    1        0.170   2.722  -0.542  0.00  0.00    +0.006 A 
ATOM     17  C   LIG    1       -0.406   3.988  -0.486  0.00  0.00    +0.033 A 
ATOM     18  C   LIG    1       -1.695   4.162   0.037  0.00  0.00    +0.122 A 
ATOM     19  C   LIG    1       -2.393   3.040   0.503  0.00  0.00    +0.033 A 
ATOM     20  C   LIG    1       -1.815   1.775   0.449  0.00  0.00    +0.006 A 
BRANCH  18  21
ATOM     21  N   LIG    1       -2.309   5.512   0.096  0.00  0.00    +0.006 N 
ATOM     22  O   LIG    1       -3.443   5.623   0.554  0.00  0.00    -0.130 OA
BRANCH  21  23
ATOM     23  O   LIG    1       -1.664   6.471  -0.317  0.00  0.00    -0.396 OA
ATOM     24  H   LIG    1       -0.801   6.343  -0.659  0.00  0.00    +0.329 HD
ENDBRANCH  21  23
ENDBRANCH  18  21
ENDBRANCH   1  15
BRANCH   1  25
ATOM     25  C   LIG    1        1.629   0.102  -0.010  0.00  0.00    +0.087 C 
BRANCH  25  26
ATOM     26  C   LIG    1        2.272   0.756   1.224  0.00  0.00    +0.131 C 
ATOM     27  O   LIG    1        1.609   1.176   2.173  0.00  0.00    -0.298 OA
ATOM     28  C   LIG    1        3.792   0.863   1.227  0.00  0.00    +0.086 C 
ENDBRANCH  25  26
ENDBRANCH   1  25
TORSDOF 7
