REMARK  Name = DB01551
REMARK                            x       y       z     vdW  Elec       q    Type
REMARK                         _______ _______ _______ _____ _____    ______ ____
ROOT
ATOM      1  C   LIG    1       -2.527   2.612   0.020  0.00  0.00    +0.044 C 
ATOM      2  C   LIG    1       -2.801   3.022   1.493  0.00  0.00    +0.031 C 
ATOM      3  C   LIG    1       -3.881   2.131   2.153  0.00  0.00    +0.085 C 
ATOM      4  N   LIG    1       -5.105   1.968   1.342  0.00  0.00    -0.302 NA
ATOM      5  C   LIG    1       -6.041   3.070   1.565  0.00  0.00    +0.105 C 
ATOM      6  C   LIG    1       -4.875   1.724  -0.105  0.00  0.00    +0.065 C 
ATOM      7  C   LIG    1       -4.408   0.251  -0.370  0.00  0.00    +0.054 C 
ATOM      8  C   LIG    1       -2.902   0.057  -0.153  0.00  0.00    -0.038 A 
ATOM      9  C   LIG    1       -2.250  -1.183  -0.086  0.00  0.00    +0.008 A 
ATOM     10  C   LIG    1       -0.850  -1.263   0.021  0.00  0.00    +0.050 A 
ATOM     11  C   LIG    1       -0.057  -0.096   0.022  0.00  0.00    +0.162 A 
ATOM     12  C   LIG    1       -0.721   1.127  -0.052  0.00  0.00    +0.167 A 
ATOM     13  O   LIG    1       -0.169   2.385  -0.189  0.00  0.00    -0.481 OA
ATOM     14  C   LIG    1       -3.877   2.781  -0.711  0.00  0.00    +0.021 C 
ATOM     15  C   LIG    1       -3.728   2.773  -2.246  0.00  0.00    +0.009 C 
ATOM     16  C   LIG    1       -2.671   3.811  -2.683  0.00  0.00    +0.035 C 
ATOM     17  C   LIG    1       -1.266   3.468  -2.132  0.00  0.00    +0.156 C 
ATOM     18  C   LIG    1       -1.252   3.272  -0.572  0.00  0.00    +0.213 C 
ATOM     19  C   LIG    1       -2.090   1.185  -0.067  0.00  0.00    +0.011 A 
ENDROOT
BRANCH  11  20
ATOM     20  O   LIG    1        1.323  -0.057   0.060  0.00  0.00    -0.491 OA
ATOM     21  C   LIG    1        2.036  -1.286   0.110  0.00  0.00    +0.277 C 
ENDBRANCH  11  20
BRANCH  17  22
ATOM     22  O   LIG    1       -0.780   2.324  -2.818  0.00  0.00    -0.388 OA
ATOM     23  H   LIG    1        0.086   2.105  -2.466  0.00  0.00    +0.210 HD
ENDBRANCH  17  22
TORSDOF 2
