REMARK  Name = DB01546
REMARK                            x       y       z     vdW  Elec       q    Type
REMARK                         _______ _______ _______ _____ _____    ______ ____
ROOT
ATOM      1  N   LIG    1        2.746  -3.499  -0.896  0.00  0.00    -0.360 N 
ATOM      2  H   LIG    1        2.852  -4.277  -1.532  0.00  0.00    +0.165 HD
ATOM      3  C   LIG    1        2.123  -2.332  -1.254  0.00  0.00    +0.087 A 
ATOM      4  C   LIG    1        2.118  -1.441  -0.196  0.00  0.00    -0.024 A 
ATOM      5  C   LIG    1        2.791  -2.122   0.882  0.00  0.00    +0.003 A 
ATOM      6  C   LIG    1        3.114  -1.773   2.204  0.00  0.00    +0.010 A 
ATOM      7  C   LIG    1        3.788  -2.692   3.006  0.00  0.00    +0.001 A 
ATOM      8  C   LIG    1        4.144  -3.947   2.519  0.00  0.00    +0.002 A 
ATOM      9  C   LIG    1        3.848  -4.341   1.214  0.00  0.00    +0.026 A 
ATOM     10  C   LIG    1        3.172  -3.417   0.410  0.00  0.00    +0.047 A 
ENDROOT
BRANCH   4  11
ATOM     11  C   LIG    1        1.519  -0.045  -0.169  0.00  0.00    +0.021 C 
BRANCH  11  12
ATOM     12  C   LIG    1        0.005  -0.015   0.163  0.00  0.00    -0.071 C 
BRANCH  12  13
ATOM     13  N   LIG    1       -0.216  -0.421   1.632  0.00  0.00    +0.380 N 
ATOM     14  H   LIG    1       -1.203  -0.442   1.845  0.00  0.00    -0.090 HD
ATOM     15  H   LIG    1        0.174  -1.338   1.798  0.00  0.00    -0.090 HD
ATOM     16  H   LIG    1        0.237   0.240   2.247  0.00  0.00    -0.090 HD
ENDBRANCH  12  13
BRANCH  12  17
ATOM     17  C   LIG    1       -0.639   1.370  -0.102  0.00  0.00    -0.019 C 
ATOM     18  C   LIG    1       -2.172   1.421   0.038  0.00  0.00    +0.002 C 
ENDBRANCH  12  17
ENDBRANCH  11  12
ENDBRANCH   4  11
TORSDOF 4
