REMARK  Name = DB01242
REMARK                            x       y       z     vdW  Elec       q    Type
REMARK                         _______ _______ _______ _____ _____    ______ ____
ROOT
ATOM      1 CL   LIG    1        0.711  -5.614   0.949  0.00  0.00    -0.083 Cl
ATOM      2  C   LIG    1        1.910  -4.920   1.980  0.00  0.00    +0.043 A 
ATOM      3  C   LIG    1        2.690  -5.734   2.786  0.00  0.00    +0.020 A 
ATOM      4  C   LIG    1        3.647  -5.160   3.611  0.00  0.00    +0.007 A 
ATOM      5  C   LIG    1        3.856  -3.773   3.646  0.00  0.00    -0.026 A 
ATOM      6  C   LIG    1        4.956  -3.272   4.574  0.00  0.00    +0.042 C 
ATOM      7  C   LIG    1        5.707  -2.014   4.140  0.00  0.00    +0.042 C 
ATOM      8  C   LIG    1        4.901  -0.758   4.387  0.00  0.00    -0.026 A 
ATOM      9  C   LIG    1        5.385   0.226   5.259  0.00  0.00    +0.005 A 
ATOM     10  C   LIG    1        4.629   1.354   5.561  0.00  0.00    +0.000 A 
ATOM     11  C   LIG    1        3.369   1.506   4.999  0.00  0.00    +0.002 A 
ATOM     12  C   LIG    1        2.880   0.536   4.128  0.00  0.00    +0.024 A 
ATOM     13  C   LIG    1        3.628  -0.608   3.798  0.00  0.00    +0.037 A 
ATOM     14  N   LIG    1        3.106  -1.501   2.837  0.00  0.00    -0.300 N 
ATOM     15  C   LIG    1        3.055  -2.921   2.837  0.00  0.00    +0.039 A 
ATOM     16  C   LIG    1        2.091  -3.542   2.015  0.00  0.00    +0.043 A 
ENDROOT
BRANCH  14  17
ATOM     17  C   LIG    1        3.064  -0.887   1.490  0.00  0.00    +0.112 C 
BRANCH  17  18
ATOM     18  C   LIG    1        1.680  -0.300   1.131  0.00  0.00    +0.035 C 
BRANCH  18  19
ATOM     19  C   LIG    1        1.453  -0.112  -0.384  0.00  0.00    +0.085 C 
BRANCH  19  20
ATOM     20  N   LIG    1        0.043   0.088  -0.732  0.00  0.00    -0.308 NA
ATOM     21  C   LIG    1       -0.110   0.097  -2.183  0.00  0.00    +0.104 C 
ATOM     22  C   LIG    1       -0.492   1.334  -0.184  0.00  0.00    +0.104 C 
ENDBRANCH  19  20
ENDBRANCH  18  19
ENDBRANCH  17  18
ENDBRANCH  14  17
TORSDOF 4
