REMARK  Name = DB01291
REMARK                            x       y       z     vdW  Elec       q    Type
REMARK                         _______ _______ _______ _____ _____    ______ ____
ROOT
ATOM      1  C   LIG    1        1.638  -0.105  -0.083  0.00  0.00    +0.072 A 
ATOM      2  C   LIG    1        2.283   0.769   0.799  0.00  0.00    +0.029 A 
ATOM      3  C   LIG    1        3.677   0.760   0.852  0.00  0.00    +0.049 A 
ATOM      4  C   LIG    1        4.394  -0.113   0.030  0.00  0.00    +0.140 A 
ATOM      5  CA  LIG    1        3.680  -0.959  -0.832  0.00  0.00    +0.108 A 
ATOM      6  N   LIG    1        2.321  -0.960  -0.891  0.00  0.00    -0.248 NA
ENDROOT
BRANCH   4   7
ATOM      7  O   LIG    1        5.765  -0.126   0.084  0.00  0.00    -0.505 OA
ATOM      8  H   LIG    1        6.119   0.509   0.710  0.00  0.00    +0.292 HD
ENDBRANCH   4   7
BRANCH   1   9
ATOM      9  C   LIG    1        0.114  -0.156  -0.185  0.00  0.00    +0.176 C 
BRANCH   9  10
ATOM     10  O   LIG    1       -0.438   1.110  -0.489  0.00  0.00    -0.384 OA
ATOM     11  H   LIG    1       -0.128   1.374  -1.359  0.00  0.00    +0.210 HD
ENDBRANCH   9  10
BRANCH   9  12
ATOM     12  C   LIG    1       -0.563  -0.681   1.103  0.00  0.00    +0.119 C 
BRANCH  12  13
ATOM     13  N   LIG    1       -0.144  -2.055   1.386  0.00  0.00    -0.308 NA
ATOM     14  H   LIG    1       -0.327  -2.647   0.589  0.00  0.00    +0.123 HD
BRANCH  13  15
ATOM     15  C   LIG    1       -0.655  -2.686   2.609  0.00  0.00    +0.011 C 
ATOM     16  C   LIG    1       -0.129  -1.940   3.858  0.00  0.00    +0.027 C 
ATOM     17  C   LIG    1       -2.202  -2.729   2.602  0.00  0.00    +0.027 C 
ATOM     18  C   LIG    1       -0.099  -4.125   2.599  0.00  0.00    +0.027 C 
ENDBRANCH  13  15
ENDBRANCH  12  13
ENDBRANCH   9  12
ENDBRANCH   1   9
BRANCH   5  19
ATOM     19  C   LIG    1        4.378  -1.941  -1.766  0.00  0.00    +0.214 C 
BRANCH  19  20
ATOM     20  O   LIG    1        5.038  -1.297  -2.837  0.00  0.00    -0.389 OA
ATOM     21  H   LIG    1        5.488  -1.962  -3.363  0.00  0.00    +0.210 HD
ENDBRANCH  19  20
ENDBRANCH   5  19
TORSDOF 8
