REMARK  Name = DB01319
REMARK                            x       y       z     vdW  Elec       q    Type
REMARK                         _______ _______ _______ _____ _____    ______ ____
ROOT
ATOM      1  C   LIG    1        0.794  -0.030  -0.073  0.00  0.00    +0.166 C 
ENDROOT
BRANCH   1   2
ATOM      2  C   LIG    1        2.276   0.184  -0.500  0.00  0.00    +0.143 C 
BRANCH   2   3
ATOM      3  N   LIG    1        2.991  -1.077  -0.833  0.00  0.00    -0.174 NA
BRANCH   3   4
ATOM      4  S   LIG    1        2.578  -1.959  -2.320  0.00  0.00    +0.061 S 
ATOM      5  O   LIG    1        3.791  -2.047  -3.143  0.00  0.00    -0.153 OA
ATOM      6  O   LIG    1        1.345  -1.401  -2.887  0.00  0.00    -0.153 OA
BRANCH   4   7
ATOM      7  C   LIG    1        2.199  -3.610  -1.742  0.00  0.00    +0.106 A 
ATOM      8  C   LIG    1        0.917  -3.896  -1.269  0.00  0.00    +0.030 A 
ATOM      9  C   LIG    1        0.626  -5.168  -0.783  0.00  0.00    +0.024 A 
ATOM     10  C   LIG    1        1.618  -6.148  -0.770  0.00  0.00    +0.025 A 
ATOM     11  C   LIG    1        2.901  -5.863  -1.240  0.00  0.00    +0.024 A 
ATOM     12  C   LIG    1        3.192  -4.592  -1.726  0.00  0.00    +0.030 A 
BRANCH  10  13
ATOM     13  N   LIG    1        1.328  -7.420  -0.281  0.00  0.00    -0.358 N 
ATOM     14  H   LIG    1        2.046  -8.130  -0.286  0.00  0.00    +0.142 HD
ATOM     15  H   LIG    1        0.395  -7.627   0.045  0.00  0.00    +0.142 HD
ENDBRANCH  10  13
ENDBRANCH   4   7
ENDBRANCH   3   4
BRANCH   3  16
ATOM     16  C   LIG    1        4.334  -1.313  -0.242  0.00  0.00    +0.112 C 
BRANCH  16  17
ATOM     17  C   LIG    1        4.307  -1.636   1.269  0.00  0.00    -0.001 C 
ATOM     18  C   LIG    1        3.448  -2.873   1.603  0.00  0.00    +0.008 C 
ATOM     19  C   LIG    1        5.739  -1.822   1.800  0.00  0.00    +0.008 C 
ENDBRANCH  16  17
ENDBRANCH   3  16
ENDBRANCH   2   3
ENDBRANCH   1   2
BRANCH   1  20
ATOM     20  C   LIG    1       -0.080   1.261  -0.081  0.00  0.00    +0.111 C 
BRANCH  20  21
ATOM     21  N   LIG    1        0.124   2.040  -1.312  0.00  0.00    -0.275 N 
ATOM     22  H   LIG    1        0.136   1.543  -2.192  0.00  0.00    +0.152 HD
ATOM     23  C   LIG    1        0.194   3.425  -1.340  0.00  0.00    +0.401 C 
ATOM     24  O   LIG    1        0.169   4.178  -0.362  0.00  0.00    -0.226 OA
BRANCH  23  25
ATOM     25  O   LIG    1        0.266   3.833  -2.624  0.00  0.00    -0.445 OA
BRANCH  25  26
ATOM     26  C   LIG    1        0.280   5.219  -2.969  0.00  0.00    +0.206 C 
ATOM     27  C   LIG    1       -1.151   5.736  -3.140  0.00  0.00    +0.204 C 
ATOM     28  O   LIG    1       -1.455   5.455  -4.499  0.00  0.00    -0.376 OA
ATOM     29  C   LIG    1       -0.282   5.685  -5.275  0.00  0.00    +0.163 C 
ATOM     30  C   LIG    1        0.903   5.406  -4.344  0.00  0.00    +0.075 C 
ENDBRANCH  25  26
ENDBRANCH  23  25
ENDBRANCH  20  21
BRANCH  20  31
ATOM     31  C   LIG    1       -1.584   0.922   0.112  0.00  0.00    +0.060 C 
BRANCH  31  32
ATOM     32  C   LIG    1       -2.490   2.140   0.265  0.00  0.00    -0.046 A 
ATOM     33  C   LIG    1       -2.547   2.817   1.486  0.00  0.00    +0.004 A 
ATOM     34  C   LIG    1       -3.357   3.943   1.619  0.00  0.00    +0.000 A 
ATOM     35  C   LIG    1       -4.105   4.387   0.531  0.00  0.00    +0.000 A 
ATOM     36  C   LIG    1       -4.054   3.715  -0.689  0.00  0.00    +0.000 A 
ATOM     37  C   LIG    1       -3.247   2.589  -0.821  0.00  0.00    +0.004 A 
ENDBRANCH  31  32
ENDBRANCH  20  31
ENDBRANCH   1  20
BRANCH   1  38
ATOM     38  O   LIG    1        0.756  -0.740   1.168  0.00  0.00    -0.280 OA
BRANCH  38  39
ATOM     39  P   LIG    1        1.032  -0.060   2.632  0.00  0.00    +0.473 P 
ATOM     40  O   LIG    1        2.083   0.992   2.685  0.00  0.00    -0.228 OA
BRANCH  39  41
ATOM     41  O   LIG    1        1.307  -1.353   3.575  0.00  0.00    -0.303 OA
ATOM     42  H   LIG    1        0.619  -2.045   3.559  0.00  0.00    +0.222 HD
ENDBRANCH  39  41
BRANCH  39  43
ATOM     43  O   LIG    1       -0.440   0.423   3.116  0.00  0.00    -0.303 OA
ATOM     44  H   LIG    1       -0.509   1.359   3.384  0.00  0.00    +0.222 HD
ENDBRANCH  39  43
ENDBRANCH  38  39
ENDBRANCH   1  38
TORSDOF 17
