REMARK  Name = DB01298
REMARK                            x       y       z     vdW  Elec       q    Type
REMARK                         _______ _______ _______ _____ _____    ______ ____
ROOT
ATOM      1  S   LIG    1       -0.252  -0.051   0.123  0.00  0.00    +0.073 S 
ATOM      2  O   LIG    1       -0.596  -0.556   1.457  0.00  0.00    -0.150 OA
ATOM      3  O   LIG    1       -0.777  -0.653  -1.109  0.00  0.00    -0.150 OA
ENDROOT
BRANCH   1   4
ATOM      4  C   LIG    1       -0.502   1.719   0.074  0.00  0.00    +0.109 A 
ATOM      5  C   LIG    1       -0.487   2.454   1.261  0.00  0.00    +0.030 A 
ATOM      6  C   LIG    1       -0.676   3.833   1.222  0.00  0.00    +0.024 A 
ATOM      7  C   LIG    1       -0.877   4.471  -0.002  0.00  0.00    +0.025 A 
ATOM      8  C   LIG    1       -0.887   3.738  -1.189  0.00  0.00    +0.024 A 
ATOM      9  C   LIG    1       -0.698   2.359  -1.151  0.00  0.00    +0.030 A 
BRANCH   7  10
ATOM     10  N   LIG    1       -1.067   5.852  -0.040  0.00  0.00    -0.358 N 
ATOM     11  H   LIG    1       -1.224   6.309  -0.927  0.00  0.00    +0.142 HD
ATOM     12  H   LIG    1       -1.066   6.378   0.822  0.00  0.00    +0.142 HD
ENDBRANCH   7  10
ENDBRANCH   1   4
BRANCH   1  13
ATOM     13  N   LIG    1        1.492  -0.205   0.007  0.00  0.00    -0.199 N 
ATOM     14  H   LIG    1        2.000   0.664  -0.033  0.00  0.00    +0.175 HD
BRANCH  13  15
ATOM     15  C   LIG    1        2.198  -1.352  -0.014  0.00  0.00    +0.145 A 
ATOM     16  C   LIG    1        3.623  -1.221  -0.085  0.00  0.00    +0.063 A 
ATOM     17  C   LIG    1        4.335  -2.357  -0.107  0.00  0.00    +0.094 A 
ATOM     18  N   LIG    1        3.769  -3.605  -0.072  0.00  0.00    -0.299 N 
ATOM     19  C   LIG    1        2.388  -3.721   0.018  0.00  0.00    +0.350 A 
ATOM     20  O   LIG    1        1.892  -4.848   0.086  0.00  0.00    -0.244 OA
ATOM     21  N   LIG    1        1.646  -2.518   0.026  0.00  0.00    -0.177 NA
BRANCH  18  22
ATOM     22  C   LIG    1        4.600  -4.823  -0.064  0.00  0.00    +0.123 C 
ATOM     23  C   LIG    1        4.674  -5.525  -1.431  0.00  0.00    +0.027 C 
ENDBRANCH  18  22
ENDBRANCH  13  15
ENDBRANCH   1  13
TORSDOF 5
