REMARK  Name = DB01366
REMARK                            x       y       z     vdW  Elec       q    Type
REMARK                         _______ _______ _______ _____ _____    ______ ____
ROOT
ATOM      1  C   LIG    1       -1.996  -0.920  -1.175  0.00  0.00    -0.008 A 
ATOM      2  C   LIG    1       -2.852  -1.885  -0.592  0.00  0.00    +0.008 A 
ATOM      3  C   LIG    1       -2.402  -3.065   0.190  0.00  0.00    +0.016 A 
ATOM      4  C   LIG    1       -3.284  -3.952   0.701  0.00  0.00    +0.071 A 
ATOM      5  C   LIG    1       -4.722  -3.844   0.524  0.00  0.00    +0.249 A 
ATOM      6  O   LIG    1       -5.532  -4.666   0.945  0.00  0.00    -0.268 OA
ATOM      7  N   LIG    1       -5.097  -2.741  -0.167  0.00  0.00    -0.319 N 
ATOM      8  H   LIG    1       -6.093  -2.642  -0.296  0.00  0.00    +0.169 HD
ATOM      9  C   LIG    1       -4.252  -1.757  -0.731  0.00  0.00    +0.091 A 
ATOM     10  C   LIG    1       -4.800  -0.671  -1.424  0.00  0.00    +0.141 A 
ATOM     11  C   LIG    1       -3.955   0.287  -1.978  0.00  0.00    +0.048 A 
ATOM     12  C   LIG    1       -2.575   0.161  -1.854  0.00  0.00    +0.010 A 
ENDROOT
BRANCH  10  13
ATOM     13  O   LIG    1       -6.157  -0.523  -1.569  0.00  0.00    -0.505 OA
ATOM     14  H   LIG    1       -6.402   0.282  -2.031  0.00  0.00    +0.292 HD
ENDBRANCH  10  13
BRANCH   1  15
ATOM     15  C   LIG    1       -0.458  -0.956  -1.119  0.00  0.00    +0.162 C 
BRANCH  15  16
ATOM     16  O   LIG    1        0.105  -2.249  -1.261  0.00  0.00    -0.386 OA
ATOM     17  H   LIG    1       -0.129  -2.590  -2.128  0.00  0.00    +0.210 HD
ENDBRANCH  15  16
BRANCH  15  18
ATOM     18  C   LIG    1        0.120  -0.179   0.103  0.00  0.00    +0.087 C 
BRANCH  18  20
ATOM     19  C   LIG    1        0.494  -0.096   2.678  0.00  0.00    +0.005 C 
ATOM     20  C   LIG    1       -0.025  -0.895   1.470  0.00  0.00    +0.018 C 
ENDBRANCH  18  20
BRANCH  18  21
ATOM     21  N   LIG    1        1.528   0.145  -0.158  0.00  0.00    -0.308 NA
ATOM     22  H   LIG    1        1.790  -0.219  -1.063  0.00  0.00    +0.123 HD
BRANCH  21  23
ATOM     23  C   LIG    1        1.854   1.568  -0.095  0.00  0.00    +0.048 C 
ATOM     24  C   LIG    1        3.386   1.697  -0.070  0.00  0.00    +0.023 C 
ATOM     25  C   LIG    1        1.246   2.332  -1.291  0.00  0.00    +0.023 C 
ENDBRANCH  21  23
ENDBRANCH  18  21
ENDBRANCH  15  18
ENDBRANCH   1  15
TORSDOF 7
