REMARK  Name = DB01223
REMARK                            x       y       z     vdW  Elec       q    Type
REMARK                         _______ _______ _______ _____ _____    ______ ____
ROOT
ATOM      1  O   LIG    1       -4.064  -0.255   0.000  0.00  0.00    -0.265 OA
ATOM      2  C   LIG    1       -2.833  -0.167   0.000  0.00  0.00    +0.282 A 
ATOM      3  C   LIG    1       -2.083   1.063   0.000  0.00  0.00    +0.149 A 
ATOM      4  C   LIG    1       -0.703   1.146   0.000  0.00  0.00    +0.168 A 
ATOM      5  N   LIG    1       -0.270   2.401   0.000  0.00  0.00    -0.218 NA
ATOM      6  C   LIG    1       -1.367   3.125   0.000  0.00  0.00    +0.199 A 
ATOM      7  N   LIG    1        0.039  -0.030   0.000  0.00  0.00    -0.280 N 
ATOM      8  C   LIG    1        1.506   0.074   0.000  0.00  0.00    +0.155 C 
ATOM      9  C   LIG    1       -0.564  -1.270   0.000  0.00  0.00    +0.333 A 
ATOM     10  O   LIG    1        0.097  -2.314   0.000  0.00  0.00    -0.246 OA
ATOM     11  N   LIG    1       -2.508   2.363   0.000  0.00  0.00    -0.339 N 
ATOM     12  H   LIG    1       -3.464   2.691   0.000  0.00  0.00    +0.167 HD
ATOM     13  N   LIG    1       -1.957  -1.243   0.000  0.00  0.00    -0.262 N 
ATOM     14  C   LIG    1       -2.637  -2.559   0.000  0.00  0.00    +0.157 C 
ENDROOT
TORSDOF 0
