REMARK  Name = DB01182
REMARK                            x       y       z     vdW  Elec       q    Type
REMARK                         _______ _______ _______ _____ _____    ______ ____
ROOT
ATOM      1  C   LIG    1       -2.548   2.600  -0.290  0.00  0.00    +0.059 A 
ATOM      2  C   LIG    1       -3.944   2.748  -0.372  0.00  0.00    +0.015 A 
ATOM      3  C   LIG    1       -4.795   1.669  -0.150  0.00  0.00    +0.001 A 
ATOM      4  C   LIG    1       -4.268   0.420   0.150  0.00  0.00    +0.004 A 
ATOM      5  C   LIG    1       -2.889   0.249   0.226  0.00  0.00    +0.046 A 
ATOM      6  C   LIG    1       -2.010   1.325   0.004  0.00  0.00    +0.131 A 
ENDROOT
BRANCH   1   7
ATOM      7  C   LIG    1       -1.667   3.787  -0.580  0.00  0.00    +0.167 C 
ATOM      8  O   LIG    1       -0.479   3.693  -0.898  0.00  0.00    -0.292 OA
BRANCH   7   9
ATOM      9  C   LIG    1       -2.270   5.183  -0.327  0.00  0.00    +0.084 C 
BRANCH   9  10
ATOM     10  C   LIG    1       -1.252   6.343  -0.302  0.00  0.00    +0.043 C 
BRANCH  10  11
ATOM     11  C   LIG    1       -1.929   7.686  -0.074  0.00  0.00    -0.047 A 
ATOM     12  C   LIG    1       -2.090   8.176   1.225  0.00  0.00    +0.003 A 
ATOM     13  C   LIG    1       -2.721   9.400   1.432  0.00  0.00    +0.000 A 
ATOM     14  C   LIG    1       -3.191  10.128   0.341  0.00  0.00    +0.000 A 
ATOM     15  C   LIG    1       -3.036   9.643  -0.956  0.00  0.00    +0.000 A 
ATOM     16  C   LIG    1       -2.403   8.420  -1.164  0.00  0.00    +0.003 A 
ENDBRANCH  10  11
ENDBRANCH   9  10
ENDBRANCH   7   9
ENDBRANCH   1   7
BRANCH   6  17
ATOM     17  O   LIG    1       -0.635   1.186   0.096  0.00  0.00    -0.489 OA
BRANCH  17  18
ATOM     18  C   LIG    1       -0.047  -0.107   0.238  0.00  0.00    +0.261 C 
BRANCH  18  19
ATOM     19  C   LIG    1        1.491   0.002   0.141  0.00  0.00    +0.166 C 
BRANCH  19  20
ATOM     20  O   LIG    1        1.986   0.660   1.292  0.00  0.00    -0.387 OA
ATOM     21  H   LIG    1        1.642   0.216   2.070  0.00  0.00    +0.210 HD
ENDBRANCH  19  20
BRANCH  19  22
ATOM     22  C   LIG    1        2.007   0.743  -1.112  0.00  0.00    +0.115 C 
BRANCH  22  23
ATOM     23  N   LIG    1        1.626   0.041  -2.331  0.00  0.00    -0.313 NA
ATOM     24  H   LIG    1        2.053  -0.875  -2.346  0.00  0.00    +0.122 HD
BRANCH  23  25
ATOM     25  C   LIG    1        2.046   0.788  -3.510  0.00  0.00    +0.081 C 
BRANCH  25  26
ATOM     26  C   LIG    1        1.659   0.043  -4.801  0.00  0.00    +0.012 C 
ATOM     27  C   LIG    1        2.343  -1.324  -4.977  0.00  0.00    +0.005 C 
ENDBRANCH  25  26
ENDBRANCH  23  25
ENDBRANCH  22  23
ENDBRANCH  19  22
ENDBRANCH  18  19
ENDBRANCH  17  18
ENDBRANCH   6  17
TORSDOF 12
