REMARK  Name = DB01221
REMARK                            x       y       z     vdW  Elec       q    Type
REMARK                         _______ _______ _______ _____ _____    ______ ____
ROOT
ATOM      1  C   LIG    1        1.474   0.047  -0.006  0.00  0.00    +0.104 C 
ATOM      2  C   LIG    1        2.000  -1.431   0.013  0.00  0.00    +0.158 C 
ATOM      3  C   LIG    1        1.654  -2.226   1.288  0.00  0.00    +0.076 C 
ATOM      4  C   LIG    1        2.141  -1.496   2.558  0.00  0.00    +0.008 C 
ATOM      5  C   LIG    1        1.710  -0.018   2.610  0.00  0.00    +0.003 C 
ATOM      6  O   LIG    1        2.703  -1.932  -0.867  0.00  0.00    -0.295 OA
ATOM      7  C   LIG    1        2.064   0.711   1.293  0.00  0.00    +0.035 C 
ENDROOT
BRANCH   1  14
ATOM      8 CL   LIG    1        0.323  -0.953  -2.846  0.00  0.00    -0.083 Cl
ATOM      9  C   LIG    1        1.462   0.334  -2.617  0.00  0.00    +0.046 A 
ATOM     10  C   LIG    1        1.899   0.981  -3.775  0.00  0.00    +0.020 A 
ATOM     11  C   LIG    1        2.810   2.029  -3.703  0.00  0.00    +0.001 A 
ATOM     12  C   LIG    1        3.288   2.441  -2.466  0.00  0.00    +0.000 A 
ATOM     13  C   LIG    1        2.859   1.803  -1.304  0.00  0.00    +0.007 A 
ATOM     14  C   LIG    1        1.945   0.730  -1.340  0.00  0.00    -0.002 A 
ENDBRANCH   1  14
BRANCH   1  15
ATOM     15  N   LIG    1        0.008  -0.066   0.094  0.00  0.00    -0.304 NA
ATOM     16  H   LIG    1       -0.229  -0.546   0.949  0.00  0.00    +0.123 HD
ATOM     17  C   LIG    1       -0.715   1.200   0.047  0.00  0.00    +0.102 C 
ENDBRANCH   1  15
TORSDOF 2
