REMARK  Name = DB01623
REMARK                            x       y       z     vdW  Elec       q    Type
REMARK                         _______ _______ _______ _____ _____    ______ ____
ROOT
ATOM      1  C   LIG    1        2.169   0.537   0.279  0.00  0.00    +0.106 A 
ATOM      2  C   LIG    1        3.000   1.552  -0.193  0.00  0.00    +0.029 A 
ATOM      3  C   LIG    1        4.352   1.552   0.141  0.00  0.00    +0.017 A 
ATOM      4  C   LIG    1        4.878   0.547   0.956  0.00  0.00    +0.021 A 
ATOM      5  C   LIG    1        4.039  -0.443   1.500  0.00  0.00    -0.002 A 
ATOM      6  C   LIG    1        4.563  -1.472   2.449  0.00  0.00    -0.012 C 
ATOM      7  C   LIG    1        5.917  -1.993   2.098  0.00  0.00    -0.004 A 
ATOM      8  C   LIG    1        6.236  -3.342   2.323  0.00  0.00    +0.009 A 
ATOM      9  C   LIG    1        7.507  -3.837   2.036  0.00  0.00    +0.001 A 
ATOM     10  C   LIG    1        8.487  -2.987   1.532  0.00  0.00    +0.001 A 
ATOM     11  C   LIG    1        8.193  -1.644   1.310  0.00  0.00    +0.015 A 
ATOM     12  C   LIG    1        6.914  -1.148   1.572  0.00  0.00    +0.020 A 
ATOM     13  C   LIG    1        3.923  -1.915   3.563  0.00  0.00    -0.017 C 
ATOM     14  S   LIG    1        6.601   0.580   1.348  0.00  0.00    -0.088 S 
ATOM     15  C   LIG    1        2.692  -0.457   1.109  0.00  0.00    +0.038 A 
ENDROOT
BRANCH   1  16
ATOM     16  S   LIG    1        0.431   0.542  -0.151  0.00  0.00    +0.060 S 
ATOM     17  O   LIG    1        0.340   1.008  -1.540  0.00  0.00    -0.153 OA
ATOM     18  O   LIG    1       -0.137  -0.757   0.230  0.00  0.00    -0.153 OA
BRANCH  16  19
ATOM     19  N   LIG    1       -0.293   1.778   0.892  0.00  0.00    -0.183 NA
ATOM     20  C   LIG    1       -0.247   1.507   2.344  0.00  0.00    +0.131 C 
ATOM     21  C   LIG    1       -1.551   2.380   0.405  0.00  0.00    +0.131 C 
ENDBRANCH  16  19
ENDBRANCH   1  16
BRANCH  13  22
ATOM     22  C   LIG    1        2.607  -1.448   4.181  0.00  0.00    +0.043 C 
BRANCH  22  23
ATOM     23  C   LIG    1        2.782  -0.709   5.526  0.00  0.00    +0.088 C 
BRANCH  23  24
ATOM     24  N   LIG    1        3.718   0.421   5.458  0.00  0.00    -0.300 NA
ATOM     25  C   LIG    1        3.218   1.521   4.617  0.00  0.00    +0.100 C 
ATOM     26  C   LIG    1        4.267   2.656   4.547  0.00  0.00    +0.099 C 
ATOM     27  N   LIG    1        4.537   3.173   5.894  0.00  0.00    -0.303 NA
ATOM     28  C   LIG    1        5.516   4.252   5.834  0.00  0.00    +0.105 C 
ATOM     29  C   LIG    1        5.036   2.080   6.737  0.00  0.00    +0.099 C 
ATOM     30  C   LIG    1        3.990   0.939   6.805  0.00  0.00    +0.100 C 
ENDBRANCH  23  24
ENDBRANCH  22  23
ENDBRANCH  13  22
TORSDOF 5
