REMARK  Name = DB01956
REMARK                            x       y       z     vdW  Elec       q    Type
REMARK                         _______ _______ _______ _____ _____    ______ ____
ROOT
ATOM      1  C   LIG    1        1.546   0.007   0.000  0.00  0.00    +0.212 C 
ENDROOT
BRANCH   1   2
ATOM      2  S   LIG    1        2.297  -1.728  -0.058  0.00  0.00    +0.081 S 
ATOM      3  O   LIG    1        3.759  -1.621  -0.027  0.00  0.00    -0.147 OA
ATOM      4  O   LIG    1        1.614  -2.525  -1.084  0.00  0.00    -0.147 OA
BRANCH   2   5
ATOM      5  O   LIG    1        1.786  -2.256   1.431  0.00  0.00    -0.254 OA
ATOM      6  H   LIG    1        0.831  -2.457   1.418  0.00  0.00    +0.244 HD
ENDBRANCH   2   5
ENDBRANCH   1   2
BRANCH   1   7
ATOM      7  C   LIG    1        0.013  -0.076   0.031  0.00  0.00    +0.103 C 
BRANCH   7   8
ATOM      8  N   LIG    1       -0.550   1.259   0.063  0.00  0.00    -0.328 NA
ATOM      9  H   LIG    1       -0.272   1.727   0.914  0.00  0.00    +0.118 HD
ATOM     10  H   LIG    1       -1.559   1.203   0.084  0.00  0.00    +0.118 HD
ENDBRANCH   7   8
ENDBRANCH   1   7
TORSDOF 4
