REMARK  Name = DB01333
REMARK                            x       y       z     vdW  Elec       q    Type
REMARK                         _______ _______ _______ _____ _____    ______ ____
ROOT
ATOM      1  S   LIG    1        0.908  -2.602   1.492  0.00  0.00    -0.131 S 
ATOM      2  C   LIG    1        2.266  -3.823   1.577  0.00  0.00    +0.103 C 
ATOM      3  C   LIG    1        3.041  -3.971   0.256  0.00  0.00    -0.034 C 
ATOM      4  C   LIG    1        3.699  -5.346   0.108  0.00  0.00    +0.042 C 
ATOM      5  CA  LIG    1        3.134  -2.947  -0.647  0.00  0.00    +0.122 C 
ATOM      6  N   LIG    1        2.565  -1.715  -0.434  0.00  0.00    -0.249 N 
ATOM      7  C   LIG    1        1.961  -0.725  -1.220  0.00  0.00    +0.244 C 
ATOM      8  CA  LIG    1        1.332  -0.069   0.043  0.00  0.00    +0.191 C 
ATOM      9  O   LIG    1        1.899  -0.520  -2.431  0.00  0.00    -0.273 OA
ATOM     10  C   LIG    1        1.944  -1.259   0.830  0.00  0.00    +0.169 C 
ENDROOT
BRANCH   8  11
ATOM     11  N   LIG    1       -0.131  -0.009  -0.011  0.00  0.00    -0.300 N 
ATOM     12  H   LIG    1       -0.615  -0.891   0.079  0.00  0.00    +0.150 HD
ATOM     13  C   LIG    1       -0.860   1.107  -0.185  0.00  0.00    +0.235 C 
ATOM     14  O   LIG    1       -0.371   2.231  -0.323  0.00  0.00    -0.274 OA
BRANCH  13  15
ATOM     15  CA  LIG    1       -2.394   0.909  -0.185  0.00  0.00    +0.164 C 
BRANCH  15  16
ATOM     16  C   LIG    1       -2.954   1.401   1.155  0.00  0.00    -0.044 C 
ATOM     17  C   LIG    1       -3.145   0.489   2.138  0.00  0.00    -0.021 C 
ATOM     18  C   LIG    1       -3.671   0.785   3.540  0.00  0.00    +0.054 C 
ATOM     19  C   LIG    1       -3.945   2.275   3.700  0.00  0.00    -0.027 C 
ATOM     20  C   LIG    1       -3.760   3.198   2.739  0.00  0.00    -0.026 C 
ATOM     21  C   LIG    1       -3.248   2.899   1.335  0.00  0.00    +0.059 C 
ENDBRANCH  15  16
BRANCH  15  22
ATOM     22  N   LIG    1       -2.951   1.599  -1.363  0.00  0.00    -0.317 NA
ATOM     23  H1  LIG    1       -3.954   1.485  -1.392  0.00  0.00    +0.119 HD
ATOM     24  H2  LIG    1       -2.604   1.177  -2.212  0.00  0.00    +0.119 HD
ENDBRANCH  15  22
ENDBRANCH  13  15
ENDBRANCH   8  11
BRANCH   5  25
ATOM     25  C   LIG    1        3.846  -3.119  -1.905  0.00  0.00    +0.351 C 
ATOM     26  OXT LIG    1        3.603  -4.006  -2.722  0.00  0.00    -0.244 OA
BRANCH  25  27
ATOM     27  O   LIG    1        4.831  -2.188  -2.078  0.00  0.00    -0.476 OA
ATOM     28  H   LIG    1        5.301  -2.304  -2.906  0.00  0.00    +0.295 HD
ENDBRANCH  25  27
ENDBRANCH   5  25
TORSDOF 6
