REMARK  Name = DB01208
REMARK                            x       y       z     vdW  Elec       q    Type
REMARK                         _______ _______ _______ _____ _____    ______ ____
ROOT
ATOM      1  F   LIG    1        1.655   1.674  -2.244  0.00  0.00    -0.201 F 
ATOM      2  C   LIG    1        2.253   0.873  -1.327  0.00  0.00    +0.171 A 
ATOM      3  C   LIG    1        1.459   0.180  -0.409  0.00  0.00    +0.105 A 
ATOM      4  C   LIG    1        2.073  -0.618   0.557  0.00  0.00    +0.168 A 
ATOM      5  C   LIG    1        3.468  -0.702   0.640  0.00  0.00    +0.075 A 
ATOM      6  C   LIG    1        4.294   0.011  -0.269  0.00  0.00    +0.072 A 
ATOM      7  C   LIG    1        5.824   0.005  -0.169  0.00  0.00    +0.205 A 
ATOM      8  C   LIG    1        6.505   1.043  -1.003  0.00  0.00    +0.122 A 
ATOM      9  C   LIG    1        5.777   1.681  -1.956  0.00  0.00    +0.105 A 
ATOM     10  N   LIG    1        4.460   1.410  -2.257  0.00  0.00    -0.340 N 
ATOM     11  O   LIG    1        6.423  -0.760   0.590  0.00  0.00    -0.286 OA
ATOM     12  F   LIG    1        1.301  -1.304   1.440  0.00  0.00    -0.201 F 
ATOM     13  C   LIG    1        3.652   0.751  -1.297  0.00  0.00    +0.092 A 
ENDROOT
BRANCH   3  14
ATOM     14  N   LIG    1        0.076   0.270  -0.437  0.00  0.00    -0.322 N 
ATOM     15  C   LIG    1       -0.573   1.511   0.010  0.00  0.00    +0.123 C 
ATOM     16  C   LIG    1       -2.092   1.346   0.267  0.00  0.00    +0.068 C 
ATOM     17  C   LIG    1       -2.720   2.672   0.721  0.00  0.00    +0.025 C 
ATOM     18  N   LIG    1       -2.748   0.801  -0.917  0.00  0.00    -0.308 NA
ATOM     19  H   LIG    1       -3.728   0.680  -0.707  0.00  0.00    +0.123 HD
ATOM     20  C   LIG    1       -2.185  -0.506  -1.241  0.00  0.00    +0.068 C 
ATOM     21  C   LIG    1       -2.911  -1.178  -2.416  0.00  0.00    +0.025 C 
ATOM     22  C   LIG    1       -0.666  -0.381  -1.526  0.00  0.00    +0.123 C 
ENDBRANCH   3  14
BRANCH  10  23
ATOM     23  C   LIG    1        4.065   1.578  -3.662  0.00  0.00    +0.088 C 
ATOM     24  C   LIG    1        4.778   0.723  -4.700  0.00  0.00    +0.027 C 
ATOM     25  C   LIG    1        3.352   0.424  -4.359  0.00  0.00    +0.027 C 
ENDBRANCH  10  23
BRANCH   5  26
ATOM     26  N   LIG    1        3.981  -1.497   1.675  0.00  0.00    -0.355 N 
ATOM     27  H   LIG    1        4.978  -1.659   1.713  0.00  0.00    +0.142 HD
ATOM     28  H   LIG    1        3.345  -2.074   2.206  0.00  0.00    +0.142 HD
ENDBRANCH   5  26
BRANCH   8  29
ATOM     29  C   LIG    1        7.915   1.387  -0.794  0.00  0.00    +0.342 C 
ATOM     30  O   LIG    1        8.624   0.907   0.090  0.00  0.00    -0.245 OA
BRANCH  29  31
ATOM     31  O   LIG    1        8.409   2.311  -1.675  0.00  0.00    -0.477 OA
ATOM     32  H   LIG    1        9.332   2.512  -1.508  0.00  0.00    +0.295 HD
ENDBRANCH  29  31
ENDBRANCH   8  29
TORSDOF 5
