REMARK  Name = DB01880
REMARK                            x       y       z     vdW  Elec       q    Type
REMARK                         _______ _______ _______ _____ _____    ______ ____
ROOT
ATOM      1  C   LIG    1        1.514   0.072   0.000  0.00  0.00    -0.021 A 
ATOM      2  C   LIG    1        2.195  -1.151   0.000  0.00  0.00    +0.012 A 
ATOM      3  C   LIG    1        3.589  -1.193   0.000  0.00  0.00    +0.050 A 
ATOM      4  C   LIG    1        4.327  -0.009   0.000  0.00  0.00    +0.158 A 
ATOM      5  C   LIG    1        3.660   1.222   0.000  0.00  0.00    +0.159 A 
ATOM      6  C   LIG    1        2.264   1.258   0.000  0.00  0.00    +0.057 A 
ENDROOT
BRANCH   1   8
ATOM      7  C   LIG    1       -0.793   1.128   0.000  0.00  0.00    +0.092 C 
ATOM      8  C   LIG    1        0.034   0.056   0.000  0.00  0.00    +0.015 C 
BRANCH   7   9
ATOM      9  C   LIG    1       -2.345   1.069   0.000  0.00  0.00    +0.330 C 
ATOM     10  O   LIG    1       -2.890   2.195   0.000  0.00  0.00    -0.246 OA
BRANCH   9  11
ATOM     11  O   LIG    1       -2.872  -0.069   0.000  0.00  0.00    -0.478 OA
ATOM     12  H   LIG    1       -2.333  -0.835   0.000  0.00  0.00    +0.295 HD
ENDBRANCH   9  11
ENDBRANCH   7   9
ENDBRANCH   1   8
BRANCH   4  13
ATOM     13  O   LIG    1        5.698  -0.076   0.000  0.00  0.00    -0.503 OA
ATOM     14  H   LIG    1        6.029  -0.977   0.000  0.00  0.00    +0.292 HD
ENDBRANCH   4  13
BRANCH   5  15
ATOM     15  O   LIG    1        4.359   2.404   0.000  0.00  0.00    -0.503 OA
ATOM     16  H   LIG    1        3.788   3.176   0.000  0.00  0.00    +0.292 HD
ENDBRANCH   5  15
TORSDOF 5
