REMARK  Name = DB01839
REMARK                            x       y       z     vdW  Elec       q    Type
REMARK                         _______ _______ _______ _____ _____    ______ ____
ROOT
ATOM      1  C   LIG    1       -0.553   1.489  -0.052  0.00  0.00    +0.040 C 
ATOM      2  C   LIG    1       -0.069   0.031  -0.027  0.00  0.00    +0.137 C 
ENDROOT
BRANCH   2   3
ATOM      3  O   LIG    1       -0.656  -0.609   1.090  0.00  0.00    -0.390 OA
ATOM      4  H   LIG    1       -0.333  -1.513   1.124  0.00  0.00    +0.210 HD
ENDBRANCH   2   3
BRANCH   2   5
ATOM      5  C   LIG    1        1.468  -0.080   0.058  0.00  0.00    +0.186 C 
BRANCH   5   6
ATOM      6  O   LIG    1        1.896  -1.415  -0.133  0.00  0.00    -0.392 OA
ATOM      7  H   LIG    1        2.854  -1.440  -0.074  0.00  0.00    +0.210 HD
ENDBRANCH   5   6
ENDBRANCH   2   5
TORSDOF 3
