REMARK  Name = DB01046
REMARK                            x       y       z     vdW  Elec       q    Type
REMARK                         _______ _______ _______ _____ _____    ______ ____
ROOT
ATOM      1  C   LIG    1       -2.840   3.277  -0.231  0.00  0.00    +0.232 C 
ATOM      2  O   LIG    1       -2.659   2.497   0.947  0.00  0.00    -0.340 OA
ATOM      3  C   LIG    1       -2.077   1.208   0.718  0.00  0.00    +0.133 C 
ATOM      4  C   LIG    1       -0.679   1.384   0.169  0.00  0.00    +0.029 C 
ATOM      5  C   LIG    1       -0.070  -0.017   0.282  0.00  0.00    +0.061 C 
ATOM      6  C   LIG    1       -0.671  -0.520   1.620  0.00  0.00    +0.139 C 
ATOM      7  O   LIG    1       -0.252  -1.447   2.311  0.00  0.00    -0.297 OA
ATOM      8  C   LIG    1       -0.799   2.039  -1.208  0.00  0.00    +0.012 C 
ATOM      9  C   LIG    1       -1.870   0.375   1.978  0.00  0.00    +0.106 C 
ATOM     10  C   LIG    1       -1.505   3.402  -1.036  0.00  0.00    +0.071 C 
ENDROOT
BRANCH   1  11
ATOM     11  C   LIG    1       -3.372   4.661   0.233  0.00  0.00    +0.301 C 
ATOM     12  F   LIG    1       -2.444   5.232   1.006  0.00  0.00    -0.200 F 
ATOM     13  F   LIG    1       -3.518   5.453  -0.835  0.00  0.00    -0.200 F 
BRANCH  11  14
ATOM     14  C   LIG    1       -4.710   4.563   1.015  0.00  0.00    +0.081 C 
BRANCH  14  15
ATOM     15  C   LIG    1       -5.226   5.920   1.537  0.00  0.00    +0.006 C 
BRANCH  15  16
ATOM     16  C   LIG    1       -6.562   5.803   2.292  0.00  0.00    -0.003 C 
ATOM     17  C   LIG    1       -7.074   7.151   2.816  0.00  0.00    +0.004 C 
ENDBRANCH  15  16
ENDBRANCH  14  15
ENDBRANCH  11  14
ENDBRANCH   1  11
BRANCH   1  18
ATOM     18  O   LIG    1       -3.777   2.720  -1.078  0.00  0.00    -0.360 OA
ATOM     19  H   LIG    1       -4.617   2.701  -0.615  0.00  0.00    +0.213 HD
ENDBRANCH   1  18
BRANCH   5  20
ATOM     20  C   LIG    1        1.480  -0.030   0.284  0.00  0.00    +0.011 C 
BRANCH  20  21
ATOM     21  C   LIG    1        2.108  -1.423   0.068  0.00  0.00    +0.001 C 
BRANCH  21  22
ATOM     22  C   LIG    1        3.647  -1.384   0.047  0.00  0.00    +0.000 C 
BRANCH  22  23
ATOM     23  C   LIG    1        4.279  -2.773  -0.171  0.00  0.00    +0.001 C 
BRANCH  23  24
ATOM     24  C   LIG    1        5.819  -2.768  -0.222  0.00  0.00    +0.011 C 
BRANCH  24  25
ATOM     25  C   LIG    1        6.490  -2.367   1.111  0.00  0.00    +0.120 C 
BRANCH  25  26
ATOM     26  C   LIG    1        8.009  -2.558   1.088  0.00  0.00    +0.305 C 
ATOM     27  O   LIG    1        8.588  -3.439   1.720  0.00  0.00    -0.251 OA
BRANCH  26  28
ATOM     28  O   LIG    1        8.624  -1.633   0.294  0.00  0.00    -0.481 OA
ATOM     29  H   LIG    1        9.576  -1.746   0.274  0.00  0.00    +0.295 HD
ENDBRANCH  26  28
ENDBRANCH  25  26
ENDBRANCH  24  25
ENDBRANCH  23  24
ENDBRANCH  22  23
ENDBRANCH  21  22
ENDBRANCH  20  21
ENDBRANCH   5  20
TORSDOF 13
