REMARK  Name = DB01015
REMARK                            x       y       z     vdW  Elec       q    Type
REMARK                         _______ _______ _______ _____ _____    ______ ____
ROOT
ATOM      1  S   LIG    1       -0.079  -0.014   0.000  0.00  0.00    +0.074 S 
ATOM      2  O   LIG    1       -0.534  -0.581  -1.275  0.00  0.00    -0.150 OA
ATOM      3  O   LIG    1       -0.536  -0.581   1.275  0.00  0.00    -0.150 OA
ENDROOT
BRANCH   1   4
ATOM      4  C   LIG    1       -0.449   1.736   0.000  0.00  0.00    +0.109 A 
ATOM      5  C   LIG    1       -0.584   2.417  -1.212  0.00  0.00    +0.030 A 
ATOM      6  C   LIG    1       -0.862   3.781  -1.211  0.00  0.00    +0.024 A 
ATOM      7  C   LIG    1       -1.002   4.460   0.000  0.00  0.00    +0.025 A 
ATOM      8  C   LIG    1       -0.862   3.781   1.211  0.00  0.00    +0.024 A 
ATOM      9  C   LIG    1       -0.584   2.417   1.212  0.00  0.00    +0.030 A 
BRANCH   7  10
ATOM     10  N   LIG    1       -1.280   5.826   0.000  0.00  0.00    -0.358 N 
ATOM     11  H   LIG    1       -1.391   6.311   0.879  0.00  0.00    +0.142 HD
ATOM     12  H   LIG    1       -1.390   6.311  -0.879  0.00  0.00    +0.142 HD
ENDBRANCH   7  10
ENDBRANCH   1   4
BRANCH   1  13
ATOM     13  N   LIG    1        1.690  -0.107   0.001  0.00  0.00    -0.197 N 
ATOM     14  H   LIG    1        2.155   0.788  -0.004  0.00  0.00    +0.175 HD
BRANCH  13  15
ATOM     15  C   LIG    1        2.413  -1.272   0.001  0.00  0.00    +0.181 A 
ATOM     16  N   LIG    1        1.843  -2.460   0.001  0.00  0.00    -0.062 NA
ATOM     17  O   LIG    1        2.876  -3.399   0.000  0.00  0.00    -0.358 OA
ATOM     18  C   LIG    1        4.060  -2.739   0.000  0.00  0.00    +0.136 A 
ATOM     19  C   LIG    1        5.312  -3.579   0.000  0.00  0.00    +0.089 C 
ATOM     20  C   LIG    1        3.801  -1.387   0.001  0.00  0.00    +0.092 A 
ENDBRANCH  13  15
ENDBRANCH   1  13
TORSDOF 4
