REMARK  Name = DB01050
REMARK                            x       y       z     vdW  Elec       q    Type
REMARK                         _______ _______ _______ _____ _____    ______ ____
ROOT
ATOM      1  C   LIG    1        4.320  -0.012  -0.041  0.00  0.00    -0.034 A 
ATOM      2  C   LIG    1        3.583  -0.374  -1.176  0.00  0.00    +0.005 A 
ATOM      3  C   LIG    1        2.192  -0.351  -1.148  0.00  0.00    +0.004 A 
ATOM      4  C   LIG    1        1.524   0.029   0.018  0.00  0.00    -0.047 A 
ATOM      5  C   LIG    1        2.252   0.381   1.156  0.00  0.00    +0.004 A 
ATOM      6  C   LIG    1        3.644   0.357   1.127  0.00  0.00    +0.005 A 
ENDROOT
BRANCH   1   7
ATOM      7  C   LIG    1        5.856  -0.048  -0.045  0.00  0.00    +0.124 C 
ATOM      8  C   LIG    1        6.476   0.597  -1.306  0.00  0.00    +0.024 C 
BRANCH   7   9
ATOM      9  C   LIG    1        6.397  -1.478   0.165  0.00  0.00    +0.312 C 
ATOM     10  O   LIG    1        5.810  -2.498  -0.194  0.00  0.00    -0.250 OA
BRANCH   9  11
ATOM     11  O   LIG    1        7.617  -1.466   0.778  0.00  0.00    -0.480 OA
ATOM     12  H   LIG    1        7.969  -2.350   0.903  0.00  0.00    +0.295 HD
ENDBRANCH   9  11
ENDBRANCH   7   9
ENDBRANCH   1   7
BRANCH   4  13
ATOM     13  C   LIG    1       -0.000   0.057   0.050  0.00  0.00    +0.038 C 
BRANCH  13  14
ATOM     14  C   LIG    1       -0.612   1.473  -0.077  0.00  0.00    -0.013 C 
ATOM     15  C   LIG    1       -0.231   2.174  -1.397  0.00  0.00    +0.007 C 
ATOM     16  C   LIG    1       -2.142   1.429   0.093  0.00  0.00    +0.007 C 
ENDBRANCH  13  14
ENDBRANCH   4  13
TORSDOF 5
