REMARK  Name = DB01008
REMARK                            x       y       z     vdW  Elec       q    Type
REMARK                         _______ _______ _______ _____ _____    ______ ____
ROOT
ATOM      1  C   LIG    1        0.021   0.034  -0.003  0.00  0.00    +0.033 C 
ENDROOT
BRANCH   1   2
ATOM      2  C   LIG    1        1.553  -0.115   0.071  0.00  0.00    +0.033 C 
BRANCH   2   3
ATOM      3  C   LIG    1        2.027  -1.575   0.105  0.00  0.00    +0.193 C 
BRANCH   3   4
ATOM      4  O   LIG    1        1.629  -2.236  -1.084  0.00  0.00    -0.239 OA
BRANCH   4   5
ATOM      5  S   LIG    1        2.078  -3.833  -1.241  0.00  0.00    +0.079 S 
ATOM      6  O   LIG    1        1.412  -4.606  -0.187  0.00  0.00    -0.147 OA
ATOM      7  O   LIG    1        3.534  -3.888  -1.413  0.00  0.00    -0.147 OA
ATOM      8  C   LIG    1        1.238  -4.175  -2.892  0.00  0.00    +0.228 C 
ENDBRANCH   4   5
ENDBRANCH   3   4
ENDBRANCH   2   3
ENDBRANCH   1   2
BRANCH   1   9
ATOM      9  C   LIG    1       -0.453   1.495   0.039  0.00  0.00    +0.193 C 
BRANCH   9  10
ATOM     10  O   LIG    1        0.047   2.199  -1.088  0.00  0.00    -0.239 OA
BRANCH  10  11
ATOM     11  S   LIG    1        0.859   3.627  -0.803  0.00  0.00    +0.079 S 
ATOM     12  O   LIG    1        2.109   3.315  -0.102  0.00  0.00    -0.147 OA
ATOM     13  O   LIG    1       -0.095   4.595  -0.250  0.00  0.00    -0.147 OA
ATOM     14  C   LIG    1        1.239   4.074  -2.594  0.00  0.00    +0.228 C 
ENDBRANCH  10  11
ENDBRANCH   9  10
ENDBRANCH   1   9
TORSDOF 7
