REMARK  Name = DB01106
REMARK                            x       y       z     vdW  Elec       q    Type
REMARK                         _______ _______ _______ _____ _____    ______ ____
ROOT
ATOM      1  C   LIG    1       -2.318   2.989   0.096  0.00  0.00    +0.010 C 
ATOM      2  C   LIG    1       -1.875   1.537  -0.205  0.00  0.00    +0.021 C 
ATOM      3  C   LIG    1       -2.634   0.733  -1.331  0.00  0.00    +0.097 C 
ATOM      4  C   LIG    1       -1.975  -0.700  -1.401  0.00  0.00    +0.038 C 
ATOM      5  C   LIG    1       -0.427  -0.768  -1.263  0.00  0.00    +0.086 C 
ATOM      6  N   LIG    1        0.120   0.067  -0.184  0.00  0.00    -0.299 NA
ATOM      7  C   LIG    1       -0.345   1.443  -0.392  0.00  0.00    +0.089 C 
ENDROOT
BRANCH   3   8
ATOM      8  C   LIG    1       -2.635   1.512  -2.685  0.00  0.00    -0.030 A 
ATOM      9  C   LIG    1       -3.477   2.626  -2.866  0.00  0.00    +0.005 A 
ATOM     10  C   LIG    1       -3.474   3.345  -4.057  0.00  0.00    +0.000 A 
ATOM     11  C   LIG    1       -2.626   2.963  -5.090  0.00  0.00    +0.000 A 
ATOM     12  C   LIG    1       -1.782   1.869  -4.937  0.00  0.00    +0.000 A 
ATOM     13  C   LIG    1       -1.785   1.153  -3.743  0.00  0.00    +0.005 A 
ENDBRANCH   3   8
BRANCH   6  14
ATOM     14  C   LIG    1        1.585  -0.021   0.007  0.00  0.00    +0.057 C 
ATOM     15  C   LIG    1        2.036   0.494   1.406  0.00  0.00    +0.021 C 
ATOM     16  C   LIG    1        3.568   0.470   1.604  0.00  0.00    +0.028 C 
ATOM     17  C   LIG    1        4.198  -0.925   1.350  0.00  0.00    +0.082 C 
ATOM     18  C   LIG    1        3.771  -1.415  -0.058  0.00  0.00    +0.028 C 
ATOM     19  C   LIG    1        2.240  -1.409  -0.266  0.00  0.00    +0.021 C 
BRANCH  17  20
ATOM     20  C   LIG    1        5.738  -0.891   1.493  0.00  0.00    -0.027 A 
ATOM     21  C   LIG    1        6.418  -1.679   2.435  0.00  0.00    +0.008 A 
ATOM     22  C   LIG    1        7.806  -1.628   2.533  0.00  0.00    +0.038 A 
ATOM     23  C   LIG    1        8.529  -0.789   1.690  0.00  0.00    +0.123 A 
ATOM     24  F   LIG    1        9.877  -0.740   1.785  0.00  0.00    -0.205 F 
ATOM     25  C   LIG    1        7.873   0.000   0.750  0.00  0.00    +0.038 A 
ATOM     26  C   LIG    1        6.485  -0.052   0.653  0.00  0.00    +0.008 A 
ENDBRANCH  17  20
BRANCH  17  27
ATOM     27  C   LIG    1        3.597  -1.857   2.335  0.00  0.00    +0.074 C 
ATOM     28  N   LIG    1        3.125  -2.584   3.104  0.00  0.00    -0.196 NA
ENDBRANCH  17  27
ENDBRANCH   6  14
BRANCH   3  29
ATOM     29  C   LIG    1       -4.103   0.451  -0.857  0.00  0.00    +0.316 C 
ATOM     30  O   LIG    1       -4.528   0.670   0.278  0.00  0.00    -0.250 OA
BRANCH  29  31
ATOM     31  O   LIG    1       -4.867  -0.094  -1.851  0.00  0.00    -0.480 OA
ATOM     32  H   LIG    1       -5.764  -0.275  -1.563  0.00  0.00    +0.295 HD
ENDBRANCH  29  31
ENDBRANCH   3  29
TORSDOF 6
