REMARK  Name = DB01428
REMARK                            x       y       z     vdW  Elec       q    Type
REMARK                         _______ _______ _______ _____ _____    ______ ____
ROOT
ATOM      1  C   LIG    1        1.306   0.163  -0.074  0.00  0.00    +0.124 A 
ATOM      2  C   LIG    1        1.941  -1.068  -0.228  0.00  0.00    +0.046 A 
ATOM      3  C   LIG    1        3.331  -1.161  -0.220  0.00  0.00    +0.019 A 
ATOM      4  C   LIG    1        4.130  -0.017  -0.075  0.00  0.00    +0.064 A 
ATOM      5  C   LIG    1        3.491   1.228   0.100  0.00  0.00    +0.131 A 
ATOM      6  C   LIG    1        2.096   1.310   0.093  0.00  0.00    +0.091 A 
ENDROOT
BRANCH   1   7
ATOM      7  O   LIG    1       -0.075   0.157  -0.092  0.00  0.00    -0.495 OA
ATOM      8  C   LIG    1       -0.776   1.387   0.062  0.00  0.00    +0.277 C 
ENDBRANCH   1   7
BRANCH   5   9
ATOM      9  O   LIG    1        4.194   2.398   0.258  0.00  0.00    -0.506 OA
ATOM     10  H   LIG    1        3.626   3.164   0.364  0.00  0.00    +0.292 HD
ENDBRANCH   5   9
BRANCH   4  11
ATOM     11  C   LIG    1        5.626  -0.170  -0.020  0.00  0.00    +0.197 C 
ATOM     12  O   LIG    1        6.277   0.495   0.790  0.00  0.00    -0.287 OA
BRANCH  11  13
ATOM     13  C   LIG    1        6.335  -1.107  -0.959  0.00  0.00    +0.022 A 
ATOM     14  C   LIG    1        5.769  -1.475  -2.190  0.00  0.00    +0.012 A 
ATOM     15  C   LIG    1        6.457  -2.316  -3.061  0.00  0.00    +0.001 A 
ATOM     16  C   LIG    1        7.722  -2.781  -2.716  0.00  0.00    +0.000 A 
ATOM     17  C   LIG    1        8.309  -2.407  -1.511  0.00  0.00    +0.001 A 
ATOM     18  C   LIG    1        7.622  -1.567  -0.639  0.00  0.00    +0.012 A 
ENDBRANCH  11  13
ENDBRANCH   4  11
TORSDOF 4
