REMARK  Name = DB01393
REMARK                            x       y       z     vdW  Elec       q    Type
REMARK                         _______ _______ _______ _____ _____    ______ ____
ROOT
ATOM      1  C   LIG    1        4.216   0.229  -0.087  0.00  0.00    -0.046 A 
ATOM      2  C   LIG    1        3.483  -0.957  -0.060  0.00  0.00    +0.007 A 
ATOM      3  C   LIG    1        2.092  -0.912  -0.074  0.00  0.00    +0.046 A 
ATOM      4  C   LIG    1        1.414   0.308  -0.109  0.00  0.00    +0.122 A 
ATOM      5  C   LIG    1        2.160   1.496  -0.144  0.00  0.00    +0.046 A 
ATOM      6  C   LIG    1        3.552   1.455  -0.131  0.00  0.00    +0.007 A 
ENDROOT
BRANCH   1   7
ATOM      7  C   LIG    1        5.737   0.187  -0.078  0.00  0.00    +0.054 C 
BRANCH   7   8
ATOM      8  C   LIG    1        6.338   0.064  -1.491  0.00  0.00    +0.109 C 
BRANCH   8  10
ATOM      9  C   LIG    1        8.677   0.904  -1.313  0.00  0.00    +0.244 C 
ATOM     10  N   LIG    1        7.792  -0.093  -1.507  0.00  0.00    -0.311 N 
ATOM     11  H   LIG    1        8.141  -1.023  -1.683  0.00  0.00    +0.149 HD
ATOM     12  O   LIG    1        8.334   2.068  -1.095  0.00  0.00    -0.270 OA
BRANCH   9  17
ATOM     13 CL   LIG    1       14.539  -0.542  -1.425  0.00  0.00    -0.084 Cl
ATOM     14  C   LIG    1       12.862  -0.136  -1.397  0.00  0.00    +0.041 A 
ATOM     15  C   LIG    1       11.930  -1.001  -1.963  0.00  0.00    +0.021 A 
ATOM     16  C   LIG    1       10.577  -0.675  -1.940  0.00  0.00    +0.014 A 
ATOM     17  C   LIG    1       10.143   0.523  -1.347  0.00  0.00    +0.037 A 
ATOM     18  C   LIG    1       11.096   1.385  -0.785  0.00  0.00    +0.014 A 
ATOM     19  C   LIG    1       12.449   1.057  -0.808  0.00  0.00    +0.021 A 
ENDBRANCH   9  17
ENDBRANCH   8  10
ENDBRANCH   7   8
ENDBRANCH   1   7
BRANCH   4  20
ATOM     20  O   LIG    1        0.033   0.212  -0.125  0.00  0.00    -0.475 OA
BRANCH  20  21
ATOM     21  C   LIG    1       -0.885   1.316   0.014  0.00  0.00    +0.200 C 
ATOM     22  C   LIG    1       -0.892   2.181  -1.278  0.00  0.00    +0.067 C 
ATOM     23  C   LIG    1       -0.632   2.158   1.296  0.00  0.00    +0.067 C 
BRANCH  21  24
ATOM     24  C   LIG    1       -2.278   0.644   0.195  0.00  0.00    +0.348 C 
ATOM     25  O   LIG    1       -3.324   1.113  -0.254  0.00  0.00    -0.247 OA
BRANCH  24  26
ATOM     26  O   LIG    1       -2.224  -0.505   0.935  0.00  0.00    -0.478 OA
ATOM     27  H   LIG    1       -3.089  -0.906   1.049  0.00  0.00    +0.295 HD
ENDBRANCH  24  26
ENDBRANCH  21  24
ENDBRANCH  20  21
ENDBRANCH   4  20
TORSDOF 8
