REMARK  Name = DB01452
REMARK                            x       y       z     vdW  Elec       q    Type
REMARK                         _______ _______ _______ _____ _____    ______ ____
ROOT
ATOM      1  C   LIG    1       -1.283   1.950   1.255  0.00  0.00    +0.049 C 
ATOM      2  C   LIG    1       -2.322   3.077   1.013  0.00  0.00    +0.031 C 
ATOM      3  C   LIG    1       -2.907   3.623   2.338  0.00  0.00    +0.085 C 
ATOM      4  N   LIG    1       -3.378   2.574   3.264  0.00  0.00    -0.301 NA
ATOM      5  C   LIG    1       -4.744   2.159   2.949  0.00  0.00    +0.105 C 
ATOM      6  C   LIG    1       -2.469   1.408   3.408  0.00  0.00    +0.068 C 
ATOM      7  C   LIG    1       -1.231   1.753   4.304  0.00  0.00    +0.055 C 
ATOM      8  C   LIG    1       -0.106   2.438   3.521  0.00  0.00    -0.038 A 
ATOM      9  C   LIG    1        1.025   3.032   4.102  0.00  0.00    +0.008 A 
ATOM     10  C   LIG    1        2.064   3.546   3.305  0.00  0.00    +0.050 A 
ATOM     11  C   LIG    1        2.005   3.448   1.906  0.00  0.00    +0.173 A 
ATOM     12  C   LIG    1        0.882   2.840   1.342  0.00  0.00    +0.167 A 
ATOM     13  O   LIG    1        0.658   2.534   0.022  0.00  0.00    -0.480 OA
ATOM     14  C   LIG    1       -2.046   0.835   2.004  0.00  0.00    +0.043 C 
ATOM     15  C   LIG    1       -1.236  -0.451   2.022  0.00  0.00    -0.021 C 
ATOM     16  C   LIG    1       -0.303  -0.758   1.103  0.00  0.00    +0.017 C 
ATOM     17  C   LIG    1        0.089   0.116  -0.086  0.00  0.00    +0.240 C 
ATOM     18  C   LIG    1       -0.451   1.599  -0.010  0.00  0.00    +0.229 C 
ATOM     19  C   LIG    1       -0.158   2.424   2.127  0.00  0.00    +0.012 A 
ENDROOT
BRANCH  11  20
ATOM     20  O   LIG    1        3.052   3.857   1.112  0.00  0.00    -0.422 OA
BRANCH  20  21
ATOM     21  C   LIG    1        2.950   5.022   0.418  0.00  0.00    +0.309 C 
ATOM     22  O   LIG    1        1.999   5.808   0.426  0.00  0.00    -0.251 OA
ATOM     23  C   LIG    1        4.188   5.293  -0.427  0.00  0.00    +0.136 C 
ENDBRANCH  20  21
ENDBRANCH  11  20
BRANCH  17  24
ATOM     24  O   LIG    1        1.515   0.077  -0.212  0.00  0.00    -0.454 OA
BRANCH  24  25
ATOM     25  C   LIG    1        2.132   0.200  -1.410  0.00  0.00    +0.305 C 
ATOM     26  O   LIG    1        1.583   0.345  -2.503  0.00  0.00    -0.251 OA
ATOM     27  C   LIG    1        3.649   0.155  -1.283  0.00  0.00    +0.136 C 
ENDBRANCH  24  25
ENDBRANCH  17  24
TORSDOF 4
