REMARK  Name = DB01171
REMARK                            x       y       z     vdW  Elec       q    Type
REMARK                         _______ _______ _______ _____ _____    ______ ____
ROOT
ATOM      1  C   LIG    1       -0.955   0.888  -0.037  0.00  0.00    +0.244 C 
ATOM      2  N   LIG    1       -0.130  -0.176  -0.097  0.00  0.00    -0.310 N 
ATOM      3  H   LIG    1       -0.520  -1.093   0.061  0.00  0.00    +0.149 HD
ATOM      4  O   LIG    1       -0.558   2.048  -0.176  0.00  0.00    -0.270 OA
ENDROOT
BRANCH   1   9
ATOM      5 CL   LIG    1       -6.805  -0.184   1.030  0.00  0.00    -0.084 Cl
ATOM      6  C   LIG    1       -5.132   0.115   0.725  0.00  0.00    +0.041 A 
ATOM      7  C   LIG    1       -4.281  -0.949   0.440  0.00  0.00    +0.021 A 
ATOM      8  C   LIG    1       -2.932  -0.709   0.194  0.00  0.00    +0.014 A 
ATOM      9  C   LIG    1       -2.419   0.599   0.232  0.00  0.00    +0.037 A 
ATOM     10  C   LIG    1       -3.294   1.658   0.519  0.00  0.00    +0.014 A 
ATOM     11  C   LIG    1       -4.643   1.418   0.765  0.00  0.00    +0.021 A 
ENDBRANCH   1   9
BRANCH   2  12
ATOM     12  C   LIG    1        1.309  -0.127  -0.364  0.00  0.00    +0.120 C 
BRANCH  12  13
ATOM     13  C   LIG    1        1.658  -0.165  -1.872  0.00  0.00    +0.103 C 
BRANCH  13  14
ATOM     14  N   LIG    1        1.387   1.087  -2.590  0.00  0.00    -0.297 NA
ATOM     15  C   LIG    1        2.251   2.205  -2.178  0.00  0.00    +0.112 C 
ATOM     16  C   LIG    1        1.978   3.471  -3.018  0.00  0.00    +0.175 C 
ATOM     17  O   LIG    1        2.097   3.176  -4.405  0.00  0.00    -0.377 OA
ATOM     18  C   LIG    1        1.178   2.173  -4.823  0.00  0.00    +0.175 C 
ATOM     19  C   LIG    1        1.431   0.867  -4.041  0.00  0.00    +0.112 C 
ENDBRANCH  13  14
ENDBRANCH  12  13
ENDBRANCH   2  12
TORSDOF 4
