REMARK  Name = DB01074
REMARK                            x       y       z     vdW  Elec       q    Type
REMARK                         _______ _______ _______ _____ _____    ______ ____
ROOT
ATOM      1  C   LIG    1        0.078   0.128  -0.133  0.00  0.00    -0.003 C 
ENDROOT
BRANCH   1   2
ATOM      2  C   LIG    1       -0.394   1.627  -0.218  0.00  0.00    -0.008 C 
ATOM      3  C   LIG    1       -0.584   2.316   1.159  0.00  0.00    +0.004 C 
ATOM      4  C   LIG    1       -1.195   3.726   1.018  0.00  0.00    +0.000 C 
ATOM      5  C   LIG    1       -0.368   4.613   0.065  0.00  0.00    +0.000 C 
ATOM      6  C   LIG    1       -0.135   3.938  -1.302  0.00  0.00    +0.000 C 
ATOM      7  C   LIG    1        0.466   2.526  -1.147  0.00  0.00    +0.004 C 
ENDBRANCH   1   2
BRANCH   1   8
ATOM      8  C   LIG    1       -0.613  -0.723  -1.264  0.00  0.00    -0.008 C 
ATOM      9  C   LIG    1        0.062  -2.084  -1.598  0.00  0.00    +0.004 C 
ATOM     10  C   LIG    1       -0.638  -2.816  -2.763  0.00  0.00    +0.000 C 
ATOM     11  C   LIG    1       -2.138  -3.030  -2.485  0.00  0.00    +0.000 C 
ATOM     12  C   LIG    1       -2.841  -1.722  -2.078  0.00  0.00    +0.000 C 
ATOM     13  C   LIG    1       -2.101  -1.022  -0.920  0.00  0.00    +0.004 C 
ENDBRANCH   1   8
BRANCH   1  14
ATOM     14  C   LIG    1        1.629  -0.069  -0.046  0.00  0.00    +0.022 C 
BRANCH  14  21
ATOM     15  N   LIG    1        1.861   0.208   2.482  0.00  0.00    -0.313 NA
ATOM     16  H   LIG    1        0.878   0.435   2.547  0.00  0.00    +0.122 HD
ATOM     17  C   LIG    1        2.094  -1.195   2.834  0.00  0.00    +0.081 C 
ATOM     18  C   LIG    1        3.594  -1.561   2.766  0.00  0.00    +0.015 C 
ATOM     19  C   LIG    1        4.257  -1.139   1.442  0.00  0.00    +0.003 C 
ATOM     20  C   LIG    1        3.903   0.326   1.124  0.00  0.00    +0.019 C 
ATOM     21  C   LIG    1        2.373   0.577   1.156  0.00  0.00    +0.054 C 
ENDBRANCH  14  21
ENDBRANCH   1  14
TORSDOF 4
