REMARK  Name = DB01117
REMARK                            x       y       z     vdW  Elec       q    Type
REMARK                         _______ _______ _______ _____ _____    ______ ____
ROOT
ATOM      1  C   LIG    1       -0.037  -0.153   0.000  0.00  0.00    +0.048 C 
ATOM      2  C   LIG    1       -0.882  -1.380   0.000  0.00  0.00    +0.194 C 
ATOM      3  O   LIG    1       -0.449  -2.535   0.000  0.00  0.00    -0.287 OA
ATOM      4  C   LIG    1       -2.364  -1.108   0.000  0.00  0.00    +0.033 A 
ATOM      5  C   LIG    1       -3.252  -2.198   0.000  0.00  0.00    +0.012 A 
ATOM      6  C   LIG    1       -4.630  -2.007   0.000  0.00  0.00    +0.001 A 
ATOM      7  C   LIG    1       -5.150  -0.719   0.000  0.00  0.00    +0.001 A 
ATOM      8  C   LIG    1       -4.289   0.375   0.000  0.00  0.00    +0.012 A 
ATOM      9  C   LIG    1       -2.894   0.203   0.000  0.00  0.00    +0.036 A 
ATOM     10  C   LIG    1       -2.014   1.422   0.000  0.00  0.00    +0.228 C 
ATOM     11  O   LIG    1       -2.484   2.564   0.000  0.00  0.00    -0.283 OA
ATOM     12  C   LIG    1       -0.572   1.102   0.000  0.00  0.00    +0.171 C 
ENDROOT
BRANCH   1  13
ATOM     13  C   LIG    1        1.490  -0.413  -0.000  0.00  0.00    +0.027 C 
ATOM     14  C   LIG    1        2.039  -1.099   1.270  0.00  0.00    +0.009 C 
ATOM     15  C   LIG    1        3.579  -0.974   1.286  0.00  0.00    +0.009 C 
ATOM     16  C   LIG    1        4.222  -1.581   0.000  0.00  0.00    +0.019 C 
ATOM     17  C   LIG    1        3.579  -0.974  -1.286  0.00  0.00    +0.009 C 
ATOM     18  C   LIG    1        2.039  -1.099  -1.269  0.00  0.00    +0.009 C 
BRANCH  16  19
ATOM     19  C   LIG    1        5.743  -1.400   0.000  0.00  0.00    -0.044 A 
ATOM     20  C   LIG    1        6.577  -2.524   0.000  0.00  0.00    +0.005 A 
ATOM     21  C   LIG    1        7.961  -2.370   0.000  0.00  0.00    +0.020 A 
ATOM     22  C   LIG    1        8.515  -1.092   0.000  0.00  0.00    +0.041 A 
ATOM     23  C   LIG    1        7.694   0.035   0.000  0.00  0.00    +0.020 A 
ATOM     24 CL   LIG    1       10.230  -0.902   0.000  0.00  0.00    -0.084 Cl
ATOM     25  C   LIG    1        6.311  -0.119   0.000  0.00  0.00    +0.005 A 
ENDBRANCH  16  19
ENDBRANCH   1  13
BRANCH  12  26
ATOM     26  O   LIG    1        0.193   2.231   0.000  0.00  0.00    -0.503 OA
ATOM     27  H   LIG    1       -0.378   3.003   0.000  0.00  0.00    +0.292 HD
ENDBRANCH  12  26
TORSDOF 3
