REMARK  Name = DB01764
REMARK                            x       y       z     vdW  Elec       q    Type
REMARK                         _______ _______ _______ _____ _____    ______ ____
ROOT
ATOM      1  N   LIG    1       -5.989   0.470   2.216  0.00  0.00    -0.308 N 
ATOM      2  H   LIG    1       -6.713   0.718   1.557  0.00  0.00    +0.149 HD
ATOM      3  C   LIG    1       -6.405  -0.340   3.359  0.00  0.00    +0.132 C 
ATOM      4  C   LIG    1       -6.049  -1.809   3.217  0.00  0.00    -0.008 C 
ATOM      5  C   LIG    1       -5.389  -2.535   4.140  0.00  0.00    +0.000 C 
ATOM      6  C   LIG    1       -5.028  -3.937   3.978  0.00  0.00    -0.052 C 
ATOM      7  C   LIG    1       -5.315  -4.887   5.132  0.00  0.00    +0.043 C 
ATOM      8  C   LIG    1       -4.439  -4.343   2.830  0.00  0.00    +0.007 C 
ATOM      9  C   LIG    1       -3.999  -5.752   2.459  0.00  0.00    +0.145 C 
ATOM     10  C   LIG    1       -2.540  -6.041   2.881  0.00  0.00    +0.110 C 
ATOM     11  C   LIG    1       -2.001  -7.413   2.442  0.00  0.00    +0.145 C 
ATOM     12  O   LIG    1       -2.546  -8.454   2.806  0.00  0.00    -0.297 OA
ATOM     13  C   LIG    1       -0.753  -7.447   1.551  0.00  0.00    +0.170 C 
ATOM     14  C   LIG    1       -0.876  -6.524   0.357  0.00  0.00    +0.203 A 
ATOM     15  O   LIG    1       -1.562  -6.955  -0.728  0.00  0.00    -0.447 OA
ATOM     16  C   LIG    1       -1.578  -5.867  -1.531  0.00  0.00    +0.230 A 
ATOM     17  C   LIG    1       -0.956  -4.811  -0.864  0.00  0.00    +0.164 A 
ATOM     18  C   LIG    1       -0.809  -3.468  -1.406  0.00  0.00    +0.269 C 
ATOM     19  O   LIG    1       -1.012  -3.297  -2.612  0.00  0.00    -0.268 OA
ATOM     20  N   LIG    1       -0.477  -2.425  -0.581  0.00  0.00    -0.281 N 
ATOM     21  C   LIG    1       -0.436  -1.018  -1.061  0.00  0.00    +0.209 C 
ATOM     22  C   LIG    1        0.091  -0.230   0.156  0.00  0.00    +0.163 C 
ATOM     23  C   LIG    1       -0.307  -1.057   1.365  0.00  0.00    +0.047 C 
ATOM     24  C   LIG    1       -1.841  -0.466  -1.416  0.00  0.00    +0.330 C 
ATOM     25  O   LIG    1       -1.763   0.730  -2.054  0.00  0.00    -0.459 OA
ATOM     26  C   LIG    1       -2.927   1.519  -2.337  0.00  0.00    +0.186 C 
ATOM     27  C   LIG    1       -3.186   2.544  -1.182  0.00  0.00    +0.050 C 
ATOM     28  C   LIG    1       -2.096   3.630  -1.073  0.00  0.00    +0.015 C 
ATOM     29  C   LIG    1       -3.398   1.859   0.162  0.00  0.00    -0.015 C 
ATOM     30  C   LIG    1       -4.596   1.551   0.697  0.00  0.00    +0.063 C 
ATOM     31  O   LIG    1       -2.886  -1.033  -1.083  0.00  0.00    -0.249 OA
ATOM     32  C   LIG    1       -0.315  -2.506   0.884  0.00  0.00    +0.111 C 
ATOM     33  N   LIG    1       -0.459  -5.284   0.273  0.00  0.00    -0.208 NA
ATOM     34  C   LIG    1       -4.719   0.813   1.933  0.00  0.00    +0.237 C 
ATOM     35  O   LIG    1       -3.760   0.515   2.649  0.00  0.00    -0.271 OA
ENDROOT
BRANCH  22  36
ATOM     36  S   LIG    1        1.977  -0.022   0.070  0.00  0.00    -0.025 S 
ATOM     37  O   LIG    1        2.582  -1.333  -0.193  0.00  0.00    -0.174 OA
ATOM     38  O   LIG    1        2.400   0.749   1.244  0.00  0.00    -0.174 OA
BRANCH  36  39
ATOM     39  C   LIG    1        2.239   1.063  -1.455  0.00  0.00    +0.181 C 
BRANCH  39  40
ATOM     40  C   LIG    1        3.747   1.345  -1.621  0.00  0.00    +0.107 C 
BRANCH  40  41
ATOM     41  N   LIG    1        4.096   2.110  -2.830  0.00  0.00    -0.301 NA
BRANCH  41  42
ATOM     42  C   LIG    1        3.595   3.489  -2.746  0.00  0.00    +0.081 C 
ATOM     43  C   LIG    1        4.246   4.437  -3.770  0.00  0.00    +0.020 C 
ENDBRANCH  41  42
BRANCH  41  44
ATOM     44  C   LIG    1        3.727   1.455  -4.097  0.00  0.00    +0.081 C 
ATOM     45  C   LIG    1        4.295   0.032  -4.253  0.00  0.00    +0.020 C 
ENDBRANCH  41  44
ENDBRANCH  40  41
ENDBRANCH  39  40
ENDBRANCH  36  39
ENDBRANCH  22  36
BRANCH  26  46
ATOM     46  C   LIG    1       -2.769   2.125  -3.764  0.00  0.00    +0.024 C 
ATOM     47  C   LIG    1       -2.588   1.026  -4.833  0.00  0.00    +0.011 C 
ATOM     48  C   LIG    1       -3.941   3.047  -4.162  0.00  0.00    +0.011 C 
ENDBRANCH  26  46
BRANCH   9  49
ATOM     49  O   LIG    1       -4.169  -5.880   1.059  0.00  0.00    -0.387 OA
ATOM     50  H   LIG    1       -3.813  -6.728   0.784  0.00  0.00    +0.210 HD
ENDBRANCH   9  49
TORSDOF 8
