REMARK  Name = DB01124
REMARK                            x       y       z     vdW  Elec       q    Type
REMARK                         _______ _______ _______ _____ _____    ______ ____
ROOT
ATOM      1  S   LIG    1       -3.439   1.831  -0.012  0.00  0.00    +0.076 S 
ATOM      2  O   LIG    1       -3.114   3.040  -0.778  0.00  0.00    -0.150 OA
ATOM      3  O   LIG    1       -3.786   1.918   1.411  0.00  0.00    -0.150 OA
ENDROOT
BRANCH   1   4
ATOM      4  C   LIG    1       -4.803   1.045  -0.859  0.00  0.00    +0.109 A 
ATOM      5  C   LIG    1       -4.628   0.629  -2.180  0.00  0.00    +0.029 A 
ATOM      6  C   LIG    1       -5.679   0.018  -2.859  0.00  0.00    +0.005 A 
ATOM      7  C   LIG    1       -6.905  -0.173  -2.217  0.00  0.00    -0.050 A 
ATOM      8  C   LIG    1       -8.056  -0.838  -2.950  0.00  0.00    +0.044 C 
ATOM      9  C   LIG    1       -7.079   0.247  -0.896  0.00  0.00    +0.005 A 
ATOM     10  C   LIG    1       -6.029   0.857  -0.216  0.00  0.00    +0.029 A 
ENDBRANCH   1   4
BRANCH   1  11
ATOM     11  N   LIG    1       -2.104   0.686  -0.161  0.00  0.00    -0.169 N 
ATOM     12  H   LIG    1       -2.333  -0.253   0.172  0.00  0.00    +0.178 HD
ATOM     13  C   LIG    1       -0.739   1.038  -0.215  0.00  0.00    +0.319 C 
ATOM     14  N   LIG    1        0.074  -0.002   0.030  0.00  0.00    -0.298 N 
ATOM     15  H   LIG    1       -0.337  -0.903   0.227  0.00  0.00    +0.150 HD
ATOM     16  O   LIG    1       -0.347   2.182  -0.445  0.00  0.00    -0.251 OA
BRANCH  14  17
ATOM     17  C   LIG    1        1.534   0.055   0.019  0.00  0.00    +0.106 C 
BRANCH  17  18
ATOM     18  C   LIG    1        2.140   0.057  -1.399  0.00  0.00    +0.018 C 
BRANCH  18  19
ATOM     19  C   LIG    1        3.679   0.029  -1.394  0.00  0.00    -0.002 C 
ATOM     20  C   LIG    1        4.279   0.001  -2.806  0.00  0.00    +0.004 C 
ENDBRANCH  18  19
ENDBRANCH  17  18
ENDBRANCH  14  17
ENDBRANCH   1  11
TORSDOF 5
