REMARK  Name = DB01220
REMARK                            x       y       z     vdW  Elec       q    Type
REMARK                         _______ _______ _______ _____ _____    ______ ____
ROOT
ATOM      1  C   LIG    1       -0.089  -0.029  -2.812  0.00  0.00    +0.126 C 
ATOM      2  C   LIG    1        0.933   0.731  -3.740  0.00  0.00    +0.044 C 
ATOM      3  C   LIG    1        1.850   1.690  -2.945  0.00  0.00    +0.013 C 
ATOM      4  C   LIG    1        0.205   1.429  -4.955  0.00  0.00    +0.126 C 
ATOM      5  C   LIG    1        0.196   0.584  -6.270  0.00  0.00    +0.037 C 
ATOM      6  C   LIG    1       -1.030   0.898  -7.150  0.00  0.00    +0.014 C 
ATOM      7  C   LIG    1        1.488   0.676  -7.077  0.00  0.00    -0.021 C 
ATOM      8  C   LIG    1        2.497  -0.211  -7.033  0.00  0.00    -0.003 C 
ATOM      9  C   LIG    1        3.698  -0.081  -7.849  0.00  0.00    +0.008 C 
ATOM     10  C   LIG    1        4.909  -0.665  -7.642  0.00  0.00    +0.012 C 
ATOM     11  C   LIG    1        6.071  -0.488  -8.614  0.00  0.00    +0.049 C 
ATOM     12  C   LIG    1        5.254  -1.453  -6.466  0.00  0.00    +0.244 C 
ATOM     13  N   LIG    1        4.844  -0.902  -5.304  0.00  0.00    -0.277 N 
ATOM     14  H   LIG    1        4.428   0.016  -5.365  0.00  0.00    +0.155 HD
ATOM     15  C   LIG    1        5.028  -1.380  -3.997  0.00  0.00    +0.103 A 
ATOM     16  C   LIG    1        4.654  -2.678  -3.577  0.00  0.00    +0.151 A 
ATOM     17  C   LIG    1        4.720  -3.103  -2.193  0.00  0.00    +0.070 A 
ATOM     18  C   LIG    1        4.353  -4.430  -1.752  0.00  0.00    +0.135 A 
ATOM     19  C   LIG    1        4.317  -4.759  -0.392  0.00  0.00    +0.034 A 
ATOM     20  C   LIG    1        3.901  -6.159   0.056  0.00  0.00    +0.051 C 
ATOM     21  C   LIG    1        4.631  -3.780   0.538  0.00  0.00    +0.143 A 
ATOM     22  O   LIG    1        4.523  -3.990   1.885  0.00  0.00    -0.444 OA
ATOM     23  C   LIG    1        4.822  -2.817   2.556  0.00  0.00    +0.314 C 
ATOM     24  C   LIG    1        5.998  -3.117   3.482  0.00  0.00    +0.114 C 
ATOM     25  C   LIG    1        5.177  -1.743   1.464  0.00  0.00    +0.250 C 
ATOM     26  O   LIG    1        5.467  -0.589   1.772  0.00  0.00    -0.284 OA
ATOM     27  O   LIG    1        3.778  -2.388   3.413  0.00  0.00    -0.453 OA
ATOM     28  C   LIG    1        2.479  -2.251   2.996  0.00  0.00    +0.190 C 
ATOM     29  C   LIG    1        1.948  -2.209   1.756  0.00  0.00    +0.042 C 
ATOM     30  C   LIG    1        0.461  -2.220   1.434  0.00  0.00    +0.150 C 
ATOM     31  C   LIG    1       -0.137  -0.842   0.998  0.00  0.00    +0.060 C 
ATOM     32  C   LIG    1       -0.295   0.086   2.224  0.00  0.00    +0.014 C 
ATOM     33  C   LIG    1        0.511  -0.108  -0.234  0.00  0.00    +0.187 C 
ATOM     34  C   LIG    1        5.026  -2.498   0.192  0.00  0.00    +0.077 A 
ATOM     35  C   LIG    1        5.125  -2.146  -1.196  0.00  0.00    +0.031 A 
ATOM     36  C   LIG    1        5.557  -0.861  -1.636  0.00  0.00    +0.101 A 
ATOM     37  N   LIG    1        6.061   0.163  -0.867  0.00  0.00    -0.227 NA
ATOM     38  C   LIG    1        6.281   1.202  -1.715  0.00  0.00    +0.139 A 
ATOM     39  C   LIG    1        6.761   2.504  -1.489  0.00  0.00    +0.050 A 
ATOM     40  C   LIG    1        6.878   3.378  -2.574  0.00  0.00    -0.046 A 
ATOM     41  C   LIG    1        7.402   4.785  -2.350  0.00  0.00    +0.044 C 
ATOM     42  C   LIG    1        6.537   2.958  -3.859  0.00  0.00    +0.021 A 
ATOM     43  C   LIG    1        6.065   1.666  -4.075  0.00  0.00    +0.093 A 
ATOM     44  N   LIG    1        5.934   0.799  -3.012  0.00  0.00    -0.298 N 
ATOM     45  C   LIG    1        5.487  -0.516  -2.999  0.00  0.00    +0.099 A 
ATOM     46  O   LIG    1        5.895  -2.503  -6.543  0.00  0.00    -0.270 OA
ATOM     47  C   LIG    1        0.443  -0.879  -1.601  0.00  0.00    +0.056 C 
ATOM     48  C   LIG    1        1.692  -1.711  -1.962  0.00  0.00    +0.014 C 
ENDROOT
BRANCH   1  49
ATOM     49  O   LIG    1       -0.864  -0.906  -3.616  0.00  0.00    -0.391 OA
ATOM     50  H   LIG    1       -0.289  -1.598  -3.951  0.00  0.00    +0.210 HD
ENDBRANCH   1  49
BRANCH  16  51
ATOM     51  O   LIG    1        4.130  -3.527  -4.524  0.00  0.00    -0.504 OA
ATOM     52  H   LIG    1        4.186  -3.171  -5.414  0.00  0.00    +0.292 HD
ENDBRANCH  16  51
BRANCH  18  53
ATOM     53  O   LIG    1        4.015  -5.420  -2.645  0.00  0.00    -0.506 OA
ATOM     54  H   LIG    1        3.791  -6.248  -2.216  0.00  0.00    +0.292 HD
ENDBRANCH  18  53
BRANCH  30  55
ATOM     55  O   LIG    1        0.244  -3.242   0.461  0.00  0.00    -0.375 OA
ATOM     56  C   LIG    1       -1.073  -3.777   0.389  0.00  0.00    +0.194 C 
ENDBRANCH  30  55
BRANCH   4  57
ATOM     57  O   LIG    1        0.657   2.747  -5.238  0.00  0.00    -0.391 OA
ATOM     58  H   LIG    1        0.602   3.266  -4.432  0.00  0.00    +0.210 HD
ENDBRANCH   4  57
BRANCH  33  59
ATOM     59  O   LIG    1        1.829   0.379   0.059  0.00  0.00    -0.461 OA
BRANCH  59  60
ATOM     60  C   LIG    1        2.039   1.645   0.514  0.00  0.00    +0.304 C 
ATOM     61  O   LIG    1        1.183   2.516   0.673  0.00  0.00    -0.251 OA
ATOM     62  C   LIG    1        3.502   1.929   0.812  0.00  0.00    +0.136 C 
ENDBRANCH  59  60
ENDBRANCH  33  59
TORSDOF 7
