REMARK  Name = DB01228
REMARK                            x       y       z     vdW  Elec       q    Type
REMARK                         _______ _______ _______ _____ _____    ______ ____
ROOT
ATOM      1  C   LIG    1        1.582   0.177   0.046  0.00  0.00    +0.037 A 
ATOM      2  C   LIG    1        2.309   1.284   0.523  0.00  0.00    +0.023 A 
ATOM      3  C   LIG    1        3.702   1.265   0.540  0.00  0.00    +0.002 A 
ATOM      4  C   LIG    1        4.391   0.144   0.086  0.00  0.00    +0.000 A 
ATOM      5  C   LIG    1        3.685  -0.962  -0.380  0.00  0.00    +0.005 A 
ATOM      6  C   LIG    1        2.285  -0.961  -0.402  0.00  0.00    -0.026 A 
ENDROOT
BRANCH   1   9
ATOM      7  C   LIG    1       -0.729   1.146   0.058  0.00  0.00    +0.248 C 
ATOM      8  O   LIG    1       -0.434   2.341   0.125  0.00  0.00    -0.270 OA
ATOM      9  N   LIG    1        0.172   0.137   0.015  0.00  0.00    -0.281 N 
ATOM     10  H   LIG    1       -0.210  -0.789  -0.108  0.00  0.00    +0.155 HD
BRANCH   7  11
ATOM     11  C   LIG    1       -2.185   0.725   0.026  0.00  0.00    +0.037 A 
ATOM     12  C   LIG    1       -2.571  -0.561  -0.383  0.00  0.00    +0.016 A 
ATOM     13  C   LIG    1       -3.914  -0.927  -0.408  0.00  0.00    +0.046 A 
ATOM     14  C   LIG    1       -4.903  -0.009  -0.025  0.00  0.00    +0.120 A 
ATOM     15  C   LIG    1       -4.523   1.270   0.377  0.00  0.00    +0.046 A 
ATOM     16  C   LIG    1       -3.181   1.636   0.403  0.00  0.00    +0.016 A 
BRANCH  14  17
ATOM     17  O   LIG    1       -6.258  -0.281  -0.019  0.00  0.00    -0.495 OA
ATOM     18  C   LIG    1       -6.710  -1.569  -0.423  0.00  0.00    +0.277 C 
ENDBRANCH  14  17
ENDBRANCH   7  11
ENDBRANCH   1   9
BRANCH   6  19
ATOM     19  C   LIG    1        1.569  -2.212  -0.917  0.00  0.00    +0.038 C 
BRANCH  19  20
ATOM     20  C   LIG    1        1.050  -3.114   0.226  0.00  0.00    +0.023 C 
BRANCH  20  21
ATOM     21  C   LIG    1        0.366  -4.431  -0.232  0.00  0.00    +0.057 C 
ATOM     22  C   LIG    1       -1.050  -4.143  -0.809  0.00  0.00    +0.019 C 
ATOM     23  C   LIG    1       -1.798  -5.409  -1.252  0.00  0.00    +0.003 C 
ATOM     24  C   LIG    1       -0.912  -6.266  -2.160  0.00  0.00    +0.015 C 
ATOM     25  C   LIG    1        0.450  -6.553  -1.505  0.00  0.00    +0.084 C 
ATOM     26  N   LIG    1        1.147  -5.315  -1.129  0.00  0.00    -0.302 NA
ATOM     27  C   LIG    1        2.453  -5.666  -0.570  0.00  0.00    +0.105 C 
ENDBRANCH  20  21
ENDBRANCH  19  20
ENDBRANCH   6  19
TORSDOF 6
