REMARK  Name = DB01296
REMARK                            x       y       z     vdW  Elec       q    Type
REMARK                         _______ _______ _______ _____ _____    ______ ____
ROOT
ATOM      1  O   LIG    1       -0.511   1.306   0.038  0.00  0.00    -0.342 OA
ATOM      2  C   LIG    1       -1.911   1.415   0.119  0.00  0.00    +0.267 C 
ATOM      3  C   LIG    1       -2.567   0.784  -1.129  0.00  0.00    +0.139 C 
ATOM      4  C   LIG    1       -2.094  -0.681  -1.315  0.00  0.00    +0.167 C 
ATOM      5  C   LIG    1       -0.553  -0.785  -1.232  0.00  0.00    +0.176 C 
ATOM      6  C   LIG    1       -0.000  -0.038   0.007  0.00  0.00    +0.178 C 
ENDROOT
BRANCH   3   7
ATOM      7  N   LIG    1       -4.011   0.974  -1.177  0.00  0.00    -0.321 NA
ATOM      8  H   LIG    1       -4.371   0.550  -2.022  0.00  0.00    +0.119 HD
ATOM      9  H   LIG    1       -4.218   1.959  -1.254  0.00  0.00    +0.119 HD
ENDBRANCH   3   7
BRANCH   5  10
ATOM     10  O   LIG    1       -0.127  -2.137  -1.257  0.00  0.00    -0.387 OA
ATOM     11  H   LIG    1       -0.578  -2.612  -0.553  0.00  0.00    +0.210 HD
ENDBRANCH   5  10
BRANCH   4  12
ATOM     12  O   LIG    1       -2.554  -1.206  -2.551  0.00  0.00    -0.387 OA
ATOM     13  H   LIG    1       -2.163  -0.696  -3.263  0.00  0.00    +0.210 HD
ENDBRANCH   4  12
BRANCH   2  14
ATOM     14  O   LIG    1       -2.425   0.831   1.257  0.00  0.00    -0.366 OA
ATOM     15  H   LIG    1       -3.373   0.985   1.262  0.00  0.00    +0.213 HD
ENDBRANCH   2  14
BRANCH   6  16
ATOM     16  C   LIG    1        1.542   0.039   0.017  0.00  0.00    +0.190 C 
BRANCH  16  17
ATOM     17  O   LIG    1        2.013   0.589   1.231  0.00  0.00    -0.392 OA
ATOM     18  H   LIG    1        2.971   0.627   1.199  0.00  0.00    +0.210 HD
ENDBRANCH  16  17
ENDBRANCH   6  16
TORSDOF 6
