REMARK  Name = DB01331
REMARK                            x       y       z     vdW  Elec       q    Type
REMARK                         _______ _______ _______ _____ _____    ______ ____
ROOT
ATOM      1  S   LIG    1        1.020   0.494   2.867  0.00  0.00    -0.128 S 
ATOM      2  C   LIG    1        2.401   0.103   3.997  0.00  0.00    +0.107 C 
ATOM      3  C   LIG    1        3.091  -1.236   3.683  0.00  0.00    +0.006 C 
ATOM      4  C   LIG    1        3.077  -1.784   2.429  0.00  0.00    +0.125 C 
ATOM      5  N   LIG    1        2.491  -1.169   1.350  0.00  0.00    -0.244 N 
ATOM      6  C   LIG    1        1.714  -1.608   0.270  0.00  0.00    +0.275 C 
ATOM      7  C   LIG    1        1.319  -0.115  -0.048  0.00  0.00    +0.242 C 
ATOM      8  O   LIG    1        1.413  -2.711  -0.184  0.00  0.00    -0.270 OA
ATOM      9  C   LIG    1        1.982   0.225   1.341  0.00  0.00    +0.199 C 
ENDROOT
BRANCH   7  10
ATOM     10  N   LIG    1       -0.113   0.027  -0.118  0.00  0.00    -0.278 N 
ATOM     11  H   LIG    1       -0.648  -0.828  -0.162  0.00  0.00    +0.152 HD
ATOM     12  C   LIG    1       -0.781   1.195  -0.093  0.00  0.00    +0.220 C 
ATOM     13  O   LIG    1       -0.230   2.296  -0.039  0.00  0.00    -0.275 OA
BRANCH  12  14
ATOM     14  C   LIG    1       -2.311   1.108  -0.123  0.00  0.00    +0.138 C 
BRANCH  14  15
ATOM     15  C   LIG    1       -2.932   1.527   1.195  0.00  0.00    -0.001 A 
ATOM     16  C   LIG    1       -3.488   2.754   1.557  0.00  0.00    +0.011 A 
ATOM     17  C   LIG    1       -3.966   2.808   2.869  0.00  0.00    +0.008 A 
ATOM     18  C   LIG    1       -3.784   1.617   3.547  0.00  0.00    +0.045 A 
ATOM     19  S   LIG    1       -3.017   0.428   2.550  0.00  0.00    -0.101 S 
ENDBRANCH  14  15
ENDBRANCH  12  14
ENDBRANCH   7  10
BRANCH   4  20
ATOM     20  C   LIG    1        3.718  -3.068   2.170  0.00  0.00    +0.351 C 
ATOM     21  O   LIG    1        3.507  -4.094   2.814  0.00  0.00    -0.244 OA
BRANCH  20  22
ATOM     22  O   LIG    1        4.601  -3.009   1.127  0.00  0.00    -0.476 OA
ATOM     23  H   LIG    1        5.024  -3.854   0.960  0.00  0.00    +0.295 HD
ENDBRANCH  20  22
ENDBRANCH   4  20
BRANCH   7  24
ATOM     24  O   LIG    1        2.031   0.412  -1.139  0.00  0.00    -0.349 OA
ATOM     25  C   LIG    1        1.678  -0.042  -2.445  0.00  0.00    +0.197 C 
ENDBRANCH   7  24
BRANCH   3  26
ATOM     26  C   LIG    1        3.756  -1.882   4.907  0.00  0.00    +0.268 C 
BRANCH  26  27
ATOM     27  O   LIG    1        5.179  -1.930   4.796  0.00  0.00    -0.446 OA
BRANCH  27  28
ATOM     28  C   LIG    1        5.948  -0.841   5.004  0.00  0.00    +0.398 C 
ATOM     29  N   LIG    1        7.269  -1.171   4.805  0.00  0.00    -0.295 N 
ATOM     30  H   LIG    1        7.509  -2.116   4.543  0.00  0.00    +0.148 HD
ATOM     31  H   LIG    1        7.979  -0.463   4.920  0.00  0.00    +0.148 HD
ATOM     32  O   LIG    1        5.538   0.275   5.322  0.00  0.00    -0.227 OA
ENDBRANCH  27  28
ENDBRANCH  26  27
ENDBRANCH   3  26
TORSDOF 9
