REMARK  Name = DB01436
REMARK                            x       y       z     vdW  Elec       q    Type
REMARK                         _______ _______ _______ _____ _____    ______ ____
ROOT
ATOM      1  C   LIG    1       -4.468  -3.458  -1.710  0.00  0.00    -0.000 C 
ATOM      2  C   LIG    1       -3.934  -2.295  -2.148  0.00  0.00    -0.066 C 
ATOM      3  C   LIG    1       -4.689  -1.185  -2.898  0.00  0.00    +0.031 C 
ATOM      4  C   LIG    1       -4.492   0.193  -2.216  0.00  0.00    +0.005 C 
ATOM      5  C   LIG    1       -3.007   0.512  -1.932  0.00  0.00    +0.008 C 
ATOM      6  C   LIG    1       -2.322  -0.614  -1.104  0.00  0.00    -0.022 C 
ATOM      7  C   LIG    1       -2.962  -0.757   0.314  0.00  0.00    +0.012 C 
ATOM      8  C   LIG    1       -0.758  -0.511  -1.019  0.00  0.00    -0.002 C 
ATOM      9  C   LIG    1       -0.282  -1.991  -0.925  0.00  0.00    +0.005 C 
ATOM     10  C   LIG    1       -1.459  -2.888  -1.330  0.00  0.00    +0.009 C 
ATOM     11  C   LIG    1       -2.459  -1.910  -1.950  0.00  0.00    +0.021 C 
ENDROOT
BRANCH   1  18
ATOM     12  C   LIG    1       -8.451  -5.854  -0.266  0.00  0.00    +0.122 C 
ATOM     13  C   LIG    1       -7.625  -7.005   0.361  0.00  0.00    +0.067 C 
ATOM     14  C   LIG    1       -6.119  -6.671   0.504  0.00  0.00    +0.147 C 
ATOM     15  C   LIG    1       -5.599  -6.144  -0.832  0.00  0.00    -0.023 C 
ATOM     16  C   LIG    1       -4.518  -6.681  -1.430  0.00  0.00    +0.015 C 
ATOM     17  C   LIG    1       -6.375  -5.067  -1.451  0.00  0.00    -0.040 C 
ATOM     18  C   LIG    1       -5.856  -3.883  -1.856  0.00  0.00    +0.004 C 
ATOM     19  C   LIG    1       -7.864  -5.367  -1.614  0.00  0.00    +0.067 C 
BRANCH  12  20
ATOM     20  O   LIG    1       -9.804  -6.231  -0.417  0.00  0.00    -0.391 OA
ATOM     21  H   LIG    1       -9.848  -6.974  -1.023  0.00  0.00    +0.210 HD
ENDBRANCH  12  20
BRANCH  14  22
ATOM     22  O   LIG    1       -5.909  -5.712   1.524  0.00  0.00    -0.387 OA
ATOM     23  H   LIG    1       -4.964  -5.629   1.673  0.00  0.00    +0.210 HD
ENDBRANCH  14  22
ENDBRANCH   1  18
BRANCH   8  24
ATOM     24  C   LIG    1       -0.119   0.413   0.077  0.00  0.00    -0.010 C 
ATOM     25  C   LIG    1       -0.644   1.866   0.032  0.00  0.00    +0.008 C 
BRANCH  24  26
ATOM     26  C   LIG    1        1.436   0.398  -0.003  0.00  0.00    +0.003 C 
BRANCH  26  27
ATOM     27  C   LIG    1        2.164   0.985   1.226  0.00  0.00    +0.001 C 
BRANCH  27  28
ATOM     28  C   LIG    1        3.697   0.833   1.141  0.00  0.00    +0.003 C 
BRANCH  28  29
ATOM     29  C   LIG    1        4.465   1.286   2.406  0.00  0.00    -0.017 C 
ATOM     30  C   LIG    1        5.958   0.922   2.303  0.00  0.00    +0.007 C 
ATOM     31  C   LIG    1        4.292   2.787   2.711  0.00  0.00    +0.007 C 
ENDBRANCH  28  29
ENDBRANCH  27  28
ENDBRANCH  26  27
ENDBRANCH  24  26
ENDBRANCH   8  24
TORSDOF 8
