REMARK  Name = DB01120
REMARK                            x       y       z     vdW  Elec       q    Type
REMARK                         _______ _______ _______ _____ _____    ______ ____
ROOT
ATOM      1  N   LIG    1        1.654  -0.262  -0.217  0.00  0.00    -0.168 N 
ATOM      2  H   LIG    1        2.074  -0.454  -1.129  0.00  0.00    +0.178 HD
ATOM      3  C   LIG    1        2.494  -0.025   0.892  0.00  0.00    +0.333 C 
ATOM      4  O   LIG    1        2.056   0.252   2.011  0.00  0.00    -0.250 OA
ATOM      5  N   LIG    1        3.797  -0.126   0.579  0.00  0.00    -0.231 N 
ATOM      6  H   LIG    1        4.153  -0.331  -0.343  0.00  0.00    +0.171 HD
ENDROOT
BRANCH   5   7
ATOM      7  N   LIG    1        4.786   0.112   1.543  0.00  0.00    -0.225 NA
ATOM      8  C   LIG    1        5.704  -1.011   1.645  0.00  0.00    +0.109 C 
ATOM      9  C   LIG    1        6.929  -0.438   2.376  0.00  0.00    +0.009 C 
ATOM     10  C   LIG    1        8.283  -0.955   1.855  0.00  0.00    +0.005 C 
ATOM     11  C   LIG    1        8.710   0.053   0.788  0.00  0.00    +0.001 C 
ATOM     12  C   LIG    1        8.219   1.390   1.343  0.00  0.00    +0.005 C 
ATOM     13  C   LIG    1        6.889   1.067   2.048  0.00  0.00    +0.009 C 
ATOM     14  C   LIG    1        5.644   1.222   1.160  0.00  0.00    +0.109 C 
ENDBRANCH   5   7
BRANCH   1  15
ATOM     15  S   LIG    1       -0.102  -0.114  -0.218  0.00  0.00    +0.076 S 
ATOM     16  O   LIG    1       -0.622  -0.768   0.988  0.00  0.00    -0.150 OA
ATOM     17  O   LIG    1       -0.573  -0.517  -1.548  0.00  0.00    -0.150 OA
BRANCH  15  18
ATOM     18  C   LIG    1       -0.409   1.644  -0.053  0.00  0.00    +0.109 A 
ATOM     19  C   LIG    1       -0.468   2.448  -1.193  0.00  0.00    +0.029 A 
ATOM     20  C   LIG    1       -0.691   3.817  -1.064  0.00  0.00    +0.005 A 
ATOM     21  C   LIG    1       -0.852   4.380   0.203  0.00  0.00    -0.050 A 
ATOM     22  C   LIG    1       -1.096   5.871   0.351  0.00  0.00    +0.044 C 
ATOM     23  C   LIG    1       -0.792   3.575   1.342  0.00  0.00    +0.005 A 
ATOM     24  C   LIG    1       -0.569   2.207   1.215  0.00  0.00    +0.029 A 
ENDBRANCH  15  18
ENDBRANCH   1  15
TORSDOF 3
