REMARK  Name = DB01645
REMARK                            x       y       z     vdW  Elec       q    Type
REMARK                         _______ _______ _______ _____ _____    ______ ____
ROOT
ATOM      1  C   LIG    1        1.471   0.001  -0.012  0.00  0.00    +0.064 A 
ATOM      2  C   LIG    1        2.179   0.001   1.282  0.00  0.00    +0.204 A 
ATOM      3  O   LIG    1        1.603   0.002   2.371  0.00  0.00    -0.286 OA
ATOM      4  C   LIG    1        3.686   0.000   1.156  0.00  0.00    +0.106 A 
ATOM      5  C   LIG    1        4.560   0.000   2.267  0.00  0.00    +0.135 A 
ATOM      6  C   LIG    1        5.944   0.000   2.080  0.00  0.00    +0.091 A 
ATOM      7  C   LIG    1        6.487  -0.000   0.798  0.00  0.00    +0.124 A 
ATOM      8  C   LIG    1        5.648  -0.000  -0.309  0.00  0.00    +0.092 A 
ATOM      9  C   LIG    1        4.266  -0.000  -0.130  0.00  0.00    +0.145 A 
ATOM     10  O   LIG    1        3.513  -0.000  -1.286  0.00  0.00    -0.462 OA
ATOM     11  C   LIG    1        2.164   0.000  -1.169  0.00  0.00    +0.208 A 
ENDROOT
BRANCH   1  15
ATOM     12  C   LIG    1       -2.789   0.002  -0.009  0.00  0.00    +0.117 A 
ATOM     13  C   LIG    1       -2.097   1.212  -0.014  0.00  0.00    +0.046 A 
ATOM     14  C   LIG    1       -0.704   1.211  -0.022  0.00  0.00    +0.012 A 
ATOM     15  C   LIG    1       -0.003   0.001  -0.032  0.00  0.00    -0.011 A 
ATOM     16  C   LIG    1       -0.705  -1.208  -0.022  0.00  0.00    +0.012 A 
ATOM     17  C   LIG    1       -2.098  -1.208  -0.014  0.00  0.00    +0.046 A 
BRANCH  12  18
ATOM     18  O   LIG    1       -4.158   0.002   0.003  0.00  0.00    -0.507 OA
ATOM     19  H   LIG    1       -4.533   0.885   0.012  0.00  0.00    +0.292 HD
ENDBRANCH  12  18
ENDBRANCH   1  15
BRANCH   5  20
ATOM     20  O   LIG    1        4.109   0.000   3.563  0.00  0.00    -0.506 OA
ATOM     21  H   LIG    1        4.821   0.000   4.207  0.00  0.00    +0.292 HD
ENDBRANCH   5  20
BRANCH   7  22
ATOM     22  O   LIG    1        7.845  -0.000   0.628  0.00  0.00    -0.507 OA
ATOM     23  H   LIG    1        8.323   0.000   1.460  0.00  0.00    +0.292 HD
ENDBRANCH   7  22
TORSDOF 4
