REMARK  Name = DB01198
REMARK                            x       y       z     vdW  Elec       q    Type
REMARK                         _______ _______ _______ _____ _____    ______ ____
ROOT
ATOM      1  N   LIG    1        1.815  -1.281   0.115  0.00  0.00    -0.208 N 
ATOM      2  C   LIG    1        2.237  -1.944   1.231  0.00  0.00    +0.275 C 
ATOM      3  C   LIG    1        2.342  -0.884   2.267  0.00  0.00    +0.153 A 
ATOM      4  C   LIG    1        1.976   0.329   1.736  0.00  0.00    +0.131 A 
ATOM      5  N   LIG    1        1.983   1.474   2.467  0.00  0.00    -0.251 NA
ATOM      6  C   LIG    1        2.377   1.347   3.767  0.00  0.00    +0.131 A 
ATOM      7  C   LIG    1        2.751   0.104   4.306  0.00  0.00    +0.131 A 
ATOM      8  N   LIG    1        2.738  -1.036   3.557  0.00  0.00    -0.247 NA
ATOM      9  O   LIG    1        2.493  -3.143   1.353  0.00  0.00    -0.268 OA
ATOM     10  C   LIG    1        1.577   0.145   0.291  0.00  0.00    +0.328 C 
ENDROOT
BRANCH   1  15
ATOM     11 CL   LIG    1        0.823  -3.593  -5.231  0.00  0.00    -0.082 Cl
ATOM     12  C   LIG    1        1.099  -2.958  -3.651  0.00  0.00    +0.059 A 
ATOM     13  C   LIG    1        1.726  -1.725  -3.478  0.00  0.00    +0.132 A 
ATOM     14  N   LIG    1        1.963  -1.187  -2.255  0.00  0.00    -0.238 NA
ATOM     15  C   LIG    1        1.575  -1.880  -1.147  0.00  0.00    +0.131 A 
ATOM     16  C   LIG    1        0.933  -3.127  -1.251  0.00  0.00    +0.045 A 
ATOM     17  C   LIG    1        0.698  -3.666  -2.517  0.00  0.00    +0.025 A 
ENDBRANCH   1  15
BRANCH  10  18
ATOM     18  O   LIG    1        0.198   0.400   0.154  0.00  0.00    -0.422 OA
BRANCH  18  19
ATOM     19  C   LIG    1       -0.224   1.378  -0.717  0.00  0.00    +0.405 C 
ATOM     20  N   LIG    1       -1.628   1.401  -0.829  0.00  0.00    -0.265 N 
ATOM     21  C   LIG    1       -2.201   2.213  -1.921  0.00  0.00    +0.126 C 
ATOM     22  C   LIG    1       -3.622   2.680  -1.534  0.00  0.00    +0.103 C 
ATOM     23  N   LIG    1       -4.451   1.563  -1.079  0.00  0.00    -0.302 NA
ATOM     24  C   LIG    1       -5.804   2.029  -0.789  0.00  0.00    +0.105 C 
ATOM     25  C   LIG    1       -3.870   0.942   0.112  0.00  0.00    +0.103 C 
ATOM     26  C   LIG    1       -2.463   0.369  -0.171  0.00  0.00    +0.126 C 
ATOM     27  O   LIG    1        0.538   2.152  -1.305  0.00  0.00    -0.226 OA
ENDBRANCH  18  19
ENDBRANCH  10  18
TORSDOF 3
