REMARK  Name = DB01167
REMARK                            x       y       z     vdW  Elec       q    Type
REMARK                         _______ _______ _______ _____ _____    ______ ____
ROOT
ATOM      1  C   LIG    1       -3.208  -0.394   0.206  0.00  0.00    +0.121 A 
ATOM      2  C   LIG    1       -2.476   0.490   1.012  0.00  0.00    +0.047 A 
ATOM      3  C   LIG    1       -1.084   0.449   1.013  0.00  0.00    +0.027 A 
ATOM      4  C   LIG    1       -0.390  -0.471   0.217  0.00  0.00    +0.030 A 
ATOM      5  C   LIG    1       -1.131  -1.347  -0.589  0.00  0.00    +0.027 A 
ATOM      6  C   LIG    1       -2.522  -1.308  -0.591  0.00  0.00    +0.047 A 
ENDROOT
BRANCH   4   7
ATOM      7  N   LIG    1        1.004  -0.500   0.238  0.00  0.00    -0.327 N 
ATOM      8  C   LIG    1        1.718  -0.570   1.520  0.00  0.00    +0.124 C 
ATOM      9  C   LIG    1        3.200  -0.144   1.450  0.00  0.00    +0.124 C 
ATOM     10  N   LIG    1        3.984  -0.850   0.426  0.00  0.00    -0.327 N 
ATOM     11  C   LIG    1        3.278  -0.784  -0.861  0.00  0.00    +0.124 C 
ATOM     12  C   LIG    1        1.787  -1.184  -0.800  0.00  0.00    +0.124 C 
BRANCH  10  13
ATOM     13  C   LIG    1        5.375  -0.924   0.517  0.00  0.00    +0.030 A 
ATOM     14  C   LIG    1        5.981  -1.283   1.728  0.00  0.00    +0.025 A 
ATOM     15  C   LIG    1        7.365  -1.383   1.835  0.00  0.00    +0.028 A 
ATOM     16  C   LIG    1        8.183  -1.122   0.727  0.00  0.00    +0.053 A 
ATOM     17  C   LIG    1        7.583  -0.765  -0.488  0.00  0.00    +0.028 A 
ATOM     18  C   LIG    1        6.198  -0.670  -0.590  0.00  0.00    +0.025 A 
BRANCH  16  19
ATOM     19  N   LIG    1        9.592  -1.238   0.830  0.00  0.00    -0.250 N 
ATOM     20  C   LIG    1       10.281  -2.130   1.570  0.00  0.00    +0.230 A 
ATOM     21  N   LIG    1       11.524  -2.023   1.440  0.00  0.00    -0.157 NA
ATOM     22  N   LIG    1       11.665  -1.040   0.550  0.00  0.00    -0.210 N 
ATOM     23  C   LIG    1       10.507  -0.406   0.276  0.00  0.00    +0.351 A 
ATOM     24  O   LIG    1       10.329   0.634  -0.364  0.00  0.00    -0.244 OA
BRANCH  22  25
ATOM     25  C   LIG    1       12.993  -0.599   0.077  0.00  0.00    +0.109 C 
ATOM     26  C   LIG    1       13.757   0.141   1.197  0.00  0.00    +0.033 C 
BRANCH  25  27
ATOM     27  C   LIG    1       13.803  -1.774  -0.531  0.00  0.00    +0.023 C 
ATOM     28  C   LIG    1       15.090  -1.359  -1.264  0.00  0.00    +0.006 C 
ENDBRANCH  25  27
ENDBRANCH  22  25
ENDBRANCH  16  19
ENDBRANCH  10  13
ENDBRANCH   4   7
BRANCH   1  29
ATOM     29  O   LIG    1       -4.587  -0.433   0.140  0.00  0.00    -0.489 OA
BRANCH  29  30
ATOM     30  C   LIG    1       -5.351   0.516   0.880  0.00  0.00    +0.263 C 
BRANCH  30  34
ATOM     31  C   LIG    1       -7.923   1.687  -1.107  0.00  0.00    +0.219 C 
ATOM     32  O   LIG    1       -8.126   2.280   0.137  0.00  0.00    -0.341 OA
ATOM     33  C   LIG    1       -7.750   1.398   1.171  0.00  0.00    +0.198 C 
ATOM     34  C   LIG    1       -6.830   0.395   0.472  0.00  0.00    +0.185 C 
ATOM     35  O   LIG    1       -6.922   0.739  -0.895  0.00  0.00    -0.334 OA
BRANCH  31  36
ATOM     36  C   LIG    1       -9.236   0.989  -1.586  0.00  0.00    +0.031 A 
ATOM     37  C   LIG    1       -9.223  -0.373  -1.931  0.00  0.00    +0.012 A 
ATOM     38  C   LIG    1      -10.383  -1.019  -2.356  0.00  0.00    +0.020 A 
ATOM     39  C   LIG    1      -11.580  -0.315  -2.440  0.00  0.00    +0.042 A 
ATOM     40 CL   LIG    1      -13.018  -1.112  -2.966  0.00  0.00    -0.083 Cl
ATOM     41  C   LIG    1      -11.615   1.035  -2.097  0.00  0.00    +0.040 A 
ATOM     42  C   LIG    1      -10.457   1.689  -1.670  0.00  0.00    +0.051 A 
ATOM     43 CL   LIG    1      -10.597   3.361  -1.243  0.00  0.00    -0.083 Cl
ENDBRANCH  31  36
BRANCH  31  44
ATOM     44  C   LIG    1       -7.356   2.709  -2.109  0.00  0.00    +0.215 C 
BRANCH  44  45
ATOM     45  N   LIG    1       -6.065   3.251  -1.690  0.00  0.00    -0.246 N 
ATOM     46  N   LIG    1       -5.977   4.197  -0.751  0.00  0.00    -0.158 NA
ATOM     47  C   LIG    1       -4.672   4.325  -0.637  0.00  0.00    +0.244 A 
ATOM     48  N   LIG    1       -3.911   3.549  -1.394  0.00  0.00    -0.223 NA
ATOM     49  C   LIG    1       -4.805   2.863  -2.057  0.00  0.00    +0.219 A 
ENDBRANCH  44  45
ENDBRANCH  31  44
ENDBRANCH  30  34
ENDBRANCH  29  30
ENDBRANCH   1  29
TORSDOF 11
