REMARK  Name = DB01992
REMARK                            x       y       z     vdW  Elec       q    Type
REMARK                         _______ _______ _______ _____ _____    ______ ____
ROOT
ATOM      1  P   LIG    1       -4.586  -0.529  -0.509  0.00  0.00    +0.483 P 
ATOM      2  O   LIG    1       -5.760  -0.801   0.405  0.00  0.00    -0.227 OA
ENDROOT
BRANCH   1   3
ATOM      3  O   LIG    1       -4.712   0.277  -1.783  0.00  0.00    -0.302 OA
ATOM      4  H   LIG    1       -3.846   0.332  -2.218  0.00  0.00    +0.222 HD
ENDBRANCH   1   3
BRANCH   1   5
ATOM      5  O   LIG    1       -3.836  -2.042  -0.864  0.00  0.00    -0.284 OA
BRANCH   5   6
ATOM      6  C   LIG    1       -2.809  -2.057  -1.842  0.00  0.00    +0.206 C 
BRANCH   6  10
ATOM      7  C   LIG    1       -1.768  -5.537  -2.041  0.00  0.00    +0.253 C 
ATOM      8  C   LIG    1       -0.398  -4.934  -2.408  0.00  0.00    +0.196 C 
ATOM      9  C   LIG    1       -0.772  -3.461  -2.574  0.00  0.00    +0.194 C 
ATOM     10  C   LIG    1       -1.887  -3.253  -1.564  0.00  0.00    +0.179 C 
ATOM     11  O   LIG    1       -2.616  -4.459  -1.753  0.00  0.00    -0.346 OA
BRANCH   7  12
ATOM     12  N   LIG    1       -2.408  -6.431  -3.087  0.00  0.00    -0.286 N 
ATOM     13  C   LIG    1       -2.954  -7.646  -2.879  0.00  0.00    +0.203 A 
ATOM     14  N   LIG    1       -3.508  -8.169  -3.945  0.00  0.00    -0.231 NA
ATOM     15  C   LIG    1       -3.371  -7.222  -4.886  0.00  0.00    +0.147 A 
ATOM     16  C   LIG    1       -3.791  -7.177  -6.237  0.00  0.00    +0.147 A 
ATOM     17  N   LIG    1       -3.528  -6.052  -6.956  0.00  0.00    -0.219 NA
ATOM     18  C   LIG    1       -2.884  -5.050  -6.340  0.00  0.00    +0.225 A 
ATOM     19  N   LIG    1       -2.437  -4.980  -5.077  0.00  0.00    -0.216 NA
ATOM     20  C   LIG    1       -2.708  -6.114  -4.385  0.00  0.00    +0.167 A 
BRANCH  16  21
ATOM     21  N   LIG    1       -4.466  -8.225  -6.860  0.00  0.00    -0.341 N 
ATOM     22  H   LIG    1       -4.738  -8.131  -7.827  0.00  0.00    +0.144 HD
ATOM     23  H   LIG    1       -4.665  -9.065  -6.336  0.00  0.00    +0.144 HD
ENDBRANCH  16  21
ENDBRANCH   7  12
BRANCH   8  24
ATOM     24  O   LIG    1        0.495  -5.192  -1.337  0.00  0.00    -0.385 OA
ATOM     25  H   LIG    1        1.355  -4.835  -1.578  0.00  0.00    +0.210 HD
ENDBRANCH   8  24
BRANCH   9  26
ATOM     26  O   LIG    1        0.288  -2.536  -2.377  0.00  0.00    -0.278 OA
BRANCH  26  27
ATOM     27  P   LIG    1        1.791  -2.592  -3.301  0.00  0.00    +0.473 P 
ATOM     28  O   LIG    1        2.520  -1.273  -2.987  0.00  0.00    -0.228 OA
BRANCH  27  29
ATOM     29  O   LIG    1        1.369  -2.703  -4.778  0.00  0.00    -0.303 OA
ATOM     30  H   LIG    1        0.916  -3.548  -4.922  0.00  0.00    +0.222 HD
ENDBRANCH  27  29
BRANCH  27  31
ATOM     31  O   LIG    1        2.567  -3.827  -2.808  0.00  0.00    -0.303 OA
ATOM     32  H   LIG    1        2.070  -4.630  -3.027  0.00  0.00    +0.222 HD
ENDBRANCH  27  31
ENDBRANCH  26  27
ENDBRANCH   9  26
ENDBRANCH   6  10
ENDBRANCH   5   6
ENDBRANCH   1   5
BRANCH   1  33
ATOM     33  O   LIG    1       -3.338   0.154   0.445  0.00  0.00    -0.186 OA
BRANCH  33  34
ATOM     34  P   LIG    1       -1.839   0.976   0.374  0.00  0.00    +0.483 P 
ATOM     35  O   LIG    1       -1.764   1.724  -0.938  0.00  0.00    -0.227 OA
BRANCH  34  36
ATOM     36  O   LIG    1       -1.604   1.643   1.712  0.00  0.00    -0.302 OA
ATOM     37  H   LIG    1       -1.699   0.988   2.421  0.00  0.00    +0.222 HD
ENDBRANCH  34  36
BRANCH  34  38
ATOM     38  O   LIG    1       -0.822  -0.416   0.283  0.00  0.00    -0.286 OA
BRANCH  38  39
ATOM     39  C   LIG    1        0.570  -0.191   0.114  0.00  0.00    +0.181 C 
BRANCH  39  40
ATOM     40  C   LIG    1        1.429  -0.979   1.145  0.00  0.00    +0.024 C 
ATOM     41  C   LIG    1        2.914  -0.683   0.795  0.00  0.00    +0.016 C 
ATOM     42  C   LIG    1        1.200  -2.502   0.956  0.00  0.00    +0.016 C 
BRANCH  40  43
ATOM     43  C   LIG    1        1.082  -0.510   2.612  0.00  0.00    +0.208 C 
BRANCH  43  44
ATOM     44  C   LIG    1        2.045  -1.009   3.717  0.00  0.00    +0.242 C 
ATOM     45  O   LIG    1        1.860  -2.087   4.290  0.00  0.00    -0.273 OA
ATOM     46  N   LIG    1        3.080  -0.201   4.005  0.00  0.00    -0.313 N 
ATOM     47  H   LIG    1        3.190   0.657   3.486  0.00  0.00    +0.149 HD
BRANCH  46  48
ATOM     48  C   LIG    1        4.093  -0.495   5.013  0.00  0.00    +0.113 C 
BRANCH  48  49
ATOM     49  C   LIG    1        3.695  -0.272   6.493  0.00  0.00    +0.114 C 
BRANCH  49  50
ATOM     50  C   LIG    1        4.781   0.260   7.439  0.00  0.00    +0.215 C 
ATOM     51  O   LIG    1        5.610   1.081   7.045  0.00  0.00    -0.276 OA
ATOM     52  N   LIG    1        4.748  -0.215   8.696  0.00  0.00    -0.314 N 
ATOM     53  H   LIG    1        4.034  -0.888   8.938  0.00  0.00    +0.149 HD
BRANCH  52  54
ATOM     54  C   LIG    1        5.677   0.156   9.763  0.00  0.00    +0.114 C 
BRANCH  54  55
ATOM     55  C   LIG    1        5.417   1.560  10.341  0.00  0.00    +0.084 C 
BRANCH  55  56
ATOM     56  S   LIG    1        6.585   1.890  11.688  0.00  0.00    -0.177 S 
ATOM     57  H   LIG    1        6.157   3.130  11.944  0.00  0.00    +0.102 HD
ENDBRANCH  55  56
ENDBRANCH  54  55
ENDBRANCH  52  54
ENDBRANCH  49  50
ENDBRANCH  48  49
ENDBRANCH  46  48
ENDBRANCH  43  44
BRANCH  43  58
ATOM     58  O   LIG    1       -0.237  -0.896   2.975  0.00  0.00    -0.382 OA
ATOM     59  H   LIG    1       -0.812  -0.746   2.219  0.00  0.00    +0.210 HD
ENDBRANCH  43  58
ENDBRANCH  40  43
ENDBRANCH  39  40
ENDBRANCH  38  39
ENDBRANCH  34  38
ENDBRANCH  33  34
ENDBRANCH   1  33
TORSDOF 26
