REMARK  Name = DB01176
REMARK                            x       y       z     vdW  Elec       q    Type
REMARK                         _______ _______ _______ _____ _____    ______ ____
ROOT
ATOM      1  C   LIG    1        1.397  -0.028   0.090  0.00  0.00    +0.117 C 
ENDROOT
BRANCH   1   2
ATOM      2  N   LIG    1       -0.083   0.021  -0.027  0.00  0.00    -0.289 NA
ATOM      3  C   LIG    1       -0.575  -0.633  -1.256  0.00  0.00    +0.100 C 
ATOM      4  C   LIG    1       -2.122  -0.637  -1.291  0.00  0.00    +0.099 C 
ATOM      5  N   LIG    1       -2.626   0.739  -1.271  0.00  0.00    -0.303 NA
ATOM      6  C   LIG    1       -4.084   0.744  -1.317  0.00  0.00    +0.105 C 
ATOM      7  C   LIG    1       -2.153   1.401  -0.051  0.00  0.00    +0.099 C 
ATOM      8  C   LIG    1       -0.605   1.402  -0.018  0.00  0.00    +0.100 C 
ENDBRANCH   1   2
BRANCH   1   9
ATOM      9  C   LIG    1        1.949   0.693   1.329  0.00  0.00    -0.026 A 
ATOM     10  C   LIG    1        1.307   0.600   2.572  0.00  0.00    +0.005 A 
ATOM     11  C   LIG    1        1.825   1.267   3.678  0.00  0.00    +0.000 A 
ATOM     12  C   LIG    1        2.984   2.028   3.545  0.00  0.00    +0.000 A 
ATOM     13  C   LIG    1        3.631   2.126   2.315  0.00  0.00    +0.000 A 
ATOM     14  C   LIG    1        3.113   1.458   1.208  0.00  0.00    +0.005 A 
ENDBRANCH   1   9
BRANCH   1  15
ATOM     15  C   LIG    1        1.983  -1.448   0.025  0.00  0.00    -0.026 A 
ATOM     16  C   LIG    1        1.351  -2.527   0.658  0.00  0.00    +0.005 A 
ATOM     17  C   LIG    1        1.901  -3.804   0.580  0.00  0.00    +0.000 A 
ATOM     18  C   LIG    1        3.082  -4.003  -0.130  0.00  0.00    +0.000 A 
ATOM     19  C   LIG    1        3.719  -2.938  -0.761  0.00  0.00    +0.000 A 
ATOM     20  C   LIG    1        3.169  -1.661  -0.684  0.00  0.00    +0.005 A 
ENDBRANCH   1  15
TORSDOF 3
