REMARK  Name = DB01063
REMARK                            x       y       z     vdW  Elec       q    Type
REMARK                         _______ _______ _______ _____ _____    ______ ____
ROOT
ATOM      1  N   LIG    1       -1.822   1.883  -0.254  0.00  0.00    -0.298 N 
ATOM      2  C   LIG    1       -2.562   1.754  -1.451  0.00  0.00    +0.048 A 
ATOM      3  C   LIG    1       -1.980   1.300  -2.652  0.00  0.00    +0.024 A 
ATOM      4  C   LIG    1       -2.736   1.096  -3.804  0.00  0.00    +0.002 A 
ATOM      5  C   LIG    1       -4.108   1.315  -3.783  0.00  0.00    +0.001 A 
ATOM      6  C   LIG    1       -4.720   1.721  -2.603  0.00  0.00    +0.017 A 
ATOM      7  C   LIG    1       -3.968   1.904  -1.439  0.00  0.00    +0.034 A 
ATOM      8  S   LIG    1       -4.809   2.439   0.007  0.00  0.00    -0.086 S 
ATOM      9  C   LIG    1       -3.777   1.685   1.213  0.00  0.00    +0.034 A 
ATOM     10  C   LIG    1       -4.355   1.304   2.424  0.00  0.00    +0.017 A 
ATOM     11  C   LIG    1       -3.586   0.721   3.424  0.00  0.00    +0.012 A 
ATOM     12  C   LIG    1       -2.218   0.511   3.232  0.00  0.00    +0.019 A 
ATOM     13  C   LIG    1       -1.644   0.924   2.021  0.00  0.00    +0.036 A 
ATOM     14  C   LIG    1       -2.388   1.556   1.002  0.00  0.00    +0.049 A 
ENDROOT
BRANCH  12  15
ATOM     15  C   LIG    1       -1.407  -0.138   4.314  0.00  0.00    +0.160 C 
ATOM     16  O   LIG    1       -1.871  -0.469   5.406  0.00  0.00    -0.292 OA
ATOM     17  C   LIG    1        0.071  -0.429   4.039  0.00  0.00    +0.091 C 
ENDBRANCH  12  15
BRANCH   1  18
ATOM     18  C   LIG    1       -0.351   2.009  -0.335  0.00  0.00    +0.112 C 
BRANCH  18  19
ATOM     19  C   LIG    1        0.414   0.661  -0.417  0.00  0.00    +0.035 C 
BRANCH  19  20
ATOM     20  C   LIG    1        1.814   0.696   0.232  0.00  0.00    +0.086 C 
BRANCH  20  21
ATOM     21  N   LIG    1        2.316  -0.642   0.556  0.00  0.00    -0.300 NA
ATOM     22  C   LIG    1        2.591  -1.439  -0.648  0.00  0.00    +0.100 C 
ATOM     23  C   LIG    1        3.102  -2.848  -0.260  0.00  0.00    +0.100 C 
ATOM     24  N   LIG    1        4.331  -2.753   0.542  0.00  0.00    -0.298 NA
ATOM     25  C   LIG    1        4.045  -1.951   1.740  0.00  0.00    +0.100 C 
ATOM     26  C   LIG    1        3.550  -0.539   1.343  0.00  0.00    +0.100 C 
BRANCH  24  27
ATOM     27  C   LIG    1        4.848  -4.068   0.948  0.00  0.00    +0.112 C 
BRANCH  27  28
ATOM     28  C   LIG    1        5.446  -4.934  -0.182  0.00  0.00    +0.171 C 
BRANCH  28  29
ATOM     29  O   LIG    1        4.461  -5.553  -0.984  0.00  0.00    -0.394 OA
ATOM     30  H   LIG    1        4.900  -6.076  -1.658  0.00  0.00    +0.209 HD
ENDBRANCH  28  29
ENDBRANCH  27  28
ENDBRANCH  24  27
ENDBRANCH  20  21
ENDBRANCH  19  20
ENDBRANCH  18  19
ENDBRANCH   1  18
TORSDOF 8
