REMARK  Name = DB01122
REMARK                            x       y       z     vdW  Elec       q    Type
REMARK                         _______ _______ _______ _____ _____    ______ ____
ROOT
ATOM      1  N   LIG    1       -0.928  -0.180  -0.723  0.00  0.00    -0.309 N 
ATOM      2  H   LIG    1       -0.427  -0.949  -1.146  0.00  0.00    +0.149 HD
ATOM      3  C   LIG    1       -0.200   0.791  -0.133  0.00  0.00    +0.299 C 
ATOM      4  O   LIG    1       -0.694   1.792   0.397  0.00  0.00    -0.265 OA
ENDROOT
BRANCH   3   5
ATOM      5  C   LIG    1        1.267   0.539  -0.182  0.00  0.00    +0.299 C 
ATOM      6  N   LIG    1        1.987   1.452   0.500  0.00  0.00    -0.309 N 
ATOM      7  H   LIG    1        1.487   2.205   0.951  0.00  0.00    +0.149 HD
ATOM      8  O   LIG    1        1.768  -0.415  -0.787  0.00  0.00    -0.265 OA
BRANCH   6   9
ATOM      9  C   LIG    1        3.445   1.496   0.608  0.00  0.00    +0.086 C 
BRANCH   9  10
ATOM     10  C   LIG    1        3.973   1.030   1.996  0.00  0.00    -0.056 C 
BRANCH  10  11
ATOM     11  N   LIG    1        4.954  -0.192   1.976  0.00  0.00    +0.383 N 
BRANCH  11  12
ATOM     12  C   LIG    1        4.324  -1.429   1.252  0.00  0.00    -0.078 C 
ATOM     13  C   LIG    1        3.002  -1.948   1.862  0.00  0.00    -0.016 C 
ENDBRANCH  11  12
BRANCH  11  14
ATOM     14  C   LIG    1        5.281  -0.613   3.451  0.00  0.00    -0.078 C 
ATOM     15  C   LIG    1        5.856   0.509   4.347  0.00  0.00    -0.016 C 
ENDBRANCH  11  14
BRANCH  11  16
ATOM     16  C   LIG    1        6.269   0.232   1.231  0.00  0.00    -0.038 C 
BRANCH  16  17
ATOM     17  C   LIG    1        7.393  -0.806   1.088  0.00  0.00    -0.045 A 
ATOM     18  C   LIG    1        8.372  -0.889   2.087  0.00  0.00    +0.003 A 
ATOM     19  C   LIG    1        9.420  -1.803   1.987  0.00  0.00    +0.000 A 
ATOM     20  C   LIG    1        9.513  -2.637   0.875  0.00  0.00    +0.001 A 
ATOM     21  C   LIG    1        8.564  -2.546  -0.140  0.00  0.00    +0.020 A 
ATOM     22  C   LIG    1        7.513  -1.631  -0.048  0.00  0.00    +0.042 A 
ATOM     23 CL   LIG    1        6.410  -1.535  -1.379  0.00  0.00    -0.083 Cl
ENDBRANCH  16  17
ENDBRANCH  11  16
ENDBRANCH  10  11
ENDBRANCH   9  10
ENDBRANCH   6   9
ENDBRANCH   3   5
BRANCH   1  24
ATOM     24  C   LIG    1       -2.384  -0.200  -0.876  0.00  0.00    +0.086 C 
BRANCH  24  25
ATOM     25  C   LIG    1       -3.049  -1.415  -0.169  0.00  0.00    -0.056 C 
BRANCH  25  26
ATOM     26  N   LIG    1       -3.862  -1.088   1.134  0.00  0.00    +0.383 N 
BRANCH  26  27
ATOM     27  C   LIG    1       -4.362  -2.446   1.731  0.00  0.00    -0.078 C 
ATOM     28  C   LIG    1       -5.248  -3.286   0.781  0.00  0.00    -0.016 C 
ENDBRANCH  26  27
BRANCH  26  29
ATOM     29  C   LIG    1       -5.049  -0.128   0.767  0.00  0.00    -0.078 C 
ATOM     30  C   LIG    1       -6.251  -0.140   1.743  0.00  0.00    -0.016 C 
ENDBRANCH  26  29
BRANCH  26  31
ATOM     31  C   LIG    1       -2.879  -0.418   2.156  0.00  0.00    -0.038 C 
BRANCH  31  38
ATOM     32 CL   LIG    1       -2.690  -2.426   4.593  0.00  0.00    -0.083 Cl
ATOM     33  C   LIG    1       -3.355  -0.831   4.660  0.00  0.00    +0.042 A 
ATOM     34  C   LIG    1       -3.826  -0.372   5.893  0.00  0.00    +0.020 A 
ATOM     35  C   LIG    1       -4.314   0.926   6.025  0.00  0.00    +0.001 A 
ATOM     36  C   LIG    1       -4.323   1.779   4.924  0.00  0.00    +0.000 A 
ATOM     37  C   LIG    1       -3.857   1.328   3.691  0.00  0.00    +0.003 A 
ATOM     38  C   LIG    1       -3.398   0.012   3.533  0.00  0.00    -0.045 A 
ENDBRANCH  31  38
ENDBRANCH  26  31
ENDBRANCH  25  26
ENDBRANCH  24  25
ENDBRANCH   1  24
TORSDOF 15
