REMARK  Name = DB01191
REMARK                            x       y       z     vdW  Elec       q    Type
REMARK                         _______ _______ _______ _____ _____    ______ ____
ROOT
ATOM      1  C   LIG    1       -1.486   3.532   1.103  0.00  0.00    +0.055 A 
ATOM      2  C   LIG    1       -1.428   4.130  -0.163  0.00  0.00    +0.012 A 
ATOM      3  C   LIG    1       -0.889   3.436  -1.247  0.00  0.00    +0.001 A 
ATOM      4  C   LIG    1       -0.402   2.142  -1.076  0.00  0.00    +0.004 A 
ATOM      5  C   LIG    1       -0.444   1.534   0.183  0.00  0.00    -0.045 A 
ATOM      6  C   LIG    1       -0.994   2.231   1.264  0.00  0.00    +0.016 A 
ENDROOT
BRANCH   1   7
ATOM      7  C   LIG    1       -2.072   4.271   2.304  0.00  0.00    +0.417 C 
ATOM      8  F   LIG    1       -1.110   4.494   3.199  0.00  0.00    -0.166 F 
ATOM      9  F   LIG    1       -3.024   3.529   2.873  0.00  0.00    -0.166 F 
ATOM     10  F   LIG    1       -2.609   5.446   1.968  0.00  0.00    -0.166 F 
ENDBRANCH   1   7
BRANCH   5  11
ATOM     11  C   LIG    1        0.088   0.116   0.372  0.00  0.00    +0.053 C 
BRANCH  11  12
ATOM     12  C   LIG    1        1.582  -0.095   0.000  0.00  0.00    +0.055 C 
ATOM     13  C   LIG    1        1.894  -1.598  -0.117  0.00  0.00    +0.024 C 
BRANCH  12  14
ATOM     14  N   LIG    1        2.506   0.419   1.012  0.00  0.00    -0.313 NA
ATOM     15  H   LIG    1        3.414  -0.012   0.910  0.00  0.00    +0.122 HD
BRANCH  14  16
ATOM     16  C   LIG    1        2.634   1.870   1.046  0.00  0.00    +0.078 C 
ATOM     17  C   LIG    1        3.790   2.258   1.977  0.00  0.00    +0.020 C 
ENDBRANCH  14  16
ENDBRANCH  12  14
ENDBRANCH  11  12
ENDBRANCH   5  11
TORSDOF 5
