REMARK  Name = DB01332
REMARK                            x       y       z     vdW  Elec       q    Type
REMARK                         _______ _______ _______ _____ _____    ______ ____
ROOT
ATOM      1  N   LIG    1       -0.545  -1.165   0.011  0.00  0.00    -0.296 N 
ATOM      2  H   LIG    1       -0.138  -1.579   0.837  0.00  0.00    +0.150 HD
ATOM      3  C   LIG    1        0.204  -0.329  -0.733  0.00  0.00    +0.268 C 
ATOM      4  O   LIG    1       -0.209   0.258  -1.735  0.00  0.00    -0.268 OA
ENDROOT
BRANCH   1  11
ATOM      5  SD  LIG    1       -0.953  -3.391  -2.302  0.00  0.00    -0.131 S 
ATOM      6  CG  LIG    1       -2.039  -4.725  -2.925  0.00  0.00    +0.100 C 
ATOM      7  CB  LIG    1       -2.955  -5.281  -1.835  0.00  0.00    +0.014 C 
ATOM      8  CA  LIG    1       -3.346  -4.607  -0.724  0.00  0.00    +0.119 C 
ATOM      9  N   LIG    1       -2.958  -3.319  -0.475  0.00  0.00    -0.249 N 
ATOM     10  C   LIG    1       -2.485  -2.628   0.646  0.00  0.00    +0.244 C 
ATOM     11  CA  LIG    1       -1.947  -1.484  -0.257  0.00  0.00    +0.191 C 
ATOM     12  O   LIG    1       -2.442  -2.887   1.849  0.00  0.00    -0.273 OA
ATOM     13  CE  LIG    1       -2.261  -2.439  -1.445  0.00  0.00    +0.169 C 
BRANCH   8  14
ATOM     14  C   LIG    1       -4.263  -5.227   0.223  0.00  0.00    +0.351 C 
ATOM     15  OXT LIG    1       -5.148  -4.618   0.824  0.00  0.00    -0.244 OA
BRANCH  14  16
ATOM     16  O   LIG    1       -4.024  -6.560   0.412  0.00  0.00    -0.476 OA
ATOM     17  H   LIG    1       -4.625  -6.950   1.050  0.00  0.00    +0.295 HD
ENDBRANCH  14  16
ENDBRANCH   8  14
ENDBRANCH   1  11
BRANCH   3  18
ATOM     18  C   LIG    1        1.576  -0.157  -0.226  0.00  0.00    +0.190 C 
ATOM     19  N   LIG    1        1.975   0.979   0.233  0.00  0.00    -0.078 NA
BRANCH  18  20
ATOM     20  C   LIG    1        2.518  -1.306  -0.247  0.00  0.00    +0.107 A 
ATOM     21  C   LIG    1        3.787  -1.292   0.347  0.00  0.00    +0.078 A 
ATOM     22  S   LIG    1        4.578  -2.817   0.081  0.00  0.00    -0.060 S 
ATOM     23  C   LIG    1        3.173  -3.325  -0.793  0.00  0.00    +0.156 A 
ATOM     24  N   LIG    1        2.216  -2.438  -0.873  0.00  0.00    -0.223 NA
BRANCH  23  25
ATOM     25  N   LIG    1        3.121  -4.572  -1.343  0.00  0.00    -0.338 N 
ATOM     26  H   LIG    1        3.891  -5.220  -1.264  0.00  0.00    +0.144 HD
ATOM     27  H   LIG    1        2.310  -4.887  -1.857  0.00  0.00    +0.144 HD
ENDBRANCH  23  25
ENDBRANCH  18  20
BRANCH  19  28
ATOM     28  O   LIG    1        1.008   2.013   0.245  0.00  0.00    -0.396 OA
ATOM     29  C   LIG    1        1.603   3.190   0.765  0.00  0.00    +0.313 C 
ENDBRANCH  19  28
ENDBRANCH   3  18
TORSDOF 7
