REMARK  Name = DB01246
REMARK                            x       y       z     vdW  Elec       q    Type
REMARK                         _______ _______ _______ _____ _____    ______ ____
ROOT
ATOM      1  S   LIG    1        0.329  -4.966   2.318  0.00  0.00    -0.086 S 
ATOM      2  C   LIG    1       -0.475  -4.371   0.875  0.00  0.00    +0.034 A 
ATOM      3  C   LIG    1       -0.972  -5.319  -0.023  0.00  0.00    +0.017 A 
ATOM      4  C   LIG    1       -1.649  -4.921  -1.169  0.00  0.00    +0.001 A 
ATOM      5  C   LIG    1       -1.839  -3.568  -1.416  0.00  0.00    +0.002 A 
ATOM      6  C   LIG    1       -1.364  -2.622  -0.511  0.00  0.00    +0.024 A 
ATOM      7  C   LIG    1       -0.705  -2.990   0.680  0.00  0.00    +0.048 A 
ATOM      8  N   LIG    1       -0.137  -2.036   1.558  0.00  0.00    -0.298 N 
ATOM      9  C   LIG    1        1.049  -2.297   2.287  0.00  0.00    +0.048 A 
ATOM     10  C   LIG    1        1.994  -1.288   2.569  0.00  0.00    +0.024 A 
ATOM     11  C   LIG    1        3.202  -1.563   3.206  0.00  0.00    +0.002 A 
ATOM     12  C   LIG    1        3.514  -2.868   3.563  0.00  0.00    +0.001 A 
ATOM     13  C   LIG    1        2.622  -3.893   3.268  0.00  0.00    +0.017 A 
ATOM     14  C   LIG    1        1.420  -3.622   2.609  0.00  0.00    +0.034 A 
ENDROOT
BRANCH   8  15
ATOM     15  C   LIG    1       -0.602  -0.629   1.510  0.00  0.00    +0.115 C 
BRANCH  15  16
ATOM     16  C   LIG    1       -0.118   0.315   0.353  0.00  0.00    +0.018 C 
ATOM     17  C   LIG    1       -0.024   1.763   0.875  0.00  0.00    +0.010 C 
BRANCH  16  18
ATOM     18  C   LIG    1        1.116  -0.181  -0.467  0.00  0.00    +0.088 C 
BRANCH  18  19
ATOM     19  N   LIG    1        1.506   0.711  -1.569  0.00  0.00    -0.308 NA
ATOM     20  C   LIG    1        2.007  -0.060  -2.705  0.00  0.00    +0.104 C 
ATOM     21  C   LIG    1        2.554   1.648  -1.163  0.00  0.00    +0.104 C 
ENDBRANCH  18  19
ENDBRANCH  16  18
ENDBRANCH  15  16
ENDBRANCH   8  15
TORSDOF 4
