REMARK  Name = DB01454
REMARK                            x       y       z     vdW  Elec       q    Type
REMARK                         _______ _______ _______ _____ _____    ______ ____
ROOT
ATOM      1  O   LIG    1        6.541   1.195  -2.253  0.00  0.00    -0.453 OA
ATOM      2  C   LIG    1        7.810   0.603  -2.168  0.00  0.00    +0.466 C 
ATOM      3  O   LIG    1        7.702  -0.523  -1.338  0.00  0.00    -0.453 OA
ATOM      4  C   LIG    1        6.370  -0.774  -1.235  0.00  0.00    +0.166 A 
ATOM      5  C   LIG    1        5.731  -1.861  -0.648  0.00  0.00    +0.050 A 
ATOM      6  C   LIG    1        4.329  -1.866  -0.649  0.00  0.00    +0.007 A 
ATOM      7  C   LIG    1        3.602  -0.800  -1.216  0.00  0.00    -0.045 A 
ATOM      8  C   LIG    1        4.280   0.286  -1.794  0.00  0.00    +0.053 A 
ATOM      9  C   LIG    1        5.671   0.261  -1.788  0.00  0.00    +0.166 A 
ENDROOT
BRANCH   7  10
ATOM     10  C   LIG    1        2.079  -0.819  -1.199  0.00  0.00    +0.019 C 
BRANCH  10  11
ATOM     11  C   LIG    1        1.467   0.112  -0.126  0.00  0.00    -0.071 C 
ATOM     12  C   LIG    1        1.770  -0.330   1.322  0.00  0.00    -0.013 C 
BRANCH  11  13
ATOM     13  N   LIG    1       -0.058   0.156  -0.353  0.00  0.00    +0.379 N 
ATOM     14  H   LIG    1       -0.449  -0.749  -0.131  0.00  0.00    -0.086 HD
ATOM     15  H   LIG    1       -0.217   0.321  -1.337  0.00  0.00    -0.086 HD
ATOM     16  C   LIG    1       -0.816   1.241   0.428  0.00  0.00    -0.100 C 
ENDBRANCH  11  13
ENDBRANCH  10  11
ENDBRANCH   7  10
TORSDOF 3
