REMARK  Name = DB01019
REMARK                            x       y       z     vdW  Elec       q    Type
REMARK                         _______ _______ _______ _____ _____    ______ ____
ROOT
ATOM      1  C   LIG    1       -0.648   1.463   0.030  0.00  0.00    +0.159 C 
ATOM      2  C   LIG    1       -2.186   1.368  -0.049  0.00  0.00    +0.050 C 
ENDROOT
BRANCH   1   3
ATOM      3  C   LIG    1       -0.013   0.049   0.111  0.00  0.00    -0.031 C 
BRANCH   3   4
ATOM      4  N   LIG    1        1.545  -0.001   0.012  0.00  0.00    +0.377 N 
ATOM      5  C   LIG    1        2.247   0.603   1.253  0.00  0.00    -0.093 C 
ATOM      6  C   LIG    1        2.057   0.717  -1.261  0.00  0.00    -0.093 C 
ATOM      7  C   LIG    1        1.959  -1.492  -0.077  0.00  0.00    -0.093 C 
ENDBRANCH   3   4
ENDBRANCH   1   3
BRANCH   1   8
ATOM      8  O   LIG    1       -0.274   2.248   1.163  0.00  0.00    -0.449 OA
BRANCH   8   9
ATOM      9  C   LIG    1       -0.296   3.601   1.138  0.00  0.00    +0.398 C 
ATOM     10  O   LIG    1       -0.596   4.291   0.164  0.00  0.00    -0.227 OA
ATOM     11  N   LIG    1        0.076   4.087   2.370  0.00  0.00    -0.295 N 
ATOM     12  H   LIG    1        0.287   3.441   3.116  0.00  0.00    +0.148 HD
ATOM     13  H   LIG    1        0.111   5.085   2.517  0.00  0.00    +0.148 HD
ENDBRANCH   8   9
ENDBRANCH   1   8
TORSDOF 4
