REMARK  Name = DB01083
REMARK                            x       y       z     vdW  Elec       q    Type
REMARK                         _______ _______ _______ _____ _____    ______ ____
ROOT
ATOM      1  C   LIG    1        0.274   0.227  -0.070  0.00  0.00    +0.180 C 
ENDROOT
BRANCH   1   2
ATOM      2  C   LIG    1       -0.254  -0.344   1.265  0.00  0.00    +0.090 C 
BRANCH   2   7
ATOM      3  O   LIG    1       -2.298  -0.900   2.630  0.00  0.00    -0.460 OA
ATOM      4  C   LIG    1       -3.179  -1.634   1.863  0.00  0.00    +0.314 C 
ATOM      5  C   LIG    1       -2.645  -1.101   0.525  0.00  0.00    +0.138 C 
ATOM      6  O   LIG    1       -4.063  -2.389   2.263  0.00  0.00    -0.250 OA
ATOM      7  C   LIG    1       -1.781  -0.196   1.421  0.00  0.00    +0.194 C 
BRANCH   5   8
ATOM      8  C   LIG    1       -3.573  -0.372  -0.464  0.00  0.00    +0.018 C 
BRANCH   8   9
ATOM      9  C   LIG    1       -4.539  -1.322  -1.194  0.00  0.00    +0.001 C 
BRANCH   9  10
ATOM     10  C   LIG    1       -5.461  -0.598  -2.190  0.00  0.00    +0.000 C 
BRANCH  10  11
ATOM     11  C   LIG    1       -6.414  -1.557  -2.926  0.00  0.00    -0.000 C 
BRANCH  11  12
ATOM     12  C   LIG    1       -7.344  -0.838  -3.920  0.00  0.00    -0.003 C 
ATOM     13  C   LIG    1       -8.288  -1.799  -4.656  0.00  0.00    +0.004 C 
ENDBRANCH  11  12
ENDBRANCH  10  11
ENDBRANCH   9  10
ENDBRANCH   8   9
ENDBRANCH   5   8
ENDBRANCH   2   7
ENDBRANCH   1   2
BRANCH   1  14
ATOM     14  C   LIG    1        1.813   0.117  -0.226  0.00  0.00    +0.045 C 
BRANCH  14  15
ATOM     15  C   LIG    1        2.388  -1.314  -0.178  0.00  0.00    +0.004 C 
BRANCH  15  16
ATOM     16  C   LIG    1        1.817  -2.260  -1.252  0.00  0.00    +0.000 C 
BRANCH  16  17
ATOM     17  C   LIG    1        2.442  -3.666  -1.210  0.00  0.00    +0.000 C 
BRANCH  17  18
ATOM     18  C   LIG    1        1.843  -4.615  -2.267  0.00  0.00    +0.000 C 
BRANCH  18  19
ATOM     19  C   LIG    1        2.365  -6.063  -2.188  0.00  0.00    -0.000 C 
BRANCH  19  20
ATOM     20  C   LIG    1        3.858  -6.221  -2.536  0.00  0.00    -0.000 C 
BRANCH  20  21
ATOM     21  C   LIG    1        4.324  -7.687  -2.516  0.00  0.00    -0.000 C 
BRANCH  21  22
ATOM     22  C   LIG    1        5.813  -7.850  -2.869  0.00  0.00    -0.000 C 
BRANCH  22  23
ATOM     23  C   LIG    1        6.283  -9.315  -2.830  0.00  0.00    -0.003 C 
ATOM     24  C   LIG    1        7.768  -9.475  -3.182  0.00  0.00    +0.004 C 
ENDBRANCH  22  23
ENDBRANCH  21  22
ENDBRANCH  20  21
ENDBRANCH  19  20
ENDBRANCH  18  19
ENDBRANCH  17  18
ENDBRANCH  16  17
ENDBRANCH  15  16
ENDBRANCH  14  15
ENDBRANCH   1  14
BRANCH   1  25
ATOM     25  O   LIG    1       -0.139   1.592  -0.158  0.00  0.00    -0.460 OA
BRANCH  25  26
ATOM     26  C   LIG    1       -0.311   2.220  -1.348  0.00  0.00    +0.328 C 
ATOM     27  O   LIG    1       -0.089   1.709  -2.450  0.00  0.00    -0.249 OA
BRANCH  26  28
ATOM     28  C   LIG    1       -0.823   3.644  -1.138  0.00  0.00    +0.182 C 
BRANCH  28  29
ATOM     29  N   LIG    1       -0.784   4.376  -2.418  0.00  0.00    -0.305 N 
ATOM     30  H   LIG    1       -1.668   4.448  -2.900  0.00  0.00    +0.149 HD
ATOM     31  C   LIG    1        0.294   4.981  -2.952  0.00  0.00    +0.326 C 
ATOM     32  O   LIG    1        1.414   4.990  -2.444  0.00  0.00    -0.280 OA
ENDBRANCH  28  29
BRANCH  28  33
ATOM     33  C   LIG    1       -2.278   3.622  -0.591  0.00  0.00    +0.036 C 
BRANCH  33  34
ATOM     34  C   LIG    1       -2.882   5.011  -0.271  0.00  0.00    -0.015 C 
ATOM     35  C   LIG    1       -4.374   4.890   0.106  0.00  0.00    +0.007 C 
ATOM     36  C   LIG    1       -2.069   5.773   0.798  0.00  0.00    +0.007 C 
ENDBRANCH  33  34
ENDBRANCH  28  33
ENDBRANCH  26  28
ENDBRANCH  25  26
ENDBRANCH   1  25
TORSDOF 23
