REMARK  Name = DB01131
REMARK                            x       y       z     vdW  Elec       q    Type
REMARK                         _______ _______ _______ _____ _____    ______ ____
ROOT
ATOM      1  C   LIG    1       -0.706  -1.220  -0.571  0.00  0.00    +0.393 C 
ATOM      2  N   LIG    1       -1.821  -1.013  -1.126  0.00  0.00    -0.129 NA
ATOM      3  H   LIG    1       -1.997  -0.036  -1.307  0.00  0.00    +0.306 HD
ENDROOT
BRANCH   1   4
ATOM      4  N   LIG    1       -0.221  -2.511  -0.200  0.00  0.00    -0.243 N 
ATOM      5  H   LIG    1        0.726  -2.514   0.152  0.00  0.00    +0.265 HD
BRANCH   4   7
ATOM      6  C   LIG    1       -0.119  -4.903  -0.055  0.00  0.00    +0.043 A 
ATOM      7  C   LIG    1       -0.884  -3.734  -0.007  0.00  0.00    +0.100 A 
ATOM      8  C   LIG    1       -2.260  -3.827   0.249  0.00  0.00    +0.043 A 
ATOM      9  C   LIG    1       -2.858  -5.071   0.440  0.00  0.00    +0.023 A 
ATOM     10  C   LIG    1       -2.083  -6.227   0.381  0.00  0.00    +0.041 A 
ATOM     11 CL   LIG    1       -2.824  -7.768   0.619  0.00  0.00    -0.084 Cl
ATOM     12  C   LIG    1       -0.715  -6.147   0.135  0.00  0.00    +0.023 A 
ENDBRANCH   4   7
ENDBRANCH   1   4
BRANCH   1  13
ATOM     13  N   LIG    1        0.161  -0.135  -0.243  0.00  0.00    -0.186 N 
ATOM     14  H   LIG    1       -0.290   0.766  -0.299  0.00  0.00    +0.271 HD
BRANCH  13  15
ATOM     15  C   LIG    1        1.587  -0.056  -0.353  0.00  0.00    +0.388 C 
ATOM     16  N   LIG    1        2.329  -0.980  -0.792  0.00  0.00    -0.129 NA
ATOM     17  H   LIG    1        3.309  -0.735  -0.781  0.00  0.00    +0.306 HD
BRANCH  15  18
ATOM     18  N   LIG    1        2.160   1.166   0.107  0.00  0.00    -0.273 N 
ATOM     19  H   LIG    1        3.148   1.294  -0.055  0.00  0.00    +0.258 HD
BRANCH  18  20
ATOM     20  C   LIG    1        1.410   2.424   0.179  0.00  0.00    +0.139 C 
ATOM     21  C   LIG    1        2.153   3.369   1.136  0.00  0.00    +0.047 C 
ATOM     22  C   LIG    1        1.253   3.036  -1.227  0.00  0.00    +0.047 C 
ENDBRANCH  18  20
ENDBRANCH  15  18
ENDBRANCH  13  15
ENDBRANCH   1  13
TORSDOF 6
