REMARK  Name = DB01590
REMARK                            x       y       z     vdW  Elec       q    Type
REMARK                         _______ _______ _______ _____ _____    ______ ____
ROOT
ATOM      1  N   LIG    1       -0.904  -2.308   3.700  0.00  0.00    -0.282 N 
ATOM      2  C   LIG    1        0.317  -3.138   3.547  0.00  0.00    +0.109 C 
ATOM      3  C   LIG    1        1.095  -3.067   4.873  0.00  0.00    +0.019 C 
ATOM      4  C   LIG    1        1.437  -1.614   5.246  0.00  0.00    +0.004 C 
ATOM      5  C   LIG    1        0.185  -0.712   5.215  0.00  0.00    +0.034 C 
ATOM      6  C   LIG    1       -2.177  -2.800   3.770  0.00  0.00    +0.288 C 
ATOM      7  O   LIG    1       -3.208  -2.128   3.821  0.00  0.00    -0.267 OA
ATOM      8  C   LIG    1       -2.310  -4.371   3.861  0.00  0.00    +0.276 C 
ATOM      9  O   LIG    1       -2.169  -4.899   4.965  0.00  0.00    -0.281 OA
ATOM     10  C   LIG    1       -2.635  -5.203   2.539  0.00  0.00    +0.240 C 
ATOM     11  C   LIG    1       -2.252  -6.712   2.665  0.00  0.00    +0.054 C 
ATOM     12  C   LIG    1       -0.738  -6.999   2.810  0.00  0.00    +0.013 C 
ATOM     13  C   LIG    1       -2.870  -7.530   1.516  0.00  0.00    +0.011 C 
ATOM     14  C   LIG    1       -4.369  -7.256   1.382  0.00  0.00    +0.032 C 
ATOM     15  C   LIG    1       -4.649  -5.741   1.297  0.00  0.00    +0.125 C 
ATOM     16  C   LIG    1       -6.149  -5.362   1.293  0.00  0.00    +0.067 C 
ATOM     17  C   LIG    1       -7.080  -6.000   0.230  0.00  0.00    +0.146 C 
ATOM     18  C   LIG    1       -6.693  -5.745  -1.239  0.00  0.00    -0.044 C 
ATOM     19  C   LIG    1       -5.708  -6.739  -1.860  0.00  0.00    +0.042 C 
ATOM     20  C   LIG    1       -7.280  -4.740  -1.931  0.00  0.00    +0.001 C 
ATOM     21  C   LIG    1       -7.062  -4.413  -3.332  0.00  0.00    +0.000 C 
ATOM     22  C   LIG    1       -7.650  -3.369  -3.943  0.00  0.00    -0.000 C 
ATOM     23  C   LIG    1       -7.433  -3.062  -5.343  0.00  0.00    -0.004 C 
ATOM     24  C   LIG    1       -7.881  -1.938  -5.930  0.00  0.00    -0.024 C 
ATOM     25  C   LIG    1       -7.654  -1.565  -7.387  0.00  0.00    +0.009 C 
ATOM     26  C   LIG    1       -9.000  -1.347  -8.104  0.00  0.00    +0.012 C 
ATOM     27  C   LIG    1       -6.714  -0.342  -7.570  0.00  0.00    +0.018 C 
ATOM     28  C   LIG    1       -5.189  -0.621  -7.446  0.00  0.00    +0.055 C 
ATOM     29  C   LIG    1       -4.332   0.484  -8.101  0.00  0.00    +0.015 C 
ATOM     30  C   LIG    1       -4.722  -0.923  -6.009  0.00  0.00    +0.167 C 
ATOM     31  O   LIG    1       -4.471  -2.080  -5.668  0.00  0.00    -0.294 OA
ATOM     32  C   LIG    1       -4.590   0.251  -5.011  0.00  0.00    +0.216 C 
ATOM     33  C   LIG    1       -5.104  -0.051  -3.569  0.00  0.00    +0.176 C 
ATOM     34  C   LIG    1       -4.719   1.005  -2.528  0.00  0.00    -0.045 C 
ATOM     35  C   LIG    1       -5.212   2.425  -2.810  0.00  0.00    +0.041 C 
ATOM     36  C   LIG    1       -3.943   0.672  -1.472  0.00  0.00    -0.015 C 
ATOM     37  C   LIG    1       -3.423   1.583  -0.367  0.00  0.00    +0.075 C 
ATOM     38  C   LIG    1       -3.670   0.987   1.035  0.00  0.00    +0.020 C 
ATOM     39  C   LIG    1       -1.963   1.971  -0.691  0.00  0.00    +0.143 C 
ATOM     40  O   LIG    1       -1.692   2.555  -1.740  0.00  0.00    -0.297 OA
ATOM     41  C   LIG    1       -0.838   1.633   0.294  0.00  0.00    +0.119 C 
ATOM     42  C   LIG    1       -0.406   0.136   0.258  0.00  0.00    +0.186 C 
ATOM     43  O   LIG    1       -0.683  -0.485   1.525  0.00  0.00    -0.459 OA
ATOM     44  C   LIG    1       -0.083  -0.123   2.695  0.00  0.00    +0.328 C 
ATOM     45  O   LIG    1        0.793   0.737   2.810  0.00  0.00    -0.249 OA
ATOM     46  O   LIG    1       -4.031  -5.061   2.404  0.00  0.00    -0.339 OA
ATOM     47  C   LIG    1       -0.677  -0.853   3.922  0.00  0.00    +0.185 C 
ENDROOT
BRANCH  10  48
ATOM     48  O   LIG    1       -1.946  -4.662   1.471  0.00  0.00    -0.358 OA
ATOM     49  H   LIG    1       -2.234  -3.751   1.369  0.00  0.00    +0.213 HD
ENDBRANCH  10  48
BRANCH  17  50
ATOM     50  O   LIG    1       -7.259  -7.385   0.531  0.00  0.00    -0.375 OA
ATOM     51  C   LIG    1       -8.400  -8.001  -0.058  0.00  0.00    +0.194 C 
ENDBRANCH  17  50
BRANCH  32  52
ATOM     52  O   LIG    1       -3.263   0.802  -5.039  0.00  0.00    -0.369 OA
ATOM     53  C   LIG    1       -2.184  -0.001  -4.562  0.00  0.00    +0.195 C 
ENDBRANCH  32  52
BRANCH  33  54
ATOM     54  O   LIG    1       -6.516  -0.146  -3.576  0.00  0.00    -0.384 OA
ATOM     55  H   LIG    1       -6.808  -0.402  -2.698  0.00  0.00    +0.210 HD
ENDBRANCH  33  54
BRANCH  42  56
ATOM     56  C   LIG    1        1.047  -0.108  -0.258  0.00  0.00    +0.027 C 
ATOM     57  C   LIG    1        1.260   0.461  -1.679  0.00  0.00    +0.011 C 
BRANCH  56  58
ATOM     58  C   LIG    1        1.456  -1.610  -0.214  0.00  0.00    +0.010 C 
BRANCH  58  59
ATOM     59  C   LIG    1        2.974  -1.870  -0.037  0.00  0.00    -0.008 C 
ATOM     60  C   LIG    1        3.327  -3.338  -0.358  0.00  0.00    +0.006 C 
ATOM     61  C   LIG    1        4.848  -3.569  -0.276  0.00  0.00    +0.034 C 
ATOM     62  C   LIG    1        5.410  -3.201   1.120  0.00  0.00    +0.147 C 
ATOM     63  C   LIG    1        4.987  -1.763   1.551  0.00  0.00    +0.147 C 
ATOM     64  C   LIG    1        3.454  -1.582   1.407  0.00  0.00    +0.037 C 
BRANCH  63  65
ATOM     65  O   LIG    1        5.378  -1.524   2.903  0.00  0.00    -0.377 OA
ATOM     66  C   LIG    1        5.395  -0.163   3.317  0.00  0.00    +0.194 C 
ENDBRANCH  63  65
BRANCH  62  67
ATOM     67  O   LIG    1        6.824  -3.401   1.040  0.00  0.00    -0.372 OA
BRANCH  67  68
ATOM     68  C   LIG    1        7.543  -3.446   2.268  0.00  0.00    +0.188 C 
BRANCH  68  69
ATOM     69  C   LIG    1        8.945  -4.007   1.990  0.00  0.00    +0.184 C 
BRANCH  69  70
ATOM     70  O   LIG    1        9.702  -4.077   3.180  0.00  0.00    -0.393 OA
ATOM     71  H   LIG    1       10.569  -4.431   2.971  0.00  0.00    +0.209 HD
ENDBRANCH  69  70
ENDBRANCH  68  69
ENDBRANCH  67  68
ENDBRANCH  62  67
ENDBRANCH  58  59
ENDBRANCH  56  58
ENDBRANCH  42  56
TORSDOF 12
