REMARK  Name = DB01240
REMARK                            x       y       z     vdW  Elec       q    Type
REMARK                         _______ _______ _______ _____ _____    ______ ____
ROOT
ATOM      1  O   LIG    1       -4.337   1.428  -2.878  0.00  0.00    -0.493 OA
ATOM      2  C   LIG    1       -3.047   1.098  -2.374  0.00  0.00    +0.180 C 
ATOM      3  C   LIG    1       -3.271   0.596  -0.946  0.00  0.00    +0.046 C 
ATOM      4  C   LIG    1       -2.318   1.422  -0.038  0.00  0.00    +0.047 C 
ATOM      5  C   LIG    1       -2.090   2.746  -0.799  0.00  0.00    +0.125 C 
ATOM      6  C   LIG    1       -4.753   0.819  -0.667  0.00  0.00    +0.081 C 
ATOM      7  C   LIG    1       -2.118   2.321  -2.275  0.00  0.00    +0.076 C 
ATOM      8  C   LIG    1       -5.317   0.980  -2.058  0.00  0.00    +0.095 C 
ATOM      9  C   LIG    1       -6.552   0.716  -2.520  0.00  0.00    +0.014 C 
ENDROOT
BRANCH   4  10
ATOM     10  C   LIG    1       -0.980   0.753   0.287  0.00  0.00    -0.022 C 
ATOM     11  C   LIG    1       -0.429  -0.319  -0.316  0.00  0.00    -0.000 C 
BRANCH  11  12
ATOM     12  C   LIG    1        0.914  -0.923   0.053  0.00  0.00    +0.137 C 
BRANCH  12  13
ATOM     13  O   LIG    1        0.711  -2.292   0.335  0.00  0.00    -0.388 OA
ATOM     14  H   LIG    1        0.097  -2.364   1.070  0.00  0.00    +0.210 HD
ENDBRANCH  12  13
BRANCH  12  15
ATOM     15  C   LIG    1        1.998  -0.752  -1.036  0.00  0.00    +0.035 C 
BRANCH  15  16
ATOM     16  C   LIG    1        1.683  -1.407  -2.400  0.00  0.00    +0.003 C 
BRANCH  16  17
ATOM     17  C   LIG    1        2.805  -1.206  -3.434  0.00  0.00    -0.000 C 
BRANCH  17  18
ATOM     18  C   LIG    1        2.481  -1.838  -4.799  0.00  0.00    -0.003 C 
ATOM     19  C   LIG    1        3.594  -1.630  -5.835  0.00  0.00    +0.004 C 
ENDBRANCH  17  18
ENDBRANCH  16  17
ENDBRANCH  15  16
ENDBRANCH  12  15
ENDBRANCH  11  12
ENDBRANCH   4  10
BRANCH   5  20
ATOM     20  O   LIG    1       -3.130   3.661  -0.503  0.00  0.00    -0.391 OA
ATOM     21  H   LIG    1       -2.969   4.036   0.366  0.00  0.00    +0.210 HD
ENDBRANCH   5  20
BRANCH   9  22
ATOM     22  C   LIG    1       -7.020   0.902  -3.953  0.00  0.00    +0.031 C 
BRANCH  22  23
ATOM     23  C   LIG    1       -7.327  -0.432  -4.662  0.00  0.00    +0.015 C 
BRANCH  23  24
ATOM     24  C   LIG    1       -7.839  -0.283  -6.114  0.00  0.00    +0.121 C 
BRANCH  24  25
ATOM     25  C   LIG    1       -6.802   0.226  -7.126  0.00  0.00    +0.305 C 
ATOM     26  O   LIG    1       -5.604   0.364  -6.882  0.00  0.00    -0.251 OA
BRANCH  25  27
ATOM     27  O   LIG    1       -7.381   0.483  -8.333  0.00  0.00    -0.481 OA
ATOM     28  H   LIG    1       -6.747   0.799  -8.980  0.00  0.00    +0.295 HD
ENDBRANCH  25  27
ENDBRANCH  24  25
ENDBRANCH  23  24
ENDBRANCH  22  23
ENDBRANCH   9  22
TORSDOF 13
