REMARK  Name = DB01330
REMARK                            x       y       z     vdW  Elec       q    Type
REMARK                         _______ _______ _______ _____ _____    ______ ____
ROOT
ATOM      1  C   LIG    1        0.078   0.673   0.117  0.00  0.00    -0.021 C 
ATOM      2  C   LIG    1       -0.678   1.777  -0.172  0.00  0.00    +0.123 C 
ATOM      3  N   LIG    1       -2.051   1.772  -0.119  0.00  0.00    -0.244 N 
ATOM      4  C   LIG    1       -2.888   0.670   0.419  0.00  0.00    +0.199 C 
ATOM      5  C   LIG    1       -4.120   1.403  -0.250  0.00  0.00    +0.242 C 
ATOM      6  S   LIG    1       -2.234  -0.918  -0.178  0.00  0.00    -0.128 S 
ATOM      7  C   LIG    1       -3.118   2.631  -0.424  0.00  0.00    +0.275 C 
ATOM      8  O   LIG    1       -3.221   3.816  -0.738  0.00  0.00    -0.270 OA
ATOM      9  C   LIG    1       -0.565  -0.668   0.520  0.00  0.00    +0.104 C 
ENDROOT
BRANCH   5  10
ATOM     10  N   LIG    1       -4.615   0.803  -1.480  0.00  0.00    -0.276 N 
ATOM     11  H   LIG    1       -5.475   0.288  -1.364  0.00  0.00    +0.152 HD
ATOM     12  C   LIG    1       -4.029   0.660  -2.691  0.00  0.00    +0.239 C 
ATOM     13  O   LIG    1       -2.912   1.092  -2.983  0.00  0.00    -0.274 OA
BRANCH  12  14
ATOM     14  C   LIG    1       -4.827  -0.150  -3.717  0.00  0.00    +0.200 C 
ATOM     15  S   LIG    1       -4.625   0.427  -5.491  0.00  0.00    -0.093 S 
ATOM     16  C   LIG    1       -4.851  -1.375  -5.678  0.00  0.00    +0.063 C 
ATOM     17  C   LIG    1       -5.359  -2.138  -6.683  0.00  0.00    +0.140 C 
ATOM     18  S   LIG    1       -4.047  -1.809  -4.097  0.00  0.00    -0.093 S 
BRANCH  17  19
ATOM     19  C   LIG    1       -5.904  -1.495  -7.872  0.00  0.00    +0.250 C 
ATOM     20  O   LIG    1       -6.621  -0.496  -7.822  0.00  0.00    -0.270 OA
ATOM     21  N   LIG    1       -5.551  -2.020  -9.053  0.00  0.00    -0.325 N 
ATOM     22  H   LIG    1       -4.965  -2.842  -9.090  0.00  0.00    +0.145 HD
ATOM     23  H   LIG    1       -5.883  -1.605  -9.911  0.00  0.00    +0.145 HD
ENDBRANCH  17  19
BRANCH  17  24
ATOM     24  C   LIG    1       -5.362  -3.586  -6.543  0.00  0.00    +0.343 C 
ATOM     25  O   LIG    1       -4.867  -4.366  -7.356  0.00  0.00    -0.245 OA
BRANCH  24  26
ATOM     26  O   LIG    1       -6.031  -3.998  -5.425  0.00  0.00    -0.477 OA
ATOM     27  H   LIG    1       -6.050  -4.954  -5.343  0.00  0.00    +0.295 HD
ENDBRANCH  24  26
ENDBRANCH  17  24
ENDBRANCH  12  14
ENDBRANCH   5  10
BRANCH   2  28
ATOM     28  C   LIG    1       -0.052   3.033  -0.554  0.00  0.00    +0.351 C 
ATOM     29  O   LIG    1       -0.227   3.591  -1.636  0.00  0.00    -0.244 OA
BRANCH  28  30
ATOM     30  O   LIG    1        0.710   3.556   0.451  0.00  0.00    -0.476 OA
ATOM     31  H   LIG    1        1.104   4.397   0.209  0.00  0.00    +0.295 HD
ENDBRANCH  28  30
ENDBRANCH   2  28
BRANCH   5  32
ATOM     32  O   LIG    1       -5.212   1.631   0.612  0.00  0.00    -0.349 OA
ATOM     33  C   LIG    1       -5.069   2.405   1.804  0.00  0.00    +0.197 C 
ENDBRANCH   5  32
BRANCH   1  34
ATOM     34  C   LIG    1        1.608   0.603   0.030  0.00  0.00    +0.111 C 
BRANCH  34  35
ATOM     35  S   LIG    1        2.425   0.488   1.654  0.00  0.00    -0.080 S 
BRANCH  35  36
ATOM     36  C   LIG    1        2.697  -1.253   1.703  0.00  0.00    +0.209 A 
ATOM     37  N   LIG    1        3.478  -1.996   0.842  0.00  0.00    -0.223 N 
ATOM     38  C   LIG    1        4.255  -1.582  -0.316  0.00  0.00    +0.177 C 
ATOM     39  N   LIG    1        3.436  -3.288   1.182  0.00  0.00    -0.043 NA
ATOM     40  N   LIG    1        2.634  -3.325   2.305  0.00  0.00    -0.022 NA
ATOM     41  N   LIG    1        2.197  -2.043   2.622  0.00  0.00    -0.102 NA
ENDBRANCH  35  36
ENDBRANCH  34  35
ENDBRANCH   1  34
TORSDOF 11
