REMARK  Name = DB01325
REMARK                            x       y       z     vdW  Elec       q    Type
REMARK                         _______ _______ _______ _____ _____    ______ ____
ROOT
ATOM      1 CL   LIG    1        1.565   1.442  -2.267  0.00  0.00    -0.081 Cl
ATOM      2  C   LIG    1        2.389   0.606  -0.996  0.00  0.00    +0.069 A 
ATOM      3  C   LIG    1        3.785   0.601  -1.016  0.00  0.00    +0.045 A 
ATOM      4  C   LIG    1        4.502  -0.067  -0.025  0.00  0.00    +0.042 A 
ATOM      5  C   LIG    1        3.827  -0.691   1.035  0.00  0.00    +0.059 A 
ATOM      6  C   LIG    1        2.427  -0.707   1.042  0.00  0.00    +0.045 A 
ATOM      7  C   LIG    1        4.573  -1.448   2.112  0.00  0.00    +0.247 C 
ATOM      8  N   LIG    1        5.913  -1.259   2.072  0.00  0.00    -0.293 N 
ATOM      9  H   LIG    1        6.470  -1.754   2.754  0.00  0.00    +0.151 HD
ATOM     10  C   LIG    1        6.568  -0.192   1.284  0.00  0.00    +0.158 C 
ATOM     11  O   LIG    1        4.070  -2.231   2.916  0.00  0.00    -0.270 OA
ATOM     12  N   LIG    1        5.907  -0.024  -0.021  0.00  0.00    -0.325 N 
ATOM     13  H   LIG    1        6.433   0.455  -0.737  0.00  0.00    +0.148 HD
ATOM     14  C   LIG    1        1.701  -0.057   0.035  0.00  0.00    +0.124 A 
ENDROOT
BRANCH  14  15
ATOM     15  S   LIG    1       -0.097  -0.094   0.098  0.00  0.00    +0.057 S 
ATOM     16  O   LIG    1       -0.561  -0.604  -1.197  0.00  0.00    -0.153 OA
ATOM     17  O   LIG    1       -0.493  -0.755   1.347  0.00  0.00    -0.153 OA
BRANCH  15  18
ATOM     18  N   LIG    1       -0.585   1.586   0.223  0.00  0.00    -0.203 NA
ATOM     19  H   LIG    1       -0.374   2.150  -0.604  0.00  0.00    +0.144 HD
ATOM     20  H   LIG    1       -0.321   2.040   1.101  0.00  0.00    +0.144 HD
ENDBRANCH  15  18
ENDBRANCH  14  15
BRANCH  10  21
ATOM     21  C   LIG    1        6.652   1.171   2.014  0.00  0.00    +0.038 C 
ATOM     22  C   LIG    1        7.509   2.228   1.297  0.00  0.00    +0.007 C 
ENDBRANCH  10  21
TORSDOF 3
