REMARK  Name = DB01264
REMARK                            x       y       z     vdW  Elec       q    Type
REMARK                         _______ _______ _______ _____ _____    ______ ____
ROOT
ATOM      1  C   LIG    1       -1.744   1.761  -0.553  0.00  0.00    +0.110 C 
ENDROOT
BRANCH   1   2
ATOM      2  N   LIG    1       -1.991   3.207  -0.483  0.00  0.00    -0.275 N 
ATOM      3  H   LIG    1       -2.189   3.699  -1.343  0.00  0.00    +0.152 HD
ATOM      4  C   LIG    1       -1.979   3.929   0.700  0.00  0.00    +0.401 C 
ATOM      5  O   LIG    1       -1.745   3.481   1.826  0.00  0.00    -0.226 OA
BRANCH   4   6
ATOM      6  O   LIG    1       -2.297   5.212   0.428  0.00  0.00    -0.444 OA
BRANCH   6   7
ATOM      7  C   LIG    1       -2.555   6.160   1.465  0.00  0.00    +0.212 C 
ATOM      8  C   LIG    1       -3.945   5.973   2.070  0.00  0.00    +0.090 C 
ATOM      9  C   LIG    1       -5.115   5.785   1.109  0.00  0.00    +0.040 C 
ATOM     10  C   LIG    1       -6.262   6.550   1.753  0.00  0.00    +0.163 C 
ATOM     11  O   LIG    1       -5.606   7.537   2.542  0.00  0.00    -0.351 OA
ATOM     12  C   LIG    1       -4.218   7.383   2.554  0.00  0.00    +0.257 C 
ATOM     13  O   LIG    1       -3.551   8.245   1.675  0.00  0.00    -0.347 OA
ATOM     14  C   LIG    1       -2.558   7.579   0.900  0.00  0.00    +0.208 C 
ENDBRANCH   6   7
ENDBRANCH   4   6
ENDBRANCH   1   2
BRANCH   1  15
ATOM     15  C   LIG    1       -2.474   1.137  -1.772  0.00  0.00    +0.060 C 
BRANCH  15  16
ATOM     16  C   LIG    1       -3.989   1.303  -1.721  0.00  0.00    -0.046 A 
ATOM     17  C   LIG    1       -4.598   2.382  -2.368  0.00  0.00    +0.004 A 
ATOM     18  C   LIG    1       -5.979   2.546  -2.299  0.00  0.00    +0.000 A 
ATOM     19  C   LIG    1       -6.747   1.628  -1.586  0.00  0.00    +0.000 A 
ATOM     20  C   LIG    1       -6.147   0.548  -0.941  0.00  0.00    +0.000 A 
ATOM     21  C   LIG    1       -4.765   0.386  -1.008  0.00  0.00    +0.004 A 
ENDBRANCH  15  16
ENDBRANCH   1  15
BRANCH   1  22
ATOM     22  C   LIG    1       -0.228   1.419  -0.473  0.00  0.00    +0.151 C 
BRANCH  22  23
ATOM     23  O   LIG    1        0.426   1.748  -1.686  0.00  0.00    -0.389 OA
ATOM     24  H   LIG    1        0.262   2.674  -1.880  0.00  0.00    +0.210 HD
ENDBRANCH  22  23
BRANCH  22  25
ATOM     25  C   LIG    1        0.026  -0.041  -0.016  0.00  0.00    +0.142 C 
BRANCH  25  26
ATOM     26  N   LIG    1        1.456  -0.449  -0.085  0.00  0.00    -0.174 NA
BRANCH  26  27
ATOM     27  S   LIG    1        1.937  -1.399  -1.509  0.00  0.00    +0.061 S 
ATOM     28  O   LIG    1        3.404  -1.460  -1.541  0.00  0.00    -0.153 OA
ATOM     29  O   LIG    1        1.192  -0.910  -2.676  0.00  0.00    -0.153 OA
BRANCH  27  30
ATOM     30  C   LIG    1        1.345  -3.055  -1.164  0.00  0.00    +0.106 A 
ATOM     31  C   LIG    1        0.056  -3.428  -1.552  0.00  0.00    +0.030 A 
ATOM     32  C   LIG    1       -0.410  -4.709  -1.268  0.00  0.00    +0.024 A 
ATOM     33  C   LIG    1        0.413  -5.613  -0.597  0.00  0.00    +0.025 A 
ATOM     34  C   LIG    1        1.700  -5.241  -0.205  0.00  0.00    +0.024 A 
ATOM     35  C   LIG    1        2.166  -3.960  -0.487  0.00  0.00    +0.030 A 
BRANCH  33  36
ATOM     36  N   LIG    1       -0.052  -6.896  -0.314  0.00  0.00    -0.358 N 
ATOM     37  H   LIG    1        0.552  -7.550   0.163  0.00  0.00    +0.142 HD
ATOM     38  H   LIG    1       -0.977  -7.167  -0.615  0.00  0.00    +0.142 HD
ENDBRANCH  33  36
ENDBRANCH  27  30
ENDBRANCH  26  27
BRANCH  26  39
ATOM     39  C   LIG    1        2.158  -0.791   1.187  0.00  0.00    +0.112 C 
BRANCH  39  40
ATOM     40  C   LIG    1        2.473   0.402   2.127  0.00  0.00    -0.001 C 
ATOM     41  C   LIG    1        3.218   1.550   1.420  0.00  0.00    +0.008 C 
ATOM     42  C   LIG    1        1.272   0.903   2.954  0.00  0.00    +0.008 C 
ENDBRANCH  39  40
ENDBRANCH  26  39
ENDBRANCH  25  26
ENDBRANCH  22  25
ENDBRANCH   1  22
TORSDOF 14
