REMARK  Name = DB01118
REMARK                            x       y       z     vdW  Elec       q    Type
REMARK                         _______ _______ _______ _____ _____    ______ ____
ROOT
ATOM      1  C   LIG    1       -2.861  -0.309  -0.594  0.00  0.00    +0.025 A 
ATOM      2  C   LIG    1       -1.915   0.677  -0.273  0.00  0.00    +0.029 A 
ATOM      3  C   LIG    1       -0.550   0.437  -0.421  0.00  0.00    +0.057 A 
ATOM      4  C   LIG    1       -0.101  -0.805  -0.882  0.00  0.00    +0.147 A 
ATOM      5  C   LIG    1       -1.031  -1.811  -1.167  0.00  0.00    +0.057 A 
ATOM      6  I   LIG    1       -0.417  -3.707  -1.811  0.00  0.00    -0.040 I 
ATOM      7  I   LIG    1        0.804   1.959   0.064  0.00  0.00    -0.040 I 
ATOM      8  C   LIG    1       -2.396  -1.562  -1.019  0.00  0.00    +0.029 A 
ENDROOT
BRANCH   1   9
ATOM      9  C   LIG    1       -4.337  -0.083  -0.426  0.00  0.00    +0.197 C 
ATOM     10  O   LIG    1       -5.124  -1.029  -0.368  0.00  0.00    -0.287 OA
BRANCH   9  11
ATOM     11  C   LIG    1       -4.869   1.280  -0.336  0.00  0.00    +0.071 A 
ATOM     12  C   LIG    1       -5.877   1.731   0.523  0.00  0.00    +0.117 A 
ATOM     13  O   LIG    1       -6.127   3.060   0.341  0.00  0.00    -0.459 OA
ATOM     14  C   LIG    1       -5.302   3.481  -0.657  0.00  0.00    +0.136 A 
ATOM     15  C   LIG    1       -5.241   4.781  -1.171  0.00  0.00    +0.047 A 
ATOM     16  C   LIG    1       -4.341   5.008  -2.212  0.00  0.00    +0.004 A 
ATOM     17  C   LIG    1       -3.544   3.980  -2.716  0.00  0.00    +0.001 A 
ATOM     18  C   LIG    1       -3.612   2.685  -2.196  0.00  0.00    +0.012 A 
ATOM     19  C   LIG    1       -4.500   2.420  -1.136  0.00  0.00    +0.031 A 
BRANCH  12  20
ATOM     20  C   LIG    1       -6.712   1.067   1.602  0.00  0.00    +0.075 C 
BRANCH  20  21
ATOM     21  C   LIG    1       -6.413   1.631   3.003  0.00  0.00    +0.007 C 
BRANCH  21  22
ATOM     22  C   LIG    1       -7.248   0.960   4.108  0.00  0.00    -0.003 C 
ATOM     23  C   LIG    1       -6.956   1.524   5.505  0.00  0.00    +0.004 C 
ENDBRANCH  21  22
ENDBRANCH  20  21
ENDBRANCH  12  20
ENDBRANCH   9  11
ENDBRANCH   1   9
BRANCH   4  24
ATOM     24  O   LIG    1        1.246  -1.037  -1.024  0.00  0.00    -0.489 OA
BRANCH  24  25
ATOM     25  C   LIG    1        1.775  -0.740  -2.314  0.00  0.00    +0.244 C 
BRANCH  25  26
ATOM     26  C   LIG    1        3.264  -0.335  -2.243  0.00  0.00    +0.125 C 
BRANCH  26  27
ATOM     27  N   LIG    1        4.179  -1.448  -1.948  0.00  0.00    -0.300 NA
BRANCH  27  28
ATOM     28  C   LIG    1        5.557  -1.071  -2.288  0.00  0.00    +0.081 C 
ATOM     29  C   LIG    1        6.510  -2.280  -2.323  0.00  0.00    +0.020 C 
ENDBRANCH  27  28
BRANCH  27  30
ATOM     30  C   LIG    1        4.065  -1.928  -0.561  0.00  0.00    +0.081 C 
ATOM     31  C   LIG    1        3.540  -3.370  -0.548  0.00  0.00    +0.020 C 
ENDBRANCH  27  30
ENDBRANCH  26  27
ENDBRANCH  25  26
ENDBRANCH  24  25
ENDBRANCH   4  24
TORSDOF 11
