REMARK  Name = DB01174
REMARK                            x       y       z     vdW  Elec       q    Type
REMARK                         _______ _______ _______ _____ _____    ______ ____
ROOT
ATOM      1  C   LIG    1        0.059  -0.053  -0.026  0.00  0.00    +0.148 C 
ATOM      2  C   LIG    1       -0.343  -0.806  -1.353  0.00  0.00    +0.240 C 
ATOM      3  O   LIG    1        0.197  -0.632  -2.446  0.00  0.00    -0.274 OA
ATOM      4  N   LIG    1       -1.399  -1.639  -1.207  0.00  0.00    -0.239 N 
ATOM      5  H   LIG    1       -1.721  -2.072  -2.061  0.00  0.00    +0.159 HD
ATOM      6  C   LIG    1       -2.054  -2.032  -0.086  0.00  0.00    +0.312 C 
ATOM      7  O   LIG    1       -3.010  -2.803  -0.117  0.00  0.00    -0.252 OA
ATOM      8  N   LIG    1       -1.554  -1.538   1.073  0.00  0.00    -0.239 N 
ATOM      9  H   LIG    1       -1.986  -1.902   1.910  0.00  0.00    +0.159 HD
ATOM     10  C   LIG    1       -0.508  -0.707   1.288  0.00  0.00    +0.240 C 
ATOM     11  O   LIG    1       -0.090  -0.479   2.423  0.00  0.00    -0.274 OA
ENDROOT
BRANCH   1  12
ATOM     12  C   LIG    1       -0.474   1.423  -0.042  0.00  0.00    -0.024 A 
ATOM     13  C   LIG    1       -0.014   2.335   0.927  0.00  0.00    +0.005 A 
ATOM     14  C   LIG    1       -0.476   3.647   0.968  0.00  0.00    +0.000 A 
ATOM     15  C   LIG    1       -1.420   4.075   0.042  0.00  0.00    +0.000 A 
ATOM     16  C   LIG    1       -1.910   3.196  -0.916  0.00  0.00    +0.000 A 
ATOM     17  C   LIG    1       -1.448   1.883  -0.954  0.00  0.00    +0.005 A 
ENDBRANCH   1  12
BRANCH   1  18
ATOM     18  C   LIG    1        1.634  -0.080   0.047  0.00  0.00    +0.027 C 
ATOM     19  C   LIG    1        2.324  -1.465   0.059  0.00  0.00    +0.006 C 
ENDBRANCH   1  18
TORSDOF 2
