REMARK  Name = DB01018
REMARK                            x       y       z     vdW  Elec       q    Type
REMARK                         _______ _______ _______ _____ _____    ______ ____
ROOT
ATOM      1  C   LIG    1        1.705   0.007   0.086  0.00  0.00    +0.280 C 
ATOM      2  O   LIG    1        2.385   0.934   0.537  0.00  0.00    -0.257 OA
ATOM      3  N   LIG    1        2.195  -1.082  -0.550  0.00  0.00    -0.175 N 
ATOM      4  H   LIG    1        1.512  -1.764  -0.843  0.00  0.00    +0.254 HD
ENDROOT
BRANCH   3   5
ATOM      5  C   LIG    1        3.491  -1.369  -0.842  0.00  0.00    +0.375 C 
ATOM      6  N   LIG    1        4.555  -0.727  -0.607  0.00  0.00    -0.131 NA
ATOM      7  H   LIG    1        5.384  -1.196  -0.942  0.00  0.00    +0.306 HD
BRANCH   5   8
ATOM      8  N   LIG    1        3.527  -2.612  -1.507  0.00  0.00    -0.291 N 
ATOM      9  H   LIG    1        2.837  -2.761  -2.228  0.00  0.00    +0.254 HD
ATOM     10  H   LIG    1        4.431  -2.921  -1.835  0.00  0.00    +0.254 HD
ENDBRANCH   5   8
ENDBRANCH   3   5
BRANCH   1  11
ATOM     11  C   LIG    1        0.176   0.031   0.261  0.00  0.00    +0.152 C 
BRANCH  11  12
ATOM     12  C   LIG    1       -0.437   1.437   0.136  0.00  0.00    -0.001 A 
ATOM     13  C   LIG    1       -0.981   2.094   1.258  0.00  0.00    +0.046 A 
ATOM     14 CL   LIG    1       -0.974   1.388   2.839  0.00  0.00    -0.083 Cl
ATOM     15  C   LIG    1       -1.539   3.367   1.125  0.00  0.00    +0.020 A 
ATOM     16  C   LIG    1       -1.568   3.999  -0.114  0.00  0.00    +0.003 A 
ATOM     17  C   LIG    1       -1.042   3.358  -1.231  0.00  0.00    +0.020 A 
ATOM     18  C   LIG    1       -0.484   2.084  -1.116  0.00  0.00    +0.046 A 
ATOM     19 CL   LIG    1        0.118   1.336  -2.558  0.00  0.00    -0.083 Cl
ENDBRANCH  11  12
ENDBRANCH   1  11
TORSDOF 4
