REMARK  Name = DB01144
REMARK                            x       y       z     vdW  Elec       q    Type
REMARK                         _______ _______ _______ _____ _____    ______ ____
ROOT
ATOM      1 CL   LIG    1        1.504   1.412  -2.242  0.00  0.00    -0.080 Cl
ATOM      2  C   LIG    1        2.406   0.625  -0.985  0.00  0.00    +0.086 A 
ATOM      3  C   LIG    1        3.808   0.646  -1.028  0.00  0.00    +0.063 A 
ATOM      4  C   LIG    1        4.550   0.016  -0.030  0.00  0.00    +0.050 A 
ATOM      5  C   LIG    1        3.906  -0.639   1.020  0.00  0.00    +0.108 A 
ATOM      6  C   LIG    1        2.512  -0.662   1.068  0.00  0.00    +0.058 A 
ATOM      7 CL   LIG    1        4.661   1.444  -2.306  0.00  0.00    -0.082 Cl
ATOM      8  C   LIG    1        1.753  -0.033   0.074  0.00  0.00    +0.126 A 
ENDROOT
BRANCH   5   9
ATOM      9  S   LIG    1        4.867  -1.445   2.296  0.00  0.00    +0.056 S 
ATOM     10  O   LIG    1        4.006  -2.446   2.936  0.00  0.00    -0.153 OA
ATOM     11  O   LIG    1        6.154  -1.825   1.702  0.00  0.00    -0.153 OA
BRANCH   9  12
ATOM     12  N   LIG    1        5.177  -0.180   3.470  0.00  0.00    -0.204 NA
ATOM     13  H   LIG    1        4.346   0.156   3.964  0.00  0.00    +0.144 HD
ATOM     14  H   LIG    1        5.785   0.572   3.137  0.00  0.00    +0.144 HD
ENDBRANCH   9  12
ENDBRANCH   5   9
BRANCH   8  15
ATOM     15  S   LIG    1       -0.042  -0.099   0.191  0.00  0.00    +0.057 S 
ATOM     16  O   LIG    1       -0.533  -0.660  -1.072  0.00  0.00    -0.153 OA
ATOM     17  O   LIG    1       -0.389  -0.729   1.471  0.00  0.00    -0.153 OA
BRANCH  15  18
ATOM     18  N   LIG    1       -0.562   1.574   0.277  0.00  0.00    -0.203 NA
ATOM     19  H   LIG    1       -0.285   2.063   1.133  0.00  0.00    +0.144 HD
ATOM     20  H   LIG    1       -0.387   2.116  -0.573  0.00  0.00    +0.144 HD
ENDBRANCH  15  18
ENDBRANCH   8  15
TORSDOF 4
