REMARK  Name = DB01087
REMARK                            x       y       z     vdW  Elec       q    Type
REMARK                         _______ _______ _______ _____ _____    ______ ____
ROOT
ATOM      1  C   LIG    1       -0.871   3.765   0.113  0.00  0.00    +0.123 A 
ATOM      2  C   LIG    1       -2.269   3.731   0.127  0.00  0.00    +0.055 A 
ATOM      3  C   LIG    1       -2.959   2.500   0.065  0.00  0.00    +0.006 A 
ATOM      4  C   LIG    1       -4.376   2.436   0.076  0.00  0.00    +0.011 A 
ATOM      5  C   LIG    1       -5.008   1.198   0.013  0.00  0.00    +0.020 A 
ATOM      6  C   LIG    1       -4.226   0.052  -0.059  0.00  0.00    +0.111 A 
ATOM      7  N   LIG    1       -2.871   0.072  -0.071  0.00  0.00    -0.253 NA
ATOM      8  C   LIG    1       -2.222   1.277  -0.010  0.00  0.00    +0.092 A 
ATOM      9  C   LIG    1       -0.791   1.320  -0.023  0.00  0.00    +0.057 A 
ATOM     10  C   LIG    1       -0.161   2.571   0.037  0.00  0.00    +0.070 A 
ENDROOT
BRANCH   1  11
ATOM     11  O   LIG    1       -0.120   4.924   0.169  0.00  0.00    -0.495 OA
ATOM     12  C   LIG    1       -0.785   6.180   0.256  0.00  0.00    +0.277 C 
ENDBRANCH   1  11
BRANCH   9  13
ATOM     13  N   LIG    1       -0.047   0.122  -0.099  0.00  0.00    -0.340 N 
ATOM     14  H   LIG    1       -0.558  -0.747  -0.160  0.00  0.00    +0.146 HD
BRANCH  13  15
ATOM     15  C   LIG    1        1.414   0.047  -0.123  0.00  0.00    +0.067 C 
ATOM     16  C   LIG    1        2.014   0.228   1.285  0.00  0.00    +0.028 C 
BRANCH  15  17
ATOM     17  C   LIG    1        1.900  -1.272  -0.764  0.00  0.00    +0.023 C 
BRANCH  17  18
ATOM     18  C   LIG    1        1.527  -1.426  -2.252  0.00  0.00    +0.017 C 
BRANCH  18  19
ATOM     19  C   LIG    1        2.079  -2.723  -2.865  0.00  0.00    +0.078 C 
BRANCH  19  20
ATOM     20  N   LIG    1        1.710  -2.816  -4.264  0.00  0.00    -0.330 NA
ATOM     21  H   LIG    1        2.093  -3.663  -4.662  0.00  0.00    +0.118 HD
ATOM     22  H   LIG    1        2.122  -2.048  -4.775  0.00  0.00    +0.118 HD
ENDBRANCH  19  20
ENDBRANCH  18  19
ENDBRANCH  17  18
ENDBRANCH  15  17
ENDBRANCH  13  15
ENDBRANCH   9  13
TORSDOF 7
