REMARK  Name = DB01155
REMARK                            x       y       z     vdW  Elec       q    Type
REMARK                         _______ _______ _______ _____ _____    ______ ____
ROOT
ATOM      1  C   LIG    1        3.683   0.121  -1.243  0.00  0.00    +0.147 A 
ATOM      2  N   LIG    1        2.345   0.365  -1.243  0.00  0.00    -0.211 NA
ATOM      3  C   LIG    1        1.655   0.295  -0.076  0.00  0.00    +0.159 A 
ATOM      4  C   LIG    1        2.281  -0.019   1.132  0.00  0.00    +0.164 A 
ATOM      5  F   LIG    1        1.583  -0.082   2.291  0.00  0.00    -0.202 F 
ATOM      6  C   LIG    1        3.653  -0.275   1.130  0.00  0.00    +0.057 A 
ATOM      7  N   LIG    1        4.388   0.186  -2.471  0.00  0.00    -0.328 N 
ATOM      8  C   LIG    1        5.738  -0.121  -2.495  0.00  0.00    +0.106 A 
ATOM      9  C   LIG    1        6.497  -0.450  -1.418  0.00  0.00    +0.122 A 
ATOM     10  C   LIG    1        5.866  -0.525  -0.068  0.00  0.00    +0.205 A 
ATOM     11  O   LIG    1        6.450  -0.827   0.976  0.00  0.00    -0.286 OA
ATOM     12  C   LIG    1        4.389  -0.216  -0.066  0.00  0.00    +0.068 A 
ENDROOT
BRANCH   3  13
ATOM     13  N   LIG    1        0.281   0.558  -0.136  0.00  0.00    -0.307 N 
ATOM     14  C   LIG    1       -0.215   1.906  -0.356  0.00  0.00    +0.117 C 
ATOM     15  C   LIG    1       -0.626   2.031  -1.824  0.00  0.00    +0.069 C 
ATOM     16  C   LIG    1       -0.878   0.591  -2.236  0.00  0.00    +0.080 C 
ATOM     17  N   LIG    1       -1.271   0.209  -3.384  0.00  0.00    -0.092 NA
ATOM     18  C   LIG    1       -0.610  -0.242  -0.979  0.00  0.00    +0.161 C 
BRANCH  17  19
ATOM     19  O   LIG    1       -1.424  -1.187  -3.420  0.00  0.00    -0.397 OA
ATOM     20  C   LIG    1       -1.801  -1.573  -4.731  0.00  0.00    +0.313 C 
ENDBRANCH  17  19
BRANCH  15  21
ATOM     21  C   LIG    1       -1.750   3.058  -2.110  0.00  0.00    +0.088 C 
BRANCH  21  22
ATOM     22  N   LIG    1       -3.000   2.745  -1.436  0.00  0.00    -0.329 NA
ATOM     23  H   LIG    1       -3.345   1.853  -1.762  0.00  0.00    +0.118 HD
ATOM     24  H   LIG    1       -3.700   3.430  -1.683  0.00  0.00    +0.118 HD
ENDBRANCH  21  22
ENDBRANCH  15  21
ENDBRANCH   3  13
BRANCH   7  25
ATOM     25  C   LIG    1        3.716   0.399  -3.760  0.00  0.00    +0.089 C 
ATOM     26  C   LIG    1        2.883   1.661  -3.942  0.00  0.00    +0.027 C 
ATOM     27  C   LIG    1        4.205   1.540  -4.638  0.00  0.00    +0.027 C 
ENDBRANCH   7  25
BRANCH   9  28
ATOM     28  C   LIG    1        7.907  -0.733  -1.652  0.00  0.00    +0.342 C 
ATOM     29  O   LIG    1        8.346  -1.246  -2.682  0.00  0.00    -0.245 OA
BRANCH  28  30
ATOM     30  O   LIG    1        8.720  -0.334  -0.629  0.00  0.00    -0.477 OA
ATOM     31  H   LIG    1        9.645  -0.518  -0.807  0.00  0.00    +0.295 HD
ENDBRANCH  28  30
ENDBRANCH   9  28
TORSDOF 7
