REMARK  Name = DB01253
REMARK                            x       y       z     vdW  Elec       q    Type
REMARK                         _______ _______ _______ _____ _____    ______ ____
ROOT
ATOM      1  C   UNK A  0       -2.260   0.740   0.292  0.00  0.00    +0.112 C 
ATOM      2  C   UNK A  0       -2.952   1.844  -0.499  0.00  0.00    -0.007 C 
ATOM      3  C   UNK A  0       -3.740   2.777   0.072  0.00  0.00    -0.025 C 
ATOM      4  C   UNK A  0       -4.495   3.800  -0.684  0.00  0.00    -0.011 A 
ATOM      5  C   UNK A  0       -4.186   4.292  -1.958  0.00  0.00    +0.009 A 
ATOM      6  C   UNK A  0       -4.997   5.252  -2.578  0.00  0.00    +0.003 A 
ATOM      7  C   UNK A  0       -6.159   5.759  -1.974  0.00  0.00    +0.026 A 
ATOM      8  C   UNK A  0       -6.486   5.244  -0.714  0.00  0.00    +0.047 A 
ATOM      9  N   UNK A  0       -7.512   5.456   0.190  0.00  0.00    -0.360 N 
ATOM     10  H   UNK A  0       -8.293   6.088   0.095  0.00  0.00    +0.165 HD
ATOM     11  C   UNK A  0       -7.345   4.647   1.302  0.00  0.00    +0.087 A 
ATOM     12  C   UNK A  0       -6.204   3.876   1.153  0.00  0.00    -0.020 A 
ATOM     13  C   UNK A  0       -5.470   2.784   1.938  0.00  0.00    +0.061 C 
ATOM     14  C   UNK A  0       -5.668   4.278  -0.104  0.00  0.00    +0.010 A 
ATOM     15  C   UNK A  0       -3.933   2.850   1.607  0.00  0.00    +0.091 C 
ATOM     16  N   UNK A  0       -3.052   1.940   2.369  0.00  0.00    -0.297 NA
ATOM     17  C   UNK A  0       -3.346   1.834   3.794  0.00  0.00    +0.105 C 
ATOM     18  C   UNK A  0       -2.854   0.633   1.734  0.00  0.00    +0.101 C 
ENDROOT
BRANCH   1  20
ATOM     19  O   UNK A  0       -0.237   1.899   0.919  0.00  0.00    -0.275 OA
ATOM     20  C   UNK A  0       -0.729   0.928   0.340  0.00  0.00    +0.221 C 
ATOM     21  N   ALA A  1        0.014  -0.001  -0.293  0.00  0.00    -0.310 N 
ATOM     22  H   ALA A  1       -0.466  -0.737  -0.790  0.00  0.00    +0.149 HD
BRANCH  21  23
ATOM     23  CA  ALA A  1        1.478  -0.014  -0.394  0.00  0.00    +0.095 C 
ATOM     24  CB  ALA A  1        2.157  -0.344   0.951  0.00  0.00    +0.030 C 
BRANCH  23  25
ATOM     25  C   ALA A  1        1.982  -0.949  -1.518  0.00  0.00    +0.177 C 
BRANCH  25  26
ATOM     26  O   ALA A  1        1.333  -0.697  -2.750  0.00  0.00    -0.393 OA
ATOM     27  H   ALA A  1        1.687  -1.297  -3.411  0.00  0.00    +0.209 HD
ENDBRANCH  25  26
ENDBRANCH  23  25
ENDBRANCH  21  23
ENDBRANCH   1  20
TORSDOF 4
