REMARK  Name = DB01185
REMARK                            x       y       z     vdW  Elec       q    Type
REMARK                         _______ _______ _______ _____ _____    ______ ____
ROOT
ATOM      1  F   LIG    1        4.803  -2.876  -1.260  0.00  0.00    -0.238 F 
ATOM      2  C   LIG    1        4.034  -3.543  -0.388  0.00  0.00    +0.149 C 
ATOM      3  C   LIG    1        2.640  -3.617  -1.127  0.00  0.00    +0.153 C 
ATOM      4  C   LIG    1        1.965  -2.220  -1.271  0.00  0.00    +0.044 C 
ATOM      5  C   LIG    1        1.848  -1.435   0.071  0.00  0.00    +0.002 C 
ATOM      6  C   LIG    1        0.892  -2.168   1.073  0.00  0.00    +0.014 C 
ATOM      7  C   LIG    1        1.420   0.075  -0.030  0.00  0.00    +0.069 C 
ATOM      8  C   LIG    1        1.893   0.810  -1.314  0.00  0.00    +0.042 C 
ATOM      9  C   LIG    1        2.056   0.717   1.237  0.00  0.00    +0.035 C 
ATOM     10  C   LIG    1        3.194  -0.212   1.703  0.00  0.00    +0.007 C 
ATOM     11  C   LIG    1        3.291  -1.279   0.607  0.00  0.00    +0.004 C 
ATOM     12  C   LIG    1        4.777  -4.927  -0.123  0.00  0.00    +0.026 C 
ATOM     13  C   LIG    1        4.034  -5.844   0.897  0.00  0.00    +0.019 C 
ATOM     14  C   LIG    1        4.980  -5.786  -1.423  0.00  0.00    +0.022 C 
ATOM     15  C   LIG    1        6.192  -5.420  -2.301  0.00  0.00    +0.080 C 
ATOM     16  C   LIG    1        7.475  -5.394  -1.466  0.00  0.00    +0.156 C 
ATOM     17  C   LIG    1        7.345  -4.800  -0.145  0.00  0.00    +0.046 C 
ATOM     18  O   LIG    1        8.566  -5.732  -1.921  0.00  0.00    -0.293 OA
ATOM     19  C   LIG    1        6.167  -4.567   0.479  0.00  0.00    -0.057 C 
ATOM     20  C   LIG    1        6.104  -3.799   1.798  0.00  0.00    +0.032 C 
ATOM     21  C   LIG    1        5.382  -2.463   1.542  0.00  0.00    +0.011 C 
ATOM     22  C   LIG    1        3.980  -2.642   0.908  0.00  0.00    +0.034 C 
ENDROOT
BRANCH   7  23
ATOM     23  O   LIG    1        0.017   0.289  -0.071  0.00  0.00    -0.388 OA
ATOM     24  H   LIG    1       -0.146   1.235  -0.091  0.00  0.00    +0.210 HD
ENDBRANCH   7  23
BRANCH   3  25
ATOM     25  O   LIG    1        1.739  -4.564  -0.589  0.00  0.00    -0.389 OA
ATOM     26  H   LIG    1        2.155  -5.429  -0.618  0.00  0.00    +0.210 HD
ENDBRANCH   3  25
TORSDOF 2
