REMARK  Name = DB01197
REMARK                            x       y       z     vdW  Elec       q    Type
REMARK                         _______ _______ _______ _____ _____    ______ ____
ROOT
ATOM      1  C   LIG    1        0.053   0.100  -0.083  0.00  0.00    +0.220 C 
ATOM      2  N   LIG    1       -0.470   1.351  -0.043  0.00  0.00    -0.288 N 
ATOM      3  C   LIG    1        0.300   2.596   0.010  0.00  0.00    +0.109 C 
ATOM      4  C   LIG    1       -0.717   3.705  -0.231  0.00  0.00    +0.021 C 
ATOM      5  C   LIG    1       -2.002   3.110   0.319  0.00  0.00    +0.035 C 
ATOM      6  C   LIG    1       -1.924   1.618  -0.051  0.00  0.00    +0.184 C 
ATOM      7  O   LIG    1       -0.668  -0.900  -0.121  0.00  0.00    -0.275 OA
ENDROOT
BRANCH   1   8
ATOM      8  C   LIG    1        1.591  -0.086  -0.092  0.00  0.00    +0.082 C 
ATOM      9  C   LIG    1        2.102  -0.149  -1.550  0.00  0.00    +0.018 C 
BRANCH   8  10
ATOM     10  C   LIG    1        2.022  -1.325   0.739  0.00  0.00    +0.078 C 
BRANCH  10  11
ATOM     11  S   LIG    1        3.818  -1.356   1.013  0.00  0.00    -0.178 S 
ATOM     12  H   LIG    1        3.830  -2.484   1.730  0.00  0.00    +0.102 HD
ENDBRANCH  10  11
ENDBRANCH   8  10
ENDBRANCH   1   8
BRANCH   6  13
ATOM     13  C   LIG    1       -2.595   1.324  -1.411  0.00  0.00    +0.325 C 
ATOM     14  O   LIG    1       -2.001   1.221  -2.466  0.00  0.00    -0.249 OA
BRANCH  13  15
ATOM     15  O   LIG    1       -3.947   1.243  -1.239  0.00  0.00    -0.479 OA
ATOM     16  H   LIG    1       -4.408   1.067  -2.063  0.00  0.00    +0.295 HD
ENDBRANCH  13  15
ENDBRANCH   6  13
TORSDOF 5
