REMARK  Name = DB01380
REMARK                            x       y       z     vdW  Elec       q    Type
REMARK                         _______ _______ _______ _____ _____    ______ ____
ROOT
ATOM      1  C   LIG    1       -5.215  -1.853   6.392  0.00  0.00    +0.080 C 
ATOM      2  C   LIG    1       -4.035  -1.357   5.535  0.00  0.00    +0.019 C 
ATOM      3  C   LIG    1       -3.697  -2.228   4.273  0.00  0.00    -0.001 C 
ATOM      4  C   LIG    1       -2.861  -1.370   3.228  0.00  0.00    +0.069 C 
ATOM      5  C   LIG    1       -1.484  -0.823   3.734  0.00  0.00    +0.138 C 
ATOM      6  O   LIG    1       -1.053  -0.985   4.874  0.00  0.00    -0.297 OA
ATOM      7  C   LIG    1       -0.652  -0.059   2.682  0.00  0.00    +0.084 C 
ATOM      8  C   LIG    1       -0.505  -0.846   1.347  0.00  0.00    +0.013 C 
ATOM      9  C   LIG    1       -1.937  -1.154   0.840  0.00  0.00    +0.002 C 
ATOM     10  C   LIG    1       -1.768  -1.574  -0.628  0.00  0.00    +0.008 C 
ATOM     11  C   LIG    1       -0.490  -0.849  -1.105  0.00  0.00    +0.043 C 
ATOM     12  C   LIG    1        0.329  -2.153   1.603  0.00  0.00    +0.015 C 
ATOM     13  C   LIG    1        0.034  -0.028   0.114  0.00  0.00    +0.133 C 
ATOM     14  C   LIG    1       -2.746  -2.044   1.816  0.00  0.00    +0.004 C 
ATOM     15  C   LIG    1       -4.157  -2.347   1.285  0.00  0.00    +0.009 C 
ATOM     16  C   LIG    1       -4.902  -3.308   2.216  0.00  0.00    +0.032 C 
ATOM     17  C   LIG    1       -5.032  -2.678   3.603  0.00  0.00    -0.060 C 
ATOM     18  C   LIG    1       -6.243  -2.575   4.202  0.00  0.00    +0.046 C 
ATOM     19  C   LIG    1       -2.950  -3.516   4.724  0.00  0.00    +0.016 C 
ATOM     20  C   LIG    1       -6.469  -2.048   5.538  0.00  0.00    +0.156 C 
ATOM     21  O   LIG    1       -7.602  -1.877   5.983  0.00  0.00    -0.293 OA
ENDROOT
BRANCH  13  22
ATOM     22  O   LIG    1       -0.488   1.297   0.056  0.00  0.00    -0.380 OA
ATOM     23  H   LIG    1       -1.442   1.244  -0.027  0.00  0.00    +0.211 HD
ENDBRANCH  13  22
BRANCH  13  24
ATOM     24  C   LIG    1        1.587   0.131   0.117  0.00  0.00    +0.202 C 
ATOM     25  O   LIG    1        2.312  -0.662  -0.491  0.00  0.00    -0.291 OA
BRANCH  24  26
ATOM     26  C   LIG    1        2.202   1.310   0.895  0.00  0.00    +0.309 C 
BRANCH  26  27
ATOM     27  O   LIG    1        3.618   1.182   0.992  0.00  0.00    -0.457 OA
BRANCH  27  28
ATOM     28  C   LIG    1        4.343   2.084   1.684  0.00  0.00    +0.304 C 
ATOM     29  O   LIG    1        3.905   3.068   2.283  0.00  0.00    -0.251 OA
ATOM     30  C   LIG    1        5.833   1.767   1.663  0.00  0.00    +0.136 C 
ENDBRANCH  27  28
ENDBRANCH  26  27
ENDBRANCH  24  26
ENDBRANCH  13  24
TORSDOF 5
