REMARK  Name = DB01297
REMARK                            x       y       z     vdW  Elec       q    Type
REMARK                         _______ _______ _______ _____ _____    ______ ____
ROOT
ATOM      1  C   LIG    1        6.313  -1.710  -0.094  0.00  0.00    +0.034 A 
ATOM      2  C   LIG    1        5.845  -0.388  -0.062  0.00  0.00    +0.027 A 
ATOM      3  C   LIG    1        4.477  -0.132  -0.030  0.00  0.00    +0.047 A 
ATOM      4  C   LIG    1        3.556  -1.191  -0.024  0.00  0.00    +0.121 A 
ATOM      5  C   LIG    1        4.029  -2.503  -0.049  0.00  0.00    +0.047 A 
ATOM      6  C   LIG    1        5.396  -2.763  -0.079  0.00  0.00    +0.027 A 
ENDROOT
BRANCH   1  10
ATOM      7  C   LIG    1        8.756  -1.321  -0.398  0.00  0.00    +0.214 C 
ATOM      8  C   LIG    1       10.101  -2.034  -0.297  0.00  0.00    +0.109 C 
ATOM      9  O   LIG    1        8.735  -0.140  -0.743  0.00  0.00    -0.276 OA
ATOM     10  N   LIG    1        7.673  -2.075  -0.111  0.00  0.00    -0.286 N 
ATOM     11  H   LIG    1        7.845  -3.052   0.076  0.00  0.00    +0.155 HD
ENDBRANCH   1  10
BRANCH   4  12
ATOM     12  O   LIG    1        2.184  -1.032   0.011  0.00  0.00    -0.489 OA
BRANCH  12  13
ATOM     13  C   LIG    1        1.632   0.282   0.076  0.00  0.00    +0.261 C 
BRANCH  13  14
ATOM     14  C   LIG    1        0.093   0.192   0.140  0.00  0.00    +0.166 C 
BRANCH  14  15
ATOM     15  O   LIG    1       -0.275  -0.400   1.372  0.00  0.00    -0.387 OA
ATOM     16  H   LIG    1        0.183  -1.241   1.452  0.00  0.00    +0.210 HD
ENDBRANCH  14  15
BRANCH  14  17
ATOM     17  C   LIG    1       -0.618   1.559   0.053  0.00  0.00    +0.115 C 
BRANCH  17  18
ATOM     18  N   LIG    1       -0.429   2.159  -1.265  0.00  0.00    -0.311 NA
ATOM     19  H   LIG    1       -0.681   1.500  -1.989  0.00  0.00    +0.122 HD
BRANCH  18  20
ATOM     20  C   LIG    1       -1.154   3.413  -1.458  0.00  0.00    +0.048 C 
ATOM     21  C   LIG    1       -0.591   4.545  -0.573  0.00  0.00    +0.023 C 
ATOM     22  C   LIG    1       -1.064   3.776  -2.950  0.00  0.00    +0.023 C 
ENDBRANCH  18  20
ENDBRANCH  17  18
ENDBRANCH  14  17
ENDBRANCH  13  14
ENDBRANCH  12  13
ENDBRANCH   4  12
TORSDOF 8
