REMARK  Name = DB01362
REMARK                            x       y       z     vdW  Elec       q    Type
REMARK                         _______ _______ _______ _____ _____    ______ ____
ROOT
ATOM      1  I   LIG    1        0.993   0.203   3.200  0.00  0.00    -0.041 I 
ATOM      2  C   LIG    1        2.052   0.210   1.366  0.00  0.00    +0.049 A 
ATOM      3  C   LIG    1        3.457   0.111   1.365  0.00  0.00    +0.065 A 
ATOM      4  C   LIG    1        4.171   0.152   0.151  0.00  0.00    +0.040 A 
ATOM      5  C   LIG    1        3.477   0.302  -1.065  0.00  0.00    +0.065 A 
ATOM      6  C   LIG    1        2.073   0.399  -1.070  0.00  0.00    +0.049 A 
ATOM      7  I   LIG    1        1.021   0.656  -2.890  0.00  0.00    -0.041 I 
ATOM      8  I   LIG    1        6.286  -0.006   0.153  0.00  0.00    -0.042 I 
ATOM      9  C   LIG    1        1.362   0.338   0.143  0.00  0.00    +0.064 A 
ENDROOT
BRANCH   3  10
ATOM     10  C   LIG    1        4.200  -0.035   2.664  0.00  0.00    +0.246 C 
ATOM     11  N   LIG    1        4.403  -1.306   3.050  0.00  0.00    -0.309 N 
ATOM     12  H   LIG    1        4.060  -2.055   2.466  0.00  0.00    +0.149 HD
ATOM     13  O   LIG    1        4.576   0.956   3.291  0.00  0.00    -0.270 OA
BRANCH  11  14
ATOM     14  C   LIG    1        5.113  -1.698   4.266  0.00  0.00    +0.138 C 
BRANCH  14  15
ATOM     15  C   LIG    1        5.309  -3.225   4.384  0.00  0.00    +0.157 C 
BRANCH  15  16
ATOM     16  O   LIG    1        6.115  -3.677   3.307  0.00  0.00    -0.388 OA
ATOM     17  H   LIG    1        6.255  -4.621   3.411  0.00  0.00    +0.210 HD
ENDBRANCH  15  16
BRANCH  15  18
ATOM     18  C   LIG    1        5.971  -3.632   5.717  0.00  0.00    +0.188 C 
BRANCH  18  19
ATOM     19  O   LIG    1        5.941  -5.035   5.896  0.00  0.00    -0.392 OA
ATOM     20  H   LIG    1        6.349  -5.245   6.740  0.00  0.00    +0.210 HD
ENDBRANCH  18  19
ENDBRANCH  15  18
ENDBRANCH  14  15
ENDBRANCH  11  14
ENDBRANCH   3  10
BRANCH   5  21
ATOM     21  C   LIG    1        4.234   0.354  -2.363  0.00  0.00    +0.246 C 
ATOM     22  N   LIG    1        4.593   1.590  -2.752  0.00  0.00    -0.309 N 
ATOM     23  H   LIG    1        4.380   2.368  -2.145  0.00  0.00    +0.149 HD
ATOM     24  O   LIG    1        4.472  -0.676  -2.995  0.00  0.00    -0.270 OA
BRANCH  22  25
ATOM     25  C   LIG    1        5.288   1.905  -4.000  0.00  0.00    +0.138 C 
BRANCH  25  26
ATOM     26  C   LIG    1        4.406   1.796  -5.271  0.00  0.00    +0.157 C 
BRANCH  26  27
ATOM     27  O   LIG    1        3.305   2.685  -5.186  0.00  0.00    -0.388 OA
ATOM     28  H   LIG    1        2.814   2.484  -4.386  0.00  0.00    +0.210 HD
ENDBRANCH  26  27
BRANCH  26  29
ATOM     29  C   LIG    1        5.175   2.041  -6.588  0.00  0.00    +0.188 C 
BRANCH  29  30
ATOM     30  O   LIG    1        5.791   3.315  -6.620  0.00  0.00    -0.392 OA
ATOM     31  H   LIG    1        5.102   3.983  -6.652  0.00  0.00    +0.210 HD
ENDBRANCH  29  30
ENDBRANCH  26  29
ENDBRANCH  25  26
ENDBRANCH  22  25
ENDBRANCH   5  21
BRANCH   9  32
ATOM     32  N   LIG    1       -0.050   0.397   0.099  0.00  0.00    -0.267 N 
ATOM     33  C   LIG    1       -0.732   1.541   0.396  0.00  0.00    +0.217 C 
ATOM     34  C   LIG    1        0.035   2.858   0.577  0.00  0.00    +0.109 C 
ATOM     35  O   LIG    1       -1.959   1.578   0.502  0.00  0.00    -0.276 OA
BRANCH  32  36
ATOM     36  C   LIG    1       -0.771  -0.857  -0.213  0.00  0.00    +0.147 C 
BRANCH  36  37
ATOM     37  C   LIG    1       -0.910  -1.881   0.936  0.00  0.00    +0.157 C 
BRANCH  37  38
ATOM     38  O   LIG    1       -1.820  -1.400   1.909  0.00  0.00    -0.388 OA
ATOM     39  H   LIG    1       -1.576  -0.500   2.136  0.00  0.00    +0.210 HD
ENDBRANCH  37  38
BRANCH  37  40
ATOM     40  C   LIG    1       -1.337  -3.287   0.461  0.00  0.00    +0.188 C 
BRANCH  40  41
ATOM     41  O   LIG    1       -2.543  -3.261  -0.281  0.00  0.00    -0.392 OA
ATOM     42  H   LIG    1       -2.771  -4.161  -0.526  0.00  0.00    +0.210 HD
ENDBRANCH  40  41
ENDBRANCH  37  40
ENDBRANCH  36  37
ENDBRANCH  32  36
ENDBRANCH   9  32
TORSDOF 18
