REMARK  Name = DB01241
REMARK                            x       y       z     vdW  Elec       q    Type
REMARK                         _______ _______ _______ _____ _____    ______ ____
ROOT
ATOM      1  C   LIG    1        2.168  -1.384  -0.088  0.00  0.00    +0.229 C 
ENDROOT
BRANCH   1   2
ATOM      2  O   LIG    1        1.716  -2.132   1.038  0.00  0.00    -0.492 OA
BRANCH   2   3
ATOM      3  C   LIG    1        2.060  -3.466   1.160  0.00  0.00    +0.124 A 
ATOM      4  C   LIG    1        2.870  -4.152   0.237  0.00  0.00    +0.049 A 
ATOM      5  C   LIG    1        3.180  -5.501   0.420  0.00  0.00    -0.047 A 
ATOM      6  C   LIG    1        4.058  -6.218  -0.589  0.00  0.00    +0.044 C 
ATOM      7  C   LIG    1        2.683  -6.179   1.534  0.00  0.00    +0.004 A 
ATOM      8  C   LIG    1        1.879  -5.512   2.456  0.00  0.00    +0.007 A 
ATOM      9  C   LIG    1        1.565  -4.162   2.275  0.00  0.00    -0.009 A 
ATOM     10  C   LIG    1        0.684  -3.457   3.295  0.00  0.00    +0.047 C 
ENDBRANCH   2   3
ENDBRANCH   1   2
BRANCH   1  11
ATOM     11  C   LIG    1        1.619   0.049  -0.001  0.00  0.00    +0.042 C 
BRANCH  11  12
ATOM     12  C   LIG    1        0.072   0.118  -0.052  0.00  0.00    +0.021 C 
BRANCH  12  13
ATOM     13  C   LIG    1       -0.577   1.538   0.039  0.00  0.00    +0.062 C 
ATOM     14  C   LIG    1       -2.119   1.386   0.059  0.00  0.00    +0.022 C 
ATOM     15  C   LIG    1       -0.197   2.365  -1.220  0.00  0.00    +0.022 C 
BRANCH  13  16
ATOM     16  C   LIG    1       -0.132   2.285   1.330  0.00  0.00    +0.310 C 
ATOM     17  O   LIG    1        0.365   3.411   1.336  0.00  0.00    -0.250 OA
BRANCH  16  18
ATOM     18  O   LIG    1       -0.358   1.549   2.459  0.00  0.00    -0.480 OA
ATOM     19  H   LIG    1       -0.081   2.010   3.253  0.00  0.00    +0.295 HD
ENDBRANCH  16  18
ENDBRANCH  13  16
ENDBRANCH  12  13
ENDBRANCH  11  12
ENDBRANCH   1  11
TORSDOF 7
