REMARK  Name = DB01146
REMARK                            x       y       z     vdW  Elec       q    Type
REMARK                         _______ _______ _______ _____ _____    ______ ____
ROOT
ATOM      1  C   LIG    1        1.253  -0.071  -0.259  0.00  0.00    +0.179 C 
ENDROOT
BRANCH   1   2
ATOM      2  C   LIG    1        1.745  -1.519  -0.152  0.00  0.00    -0.014 A 
ATOM      3  C   LIG    1        0.953  -2.597  -0.570  0.00  0.00    +0.006 A 
ATOM      4  C   LIG    1        1.426  -3.901  -0.448  0.00  0.00    +0.000 A 
ATOM      5  C   LIG    1        2.688  -4.131   0.094  0.00  0.00    +0.000 A 
ATOM      6  C   LIG    1        3.482  -3.068   0.517  0.00  0.00    +0.000 A 
ATOM      7  C   LIG    1        3.009  -1.764   0.396  0.00  0.00    +0.006 A 
ENDBRANCH   1   2
BRANCH   1   8
ATOM      8  C   LIG    1        2.052   0.739  -1.282  0.00  0.00    -0.014 A 
ATOM      9  C   LIG    1        1.942   0.449  -2.646  0.00  0.00    +0.006 A 
ATOM     10  C   LIG    1        2.654   1.198  -3.578  0.00  0.00    +0.000 A 
ATOM     11  C   LIG    1        3.471   2.241  -3.145  0.00  0.00    +0.000 A 
ATOM     12  C   LIG    1        3.581   2.541  -1.789  0.00  0.00    +0.000 A 
ATOM     13  C   LIG    1        2.869   1.791  -0.857  0.00  0.00    +0.006 A 
ENDBRANCH   1   8
BRANCH   1  14
ATOM     14  O   LIG    1       -0.147  -0.039  -0.568  0.00  0.00    -0.364 OA
BRANCH  14  15
ATOM     15  C   LIG    1       -0.827   1.216  -0.492  0.00  0.00    +0.122 C 
ATOM     16  C   LIG    1       -2.214   1.068  -1.137  0.00  0.00    +0.047 C 
ATOM     17  C   LIG    1       -2.993   2.400  -1.085  0.00  0.00    +0.086 C 
ATOM     18  N   LIG    1       -3.108   2.912   0.287  0.00  0.00    -0.305 NA
ATOM     19  C   LIG    1       -3.834   4.177   0.307  0.00  0.00    +0.104 C 
ATOM     20  C   LIG    1       -1.812   3.047   0.969  0.00  0.00    +0.086 C 
ATOM     21  C   LIG    1       -1.008   1.729   0.951  0.00  0.00    +0.047 C 
ENDBRANCH  14  15
ENDBRANCH   1  14
TORSDOF 4
