REMARK  Name = DB01403
REMARK                            x       y       z     vdW  Elec       q    Type
REMARK                         _______ _______ _______ _____ _____    ______ ____
ROOT
ATOM      1  C   LIG    1       -0.756   2.343   3.854  0.00  0.00    +0.002 A 
ATOM      2  C   LIG    1       -1.587   3.455   3.796  0.00  0.00    +0.001 A 
ATOM      3  C   LIG    1       -2.211   3.785   2.597  0.00  0.00    +0.017 A 
ATOM      4  C   LIG    1       -2.006   3.010   1.453  0.00  0.00    +0.034 A 
ATOM      5  S   LIG    1       -2.846   3.473  -0.018  0.00  0.00    -0.086 S 
ATOM      6  C   LIG    1       -1.681   2.877  -1.192  0.00  0.00    +0.034 A 
ATOM      7  C   LIG    1       -1.592   3.542  -2.416  0.00  0.00    +0.020 A 
ATOM      8  C   LIG    1       -0.705   3.108  -3.393  0.00  0.00    +0.047 A 
ATOM      9  C   LIG    1        0.106   1.993  -3.159  0.00  0.00    +0.122 A 
ATOM     10  C   LIG    1       -0.011   1.324  -1.940  0.00  0.00    +0.070 A 
ATOM     11  C   LIG    1       -0.928   1.708  -0.944  0.00  0.00    +0.051 A 
ATOM     12  N   LIG    1       -0.972   1.091   0.327  0.00  0.00    -0.298 N 
ATOM     13  C   LIG    1       -1.225   1.834   1.503  0.00  0.00    +0.048 A 
ATOM     14  C   LIG    1       -0.568   1.556   2.720  0.00  0.00    +0.024 A 
ENDROOT
BRANCH   9  15
ATOM     15  O   LIG    1        1.030   1.495  -4.058  0.00  0.00    -0.495 OA
ATOM     16  C   LIG    1        1.192   2.141  -5.316  0.00  0.00    +0.277 C 
ENDBRANCH   9  15
BRANCH  12  17
ATOM     17  C   LIG    1       -0.439  -0.281   0.500  0.00  0.00    +0.115 C 
BRANCH  17  18
ATOM     18  C   LIG    1        1.111  -0.520   0.539  0.00  0.00    +0.018 C 
ATOM     19  C   LIG    1        1.438  -1.695   1.485  0.00  0.00    +0.010 C 
BRANCH  18  20
ATOM     20  C   LIG    1        2.013   0.723   0.831  0.00  0.00    +0.088 C 
BRANCH  20  21
ATOM     21  N   LIG    1        3.127   0.896  -0.110  0.00  0.00    -0.308 NA
ATOM     22  C   LIG    1        3.774   2.185   0.117  0.00  0.00    +0.104 C 
ATOM     23  C   LIG    1        4.124  -0.167  -0.011  0.00  0.00    +0.104 C 
ENDBRANCH  20  21
ENDBRANCH  18  20
ENDBRANCH  17  18
ENDBRANCH  12  17
TORSDOF 5
