REMARK  Name = DB01216
REMARK                            x       y       z     vdW  Elec       q    Type
REMARK                         _______ _______ _______ _____ _____    ______ ____
ROOT
ATOM      1  C   LIG    1        0.020  -0.107   0.083  0.00  0.00    +0.081 C 
ATOM      2  C   LIG    1       -0.600  -0.789  -1.176  0.00  0.00    +0.013 C 
ATOM      3  C   LIG    1       -1.808  -1.607  -0.677  0.00  0.00    +0.005 C 
ATOM      4  C   LIG    1       -1.891  -1.278   0.818  0.00  0.00    -0.001 C 
ATOM      5  C   LIG    1       -2.667  -2.210   1.790  0.00  0.00    -0.003 C 
ATOM      6  C   LIG    1       -4.094  -2.521   1.275  0.00  0.00    +0.006 C 
ATOM      7  C   LIG    1       -4.932  -3.346   2.271  0.00  0.00    +0.023 C 
ATOM      8  C   LIG    1       -4.949  -2.656   3.649  0.00  0.00    +0.083 C 
ATOM      9  C   LIG    1       -3.502  -2.422   4.245  0.00  0.00    +0.008 C 
ATOM     10  C   LIG    1       -3.736  -1.725   5.591  0.00  0.00    -0.013 C 
ATOM     11  C   LIG    1       -4.850  -1.959   6.314  0.00  0.00    +0.063 C 
ATOM     12  C   LIG    1       -5.853  -2.939   5.945  0.00  0.00    +0.237 C 
ATOM     13  O   LIG    1       -6.608  -3.468   6.757  0.00  0.00    -0.271 OA
ATOM     14  C   LIG    1       -2.772  -3.762   4.562  0.00  0.00    +0.017 C 
ATOM     15  N   LIG    1       -5.834  -3.312   4.640  0.00  0.00    -0.308 N 
ATOM     16  H   LIG    1       -6.540  -3.957   4.316  0.00  0.00    +0.149 HD
ATOM     17  C   LIG    1       -2.699  -1.547   3.217  0.00  0.00    +0.004 C 
ATOM     18  C   LIG    1       -1.264  -1.142   3.691  0.00  0.00    +0.005 C 
ATOM     19  C   LIG    1       -0.505  -0.292   2.642  0.00  0.00    +0.008 C 
ATOM     20  C   LIG    1       -0.433  -1.015   1.271  0.00  0.00    -0.018 C 
ATOM     21  C   LIG    1        0.412  -2.330   1.374  0.00  0.00    +0.012 C 
ENDROOT
BRANCH   1  23
ATOM     22  O   LIG    1        2.236  -0.747  -0.692  0.00  0.00    -0.275 OA
ATOM     23  C   LIG    1        1.555   0.061  -0.057  0.00  0.00    +0.217 C 
ATOM     24  N   LIG    1        2.075   1.129   0.581  0.00  0.00    -0.310 N 
ATOM     25  H   LIG    1        1.426   1.727   1.071  0.00  0.00    +0.149 HD
BRANCH  24  26
ATOM     26  C   LIG    1        3.483   1.545   0.675  0.00  0.00    +0.026 C 
ATOM     27  C   LIG    1        4.342   0.464   1.378  0.00  0.00    +0.031 C 
ATOM     28  C   LIG    1        4.073   1.863  -0.721  0.00  0.00    +0.031 C 
ATOM     29  C   LIG    1        3.529   2.831   1.527  0.00  0.00    +0.031 C 
ENDBRANCH  24  26
ENDBRANCH   1  23
TORSDOF 2
