REMARK  Name = DB01123
REMARK                            x       y       z     vdW  Elec       q    Type
REMARK                         _______ _______ _______ _____ _____    ______ ____
ROOT
ATOM      1  N   LIG    1        4.218  -2.417   0.000  0.00  0.00    -0.247 NA
ATOM      2  C   LIG    1        5.578  -2.460   0.000  0.00  0.00    +0.073 A 
ATOM      3  C   LIG    1        6.228  -3.718   0.000  0.00  0.00    +0.051 A 
ATOM      4  C   LIG    1        7.621  -3.786   0.000  0.00  0.00    +0.027 A 
ATOM      5  C   LIG    1        8.386  -2.621   0.000  0.00  0.00    +0.023 A 
ATOM      6  C   LIG    1        7.775  -1.369   0.000  0.00  0.00    +0.012 A 
ATOM      7  C   LIG    1        6.363  -1.270   0.000  0.00  0.00    +0.001 A 
ATOM      8  C   LIG    1        5.676  -0.037   0.000  0.00  0.00    +0.020 A 
ATOM      9  C   LIG    1        4.265   0.015   0.000  0.00  0.00    +0.001 A 
ATOM     10  C   LIG    1        3.536   1.228   0.000  0.00  0.00    +0.012 A 
ATOM     11  C   LIG    1        2.143   1.204   0.000  0.00  0.00    +0.023 A 
ATOM     12  C   LIG    1        1.452  -0.006   0.000  0.00  0.00    +0.027 A 
ATOM     13  C   LIG    1        2.146  -1.216   0.000  0.00  0.00    +0.051 A 
ATOM     14  C   LIG    1        3.562  -1.225   0.000  0.00  0.00    +0.073 A 
ENDROOT
BRANCH   4  15
ATOM     15  N   LIG    1        8.254  -5.028   0.000  0.00  0.00    -0.358 N 
ATOM     16  H   LIG    1        7.697  -5.871   0.000  0.00  0.00    +0.142 HD
ATOM     17  H   LIG    1        9.263  -5.072   0.000  0.00  0.00    +0.142 HD
ENDBRANCH   4  15
BRANCH  12  18
ATOM     18  N   LIG    1        0.058  -0.007   0.000  0.00  0.00    -0.358 N 
ATOM     19  H   LIG    1       -0.439  -0.886   0.000  0.00  0.00    +0.142 HD
ATOM     20  H   LIG    1       -0.438   0.873   0.000  0.00  0.00    +0.142 HD
ENDBRANCH  12  18
TORSDOF 2
