REMARK  Name = DB01189
REMARK                            x       y       z     vdW  Elec       q    Type
REMARK                         _______ _______ _______ _____ _____    ______ ____
ROOT
ATOM      1  F   LIG    1        1.842   0.625   1.185  0.00  0.00    -0.205 F 
ATOM      2  C   LIG    1        1.410   0.010   0.082  0.00  0.00    +0.406 C 
ENDROOT
BRANCH   2   3
ATOM      3  C   LIG    1        1.921  -1.438  -0.006  0.00  0.00    +0.446 C 
ATOM      4  F   LIG    1        3.253  -1.478  -0.027  0.00  0.00    -0.165 F 
ATOM      5  F   LIG    1        1.500  -2.176   1.022  0.00  0.00    -0.165 F 
ATOM      6  F   LIG    1        1.495  -2.027  -1.124  0.00  0.00    -0.165 F 
ENDBRANCH   2   3
BRANCH   2   7
ATOM      7  O   LIG    1       -0.016   0.007   0.049  0.00  0.00    -0.280 OA
BRANCH   7   8
ATOM      8  C   LIG    1       -0.622   1.291  -0.036  0.00  0.00    +0.485 C 
ATOM      9  F   LIG    1       -0.336   1.888  -1.194  0.00  0.00    -0.178 F 
ATOM     10  F   LIG    1       -1.944   1.160   0.067  0.00  0.00    -0.178 F 
ENDBRANCH   7   8
ENDBRANCH   2   7
TORSDOF 3
