REMARK  Name = DB01407
REMARK                            x       y       z     vdW  Elec       q    Type
REMARK                         _______ _______ _______ _____ _____    ______ ____
ROOT
ATOM      1 CL   LIG    1        3.781   4.329  -2.280  0.00  0.00    -0.082 Cl
ATOM      2  C   LIG    1        3.097   2.741  -2.391  0.00  0.00    +0.063 A 
ATOM      3  C   LIG    1        2.962   2.081  -3.623  0.00  0.00    +0.062 A 
ATOM      4  C   LIG    1        2.401   0.795  -3.660  0.00  0.00    +0.063 A 
ATOM      5  C   LIG    1        1.981   0.184  -2.477  0.00  0.00    +0.028 A 
ATOM      6  C   LIG    1        2.114   0.838  -1.249  0.00  0.00    -0.015 A 
ATOM      7 CL   LIG    1        2.208  -0.073  -5.147  0.00  0.00    -0.082 Cl
ATOM      8  C   LIG    1        2.673   2.118  -1.216  0.00  0.00    +0.028 A 
ENDROOT
BRANCH   3   9
ATOM      9  N   LIG    1        3.384   2.700  -4.805  0.00  0.00    -0.356 N 
ATOM     10  H   LIG    1        3.934   3.539  -4.688  0.00  0.00    +0.142 HD
ATOM     11  H   LIG    1        3.621   2.079  -5.565  0.00  0.00    +0.142 HD
ENDBRANCH   3   9
BRANCH   6  12
ATOM     12  C   LIG    1        1.640   0.173   0.045  0.00  0.00    +0.158 C 
BRANCH  12  13
ATOM     13  O   LIG    1        2.251  -1.086   0.246  0.00  0.00    -0.386 OA
ATOM     14  H   LIG    1        3.195  -0.951   0.362  0.00  0.00    +0.210 HD
ENDBRANCH  12  13
BRANCH  12  15
ATOM     15  C   LIG    1        0.108  -0.030   0.098  0.00  0.00    +0.117 C 
BRANCH  15  16
ATOM     16  N   LIG    1       -0.586   1.258   0.049  0.00  0.00    -0.309 NA
ATOM     17  H   LIG    1       -0.279   1.847   0.810  0.00  0.00    +0.123 HD
BRANCH  16  18
ATOM     18  C   LIG    1       -2.054   1.238  -0.002  0.00  0.00    +0.011 C 
ATOM     19  C   LIG    1       -2.536   0.578  -1.315  0.00  0.00    +0.027 C 
ATOM     20  C   LIG    1       -2.638   0.509   1.231  0.00  0.00    +0.027 C 
ATOM     21  C   LIG    1       -2.491   2.719   0.018  0.00  0.00    +0.027 C 
ENDBRANCH  16  18
ENDBRANCH  15  16
ENDBRANCH  12  15
ENDBRANCH   6  12
TORSDOF 6
