REMARK  Name = DB01138
REMARK                            x       y       z     vdW  Elec       q    Type
REMARK                         _______ _______ _______ _____ _____    ______ ____
ROOT
ATOM      1  C   LIG    1        0.080  -0.398  -0.214  0.00  0.00    +0.165 C 
ATOM      2  C   LIG    1       -0.389  -1.290  -1.336  0.00  0.00    +0.249 C 
ATOM      3  N   LIG    1       -1.296  -2.126  -0.783  0.00  0.00    -0.180 N 
ATOM      4  N   LIG    1       -1.131  -2.131   0.638  0.00  0.00    -0.180 N 
ATOM      5  O   LIG    1       -0.077  -1.184  -2.524  0.00  0.00    -0.273 OA
ATOM      6  C   LIG    1       -0.107  -1.312   0.972  0.00  0.00    +0.249 C 
ATOM      7  O   LIG    1        0.462  -1.201   2.061  0.00  0.00    -0.273 OA
ENDROOT
BRANCH   3   8
ATOM      8  C   LIG    1       -2.061  -3.059  -1.514  0.00  0.00    +0.057 A 
ATOM      9  C   LIG    1       -1.902  -4.431  -1.283  0.00  0.00    +0.025 A 
ATOM     10  C   LIG    1       -2.664  -5.348  -2.002  0.00  0.00    +0.002 A 
ATOM     11  C   LIG    1       -3.579  -4.893  -2.950  0.00  0.00    +0.000 A 
ATOM     12  C   LIG    1       -3.738  -3.530  -3.188  0.00  0.00    +0.002 A 
ATOM     13  C   LIG    1       -2.978  -2.610  -2.471  0.00  0.00    +0.025 A 
ENDBRANCH   3   8
BRANCH   4  14
ATOM     14  C   LIG    1       -1.873  -2.933   1.532  0.00  0.00    +0.057 A 
ATOM     15  C   LIG    1       -3.271  -2.896   1.480  0.00  0.00    +0.025 A 
ATOM     16  C   LIG    1       -4.020  -3.689   2.344  0.00  0.00    +0.002 A 
ATOM     17  C   LIG    1       -3.373  -4.517   3.259  0.00  0.00    +0.000 A 
ATOM     18  C   LIG    1       -1.981  -4.560   3.318  0.00  0.00    +0.002 A 
ATOM     19  C   LIG    1       -1.229  -3.769   2.454  0.00  0.00    +0.025 A 
ENDBRANCH   4  14
BRANCH   1  20
ATOM     20  C   LIG    1        1.564   0.046  -0.377  0.00  0.00    +0.036 C 
BRANCH  20  21
ATOM     21  C   LIG    1        1.749   1.251  -1.323  0.00  0.00    +0.110 C 
BRANCH  21  22
ATOM     22  S   LIG    1        3.546   1.619  -1.631  0.00  0.00    +0.054 S 
ATOM     23  O   LIG    1        3.577   2.864  -2.520  0.00  0.00    -0.252 OA
BRANCH  22  24
ATOM     24  C   LIG    1        3.957   2.185   0.054  0.00  0.00    +0.039 A 
ATOM     25  C   LIG    1        3.731   3.514   0.417  0.00  0.00    +0.017 A 
ATOM     26  C   LIG    1        4.056   3.938   1.703  0.00  0.00    +0.001 A 
ATOM     27  C   LIG    1        4.605   3.033   2.611  0.00  0.00    +0.000 A 
ATOM     28  C   LIG    1        4.837   1.708   2.245  0.00  0.00    +0.001 A 
ATOM     29  C   LIG    1        4.515   1.281   0.959  0.00  0.00    +0.017 A 
ENDBRANCH  22  24
ENDBRANCH  21  22
ENDBRANCH  20  21
ENDBRANCH   1  20
TORSDOF 6
