REMARK  Name = DB01599
REMARK                            x       y       z     vdW  Elec       q    Type
REMARK                         _______ _______ _______ _____ _____    ______ ____
ROOT
ATOM      1  C   LIG    1        1.220  -0.499  -0.031  0.00  0.00    +0.066 C 
ATOM      2  C   LIG    1        2.045  -0.050  -1.257  0.00  0.00    +0.035 C 
ATOM      3  C   LIG    1        1.127  -2.038  -0.040  0.00  0.00    +0.035 C 
ENDROOT
BRANCH   1   4
ATOM      4  S   LIG    1       -0.471   0.178  -0.150  0.00  0.00    -0.108 S 
BRANCH   4   9
ATOM      5  C   LIG    1       -0.131   4.006   1.146  0.00  0.00    +0.001 A 
ATOM      6  C   LIG    1       -0.056   4.711  -0.082  0.00  0.00    +0.124 A 
ATOM      7  C   LIG    1       -0.117   4.044  -1.333  0.00  0.00    +0.001 A 
ATOM      8  C   LIG    1       -0.253   2.646  -1.318  0.00  0.00    +0.022 A 
ATOM      9  C   LIG    1       -0.325   1.939  -0.126  0.00  0.00    +0.010 A 
ATOM     10  C   LIG    1       -0.277   2.612   1.086  0.00  0.00    +0.022 A 
BRANCH   5  11
ATOM     11  C   LIG    1       -0.047   4.725   2.534  0.00  0.00    -0.009 C 
ATOM     12  C   LIG    1       -1.221   5.724   2.705  0.00  0.00    +0.015 C 
ATOM     13  C   LIG    1       -0.138   3.745   3.740  0.00  0.00    +0.015 C 
ATOM     14  C   LIG    1        1.312   5.459   2.688  0.00  0.00    +0.015 C 
ENDBRANCH   5  11
BRANCH   7  15
ATOM     15  C   LIG    1       -0.032   4.809  -2.695  0.00  0.00    -0.009 C 
ATOM     16  C   LIG    1       -1.210   5.809  -2.837  0.00  0.00    +0.015 C 
ATOM     17  C   LIG    1        1.324   5.553  -2.822  0.00  0.00    +0.015 C 
ATOM     18  C   LIG    1       -0.120   3.870  -3.934  0.00  0.00    +0.015 C 
ENDBRANCH   7  15
BRANCH   6  19
ATOM     19  O   LIG    1        0.081   6.075  -0.062  0.00  0.00    -0.506 OA
ATOM     20  H   LIG    1        0.120   6.454  -0.943  0.00  0.00    +0.292 HD
ENDBRANCH   6  19
ENDBRANCH   4   9
ENDBRANCH   1   4
BRANCH   1  21
ATOM     21  S   LIG    1        2.014   0.065   1.515  0.00  0.00    -0.108 S 
BRANCH  21  22
ATOM     22  C   LIG    1        3.642  -0.614   1.572  0.00  0.00    +0.010 A 
ATOM     23  C   LIG    1        4.690   0.045   0.946  0.00  0.00    +0.022 A 
ATOM     24  C   LIG    1        5.998  -0.464   0.977  0.00  0.00    +0.001 A 
ATOM     25  C   LIG    1        6.215  -1.672   1.689  0.00  0.00    +0.124 A 
ATOM     26  C   LIG    1        5.157  -2.356   2.341  0.00  0.00    +0.001 A 
ATOM     27  C   LIG    1        3.873  -1.795   2.261  0.00  0.00    +0.022 A 
BRANCH  24  28
ATOM     28  C   LIG    1        7.152   0.295   0.242  0.00  0.00    -0.009 C 
ATOM     29  C   LIG    1        7.785  -0.600  -0.856  0.00  0.00    +0.015 C 
ATOM     30  C   LIG    1        6.672   1.584  -0.488  0.00  0.00    +0.015 C 
ATOM     31  C   LIG    1        8.236   0.755   1.251  0.00  0.00    +0.015 C 
ENDBRANCH  24  28
BRANCH  26  32
ATOM     32  C   LIG    1        5.383  -3.688   3.131  0.00  0.00    -0.009 C 
ATOM     33  C   LIG    1        5.919  -4.799   2.190  0.00  0.00    +0.015 C 
ATOM     34  C   LIG    1        6.360  -3.464   4.315  0.00  0.00    +0.015 C 
ATOM     35  C   LIG    1        4.077  -4.258   3.760  0.00  0.00    +0.015 C 
ENDBRANCH  26  32
BRANCH  25  36
ATOM     36  O   LIG    1        7.482  -2.191   1.751  0.00  0.00    -0.506 OA
ATOM     37  H   LIG    1        7.522  -3.005   2.259  0.00  0.00    +0.292 HD
ENDBRANCH  25  36
ENDBRANCH  21  22
ENDBRANCH   1  21
TORSDOF 10
