REMARK  Name = DB01324
REMARK                            x       y       z     vdW  Elec       q    Type
REMARK                         _______ _______ _______ _____ _____    ______ ____
ROOT
ATOM      1 CL   LIG    1       -3.920  -3.322  -4.024  0.00  0.00    -0.081 Cl
ATOM      2  C   LIG    1       -3.488  -2.570  -2.527  0.00  0.00    +0.069 A 
ATOM      3  C   LIG    1       -4.338  -2.583  -1.409  0.00  0.00    +0.125 A 
ATOM      4  C   LIG    1       -3.928  -1.954  -0.228  0.00  0.00    +0.060 A 
ATOM      5  C   LIG    1       -2.690  -1.314  -0.152  0.00  0.00    +0.128 A 
ATOM      6  C   LIG    1       -1.837  -1.305  -1.274  0.00  0.00    +0.056 A 
ATOM      7  N   LIG    1       -0.543  -0.744  -1.248  0.00  0.00    -0.325 N 
ATOM      8  H   LIG    1        0.136  -0.936  -1.971  0.00  0.00    +0.148 HD
ATOM      9  C   LIG    1       -0.029  -0.139  -0.016  0.00  0.00    +0.172 C 
ATOM     10  N   LIG    1       -0.489  -0.750   1.262  0.00  0.00    -0.159 NA
ATOM     11  C   LIG    1       -0.038  -2.140   1.537  0.00  0.00    +0.134 C 
ATOM     12  S   LIG    1       -2.235  -0.520   1.390  0.00  0.00    +0.064 S 
ATOM     13  O   LIG    1       -2.553   0.908   1.280  0.00  0.00    -0.153 OA
ATOM     14  O   LIG    1       -2.780  -1.284   2.519  0.00  0.00    -0.153 OA
ATOM     15  C   LIG    1       -2.246  -1.939  -2.447  0.00  0.00    +0.047 A 
ENDROOT
BRANCH   3  16
ATOM     16  S   LIG    1       -5.947  -3.386  -1.454  0.00  0.00    +0.057 S 
ATOM     17  O   LIG    1       -6.515  -3.333  -0.102  0.00  0.00    -0.153 OA
ATOM     18  O   LIG    1       -6.677  -2.821  -2.594  0.00  0.00    -0.153 OA
BRANCH  16  19
ATOM     19  N   LIG    1       -5.608  -5.070  -1.811  0.00  0.00    -0.203 NA
ATOM     20  H   LIG    1       -5.110  -5.570  -1.069  0.00  0.00    +0.144 HD
ATOM     21  H   LIG    1       -5.221  -5.237  -2.743  0.00  0.00    +0.144 HD
ENDBRANCH  16  19
ENDBRANCH   3  16
BRANCH   9  22
ATOM     22  C   LIG    1        1.515  -0.058  -0.050  0.00  0.00    +0.109 C 
BRANCH  22  23
ATOM     23  S   LIG    1        2.207   0.984  -1.371  0.00  0.00    -0.149 S 
BRANCH  23  24
ATOM     24  C   LIG    1        3.983   0.713  -1.099  0.00  0.00    +0.182 C 
BRANCH  24  25
ATOM     25  C   LIG    1        4.914   1.404  -2.108  0.00  0.00    +0.399 C 
ATOM     26  F   LIG    1        4.685   0.982  -3.352  0.00  0.00    -0.170 F 
ATOM     27  F   LIG    1        4.759   2.728  -2.090  0.00  0.00    -0.170 F 
ATOM     28  F   LIG    1        6.190   1.146  -1.825  0.00  0.00    -0.170 F 
ENDBRANCH  24  25
ENDBRANCH  23  24
ENDBRANCH  22  23
ENDBRANCH   9  22
TORSDOF 6
