REMARK  Name = DB01214
REMARK                            x       y       z     vdW  Elec       q    Type
REMARK                         _______ _______ _______ _____ _____    ______ ____
ROOT
ATOM      1  C   LIG    1       -0.437   1.307   0.231  0.00  0.00    +0.124 A 
ATOM      2  C   LIG    1        0.273   2.514   0.184  0.00  0.00    +0.053 A 
ATOM      3  C   LIG    1       -0.388   3.740   0.165  0.00  0.00    -0.004 A 
ATOM      4  C   LIG    1        0.429   5.024   0.105  0.00  0.00    +0.048 C 
ATOM      5  C   LIG    1       -1.791   3.777   0.193  0.00  0.00    +0.138 A 
ATOM      6  C   LIG    1       -2.522   2.574   0.219  0.00  0.00    -0.001 A 
ATOM      7  C   LIG    1       -4.052   2.612   0.187  0.00  0.00    +0.048 C 
ATOM      8  C   LIG    1       -1.842   1.340   0.252  0.00  0.00    -0.002 A 
ATOM      9  C   LIG    1       -2.624   0.026   0.319  0.00  0.00    +0.048 C 
ENDROOT
BRANCH   1  10
ATOM     10  O   LIG    1        0.181   0.069   0.257  0.00  0.00    -0.489 OA
BRANCH  10  11
ATOM     11  C   LIG    1        1.579  -0.039   0.001  0.00  0.00    +0.261 C 
BRANCH  11  12
ATOM     12  C   LIG    1        1.966  -1.528  -0.141  0.00  0.00    +0.166 C 
BRANCH  12  13
ATOM     13  O   LIG    1        3.377  -1.614  -0.200  0.00  0.00    -0.387 OA
ATOM     14  H   LIG    1        3.680  -1.136  -0.975  0.00  0.00    +0.210 HD
ENDBRANCH  12  13
BRANCH  12  15
ATOM     15  C   LIG    1        1.401  -2.219  -1.404  0.00  0.00    +0.115 C 
BRANCH  15  16
ATOM     16  N   LIG    1       -0.046  -2.389  -1.298  0.00  0.00    -0.311 NA
ATOM     17  H   LIG    1       -0.286  -2.851  -0.432  0.00  0.00    +0.122 HD
BRANCH  16  18
ATOM     18  C   LIG    1       -0.660  -3.081  -2.428  0.00  0.00    +0.048 C 
ATOM     19  C   LIG    1       -2.107  -3.419  -2.029  0.00  0.00    +0.023 C 
ATOM     20  C   LIG    1       -0.621  -2.223  -3.709  0.00  0.00    +0.023 C 
ENDBRANCH  16  18
ENDBRANCH  15  16
ENDBRANCH  12  15
ENDBRANCH  11  12
ENDBRANCH  10  11
ENDBRANCH   1  10
BRANCH   5  21
ATOM     21  O   LIG    1       -2.441   4.995   0.159  0.00  0.00    -0.425 OA
BRANCH  21  22
ATOM     22  C   LIG    1       -2.772   5.612   1.327  0.00  0.00    +0.309 C 
ATOM     23  C   LIG    1       -3.493   6.936   1.102  0.00  0.00    +0.136 C 
ATOM     24  O   LIG    1       -2.545   5.202   2.468  0.00  0.00    -0.251 OA
ENDBRANCH  21  22
ENDBRANCH   5  21
TORSDOF 9
