REMARK  Name = DB01339
REMARK                            x       y       z     vdW  Elec       q    Type
REMARK                         _______ _______ _______ _____ _____    ______ ____
ROOT
ATOM      1  C   LIG    1       -0.445  -1.235   1.217  0.00  0.00    +0.007 C 
ATOM      2  C   LIG    1        0.713  -2.214   1.601  0.00  0.00    +0.015 C 
ATOM      3  C   LIG    1       -0.822  -0.327   2.414  0.00  0.00    +0.011 C 
ATOM      4  C   LIG    1       -1.394  -1.146   3.597  0.00  0.00    +0.005 C 
ATOM      5  C   LIG    1       -2.601  -2.054   3.191  0.00  0.00    -0.001 C 
ATOM      6  C   LIG    1       -3.180  -2.946   4.362  0.00  0.00    -0.024 C 
ATOM      7  C   LIG    1       -2.130  -4.010   4.815  0.00  0.00    +0.012 C 
ATOM      8  C   LIG    1       -3.631  -2.046   5.566  0.00  0.00    +0.029 C 
ATOM      9  C   LIG    1       -4.390  -2.781   6.725  0.00  0.00    +0.098 C 
ATOM     10  C   LIG    1       -5.672  -3.405   6.069  0.00  0.00    +0.194 C 
ATOM     11  C   LIG    1       -5.287  -4.341   4.899  0.00  0.00    +0.050 C 
ATOM     12  C   LIG    1       -4.498  -3.591   3.793  0.00  0.00    -0.001 C 
ATOM     13  C   LIG    1       -4.201  -4.473   2.557  0.00  0.00    +0.004 C 
ATOM     14  C   LIG    1       -3.586  -3.631   1.422  0.00  0.00    +0.004 C 
ATOM     15  C   LIG    1       -2.310  -2.885   1.886  0.00  0.00    -0.004 C 
ATOM     16  C   LIG    1       -0.100  -0.470  -0.098  0.00  0.00    +0.170 C 
ATOM     17  C   LIG    1       -0.634  -1.358  -1.274  0.00  0.00    -0.023 C 
ATOM     18  C   LIG    1       -1.422  -2.513  -0.606  0.00  0.00    -0.007 C 
ATOM     19  C   LIG    1       -1.745  -1.952   0.781  0.00  0.00    +0.000 C 
ENDROOT
BRANCH  17  20
ATOM     20  N   LIG    1        0.205  -1.661  -2.567  0.00  0.00    +0.382 N 
ATOM     21  C   LIG    1        1.442  -2.531  -2.219  0.00  0.00    -0.091 C 
ATOM     22  C   LIG    1       -0.633  -2.502  -3.583  0.00  0.00    -0.075 C 
ATOM     23  C   LIG    1       -1.787  -1.681  -4.195  0.00  0.00    -0.018 C 
ATOM     24  C   LIG    1       -1.287  -0.384  -4.850  0.00  0.00    -0.004 C 
ATOM     25  C   LIG    1       -0.425   0.455  -3.893  0.00  0.00    -0.018 C 
ATOM     26  C   LIG    1        0.725  -0.369  -3.274  0.00  0.00    -0.075 C 
ENDBRANCH  17  20
BRANCH   9  27
ATOM     27  N   LIG    1       -3.593  -3.696   7.577  0.00  0.00    -0.296 NA
ATOM     28  C   LIG    1       -4.397  -4.457   8.553  0.00  0.00    +0.085 C 
ATOM     29  C   LIG    1       -3.557  -5.438   9.398  0.00  0.00    +0.015 C 
ATOM     30  C   LIG    1       -2.374  -4.749  10.085  0.00  0.00    +0.002 C 
ATOM     31  C   LIG    1       -1.566  -3.966   9.046  0.00  0.00    +0.015 C 
ATOM     32  C   LIG    1       -2.453  -3.013   8.220  0.00  0.00    +0.085 C 
ENDBRANCH   9  27
BRANCH  10  33
ATOM     33  O   LIG    1       -6.580  -2.403   5.594  0.00  0.00    -0.460 OA
BRANCH  33  34
ATOM     34  C   LIG    1       -7.391  -1.717   6.432  0.00  0.00    +0.304 C 
ATOM     35  O   LIG    1       -7.465  -1.857   7.654  0.00  0.00    -0.251 OA
ATOM     36  C   LIG    1       -8.254  -0.700   5.697  0.00  0.00    +0.136 C 
ENDBRANCH  33  34
ENDBRANCH  10  33
BRANCH  16  37
ATOM     37  O   LIG    1        1.284  -0.120  -0.177  0.00  0.00    -0.463 OA
BRANCH  37  38
ATOM     38  C   LIG    1        1.759   1.057   0.290  0.00  0.00    +0.304 C 
ATOM     39  O   LIG    1        1.099   1.959   0.808  0.00  0.00    -0.251 OA
ATOM     40  C   LIG    1        3.265   1.183   0.103  0.00  0.00    +0.136 C 
ENDBRANCH  37  38
ENDBRANCH  16  37
TORSDOF 6
