REMARK  Name = DB01413
REMARK                            x       y       z     vdW  Elec       q    Type
REMARK                         _______ _______ _______ _____ _____    ______ ____
ROOT
ATOM      1  S   LIG    1        1.195  -1.181   2.508  0.00  0.00    -0.131 S 
ATOM      2  C   LIG    1        2.478  -2.314   3.143  0.00  0.00    +0.102 C 
ATOM      3  C   LIG    1        3.079  -3.188   2.027  0.00  0.00    -0.047 C 
ATOM      4  CA  LIG    1        3.290  -2.664   0.778  0.00  0.00    +0.120 C 
ATOM      5  N   LIG    1        2.890  -1.400   0.426  0.00  0.00    -0.249 N 
ATOM      6  C   LIG    1        2.687  -0.652  -0.738  0.00  0.00    +0.244 C 
ATOM      7  CA  LIG    1        1.827   0.378   0.052  0.00  0.00    +0.191 C 
ATOM      8  O   LIG    1        3.005  -0.801  -1.917  0.00  0.00    -0.273 OA
ATOM      9  C   LIG    1        2.321  -0.373   1.324  0.00  0.00    +0.169 C 
ENDROOT
BRANCH   7  10
ATOM     10  N   LIG    1        0.408   0.263  -0.292  0.00  0.00    -0.296 N 
ATOM     11  H   LIG    1        0.179  -0.397  -1.022  0.00  0.00    +0.150 HD
ATOM     12  C   LIG    1       -0.592   0.950   0.290  0.00  0.00    +0.268 C 
ATOM     13  O   LIG    1       -0.418   1.798   1.169  0.00  0.00    -0.268 OA
BRANCH  12  14
ATOM     14  C   LIG    1       -1.930   0.599  -0.226  0.00  0.00    +0.190 C 
ATOM     15  N   LIG    1       -2.699   1.492  -0.748  0.00  0.00    -0.078 NA
BRANCH  14  16
ATOM     16  C   LIG    1       -2.410  -0.806  -0.141  0.00  0.00    +0.107 A 
ATOM     17  C   LIG    1       -3.579  -1.277  -0.755  0.00  0.00    +0.078 A 
ATOM     18  S   LIG    1       -3.788  -2.968  -0.408  0.00  0.00    -0.060 S 
ATOM     19  C   LIG    1       -2.328  -2.895   0.520  0.00  0.00    +0.156 A 
ATOM     20  N   LIG    1       -1.754  -1.722   0.562  0.00  0.00    -0.223 NA
BRANCH  19  21
ATOM     21  N   LIG    1       -1.853  -4.011   1.143  0.00  0.00    -0.338 N 
ATOM     22  H   LIG    1       -2.332  -4.898   1.081  0.00  0.00    +0.144 HD
ATOM     23  H   LIG    1       -1.002  -3.987   1.686  0.00  0.00    +0.144 HD
ENDBRANCH  19  21
ENDBRANCH  14  16
BRANCH  15  24
ATOM     24  O   LIG    1       -2.158   2.797  -0.836  0.00  0.00    -0.396 OA
ATOM     25  C   LIG    1       -3.130   3.658  -1.405  0.00  0.00    +0.313 C 
ENDBRANCH  15  24
ENDBRANCH  12  14
ENDBRANCH   7  10
BRANCH   4  26
ATOM     26  C   LIG    1        4.024  -3.492  -0.325  0.00  0.00    +0.351 C 
ATOM     27  OXT LIG    1        3.278  -4.037  -1.170  0.00  0.00    -0.244 OA
BRANCH  26  28
ATOM     28  O   LIG    1        5.273  -3.486  -0.237  0.00  0.00    -0.476 OA
ATOM     29  H   LIG    1        5.778  -4.133  -0.690  0.00  0.00    +0.295 HD
ENDBRANCH  26  28
ENDBRANCH   4  26
BRANCH   3  30
ATOM     30  C   LIG    1        3.529  -4.586   2.484  0.00  0.00    -0.041 C 
BRANCH  30  31
ATOM     31  N   LIG    1        2.487  -5.749   2.463  0.00  0.00    +0.381 N 
ATOM     32  C   LIG    1        3.221  -7.024   2.965  0.00  0.00    -0.091 C 
ATOM     33  C   LIG    1        1.213  -5.493   3.304  0.00  0.00    -0.075 C 
ATOM     34  C   LIG    1        0.189  -6.519   2.802  0.00  0.00    -0.020 C 
ATOM     35  C   LIG    1        0.578  -6.814   1.350  0.00  0.00    -0.020 C 
ATOM     36  C   LIG    1        1.853  -6.004   1.076  0.00  0.00    -0.075 C 
ENDBRANCH  30  31
ENDBRANCH   3  30
TORSDOF 9
