REMARK  Name = DB01080
REMARK                            x       y       z     vdW  Elec       q    Type
REMARK                         _______ _______ _______ _____ _____    ______ ____
ROOT
ATOM      1  C   LIG    1        0.065   0.050   0.118  0.00  0.00    +0.034 C 
ENDROOT
BRANCH   1   2
ATOM      2  C   LIG    1       -0.539   1.470   0.019  0.00  0.00    +0.122 C 
BRANCH   2   3
ATOM      3  C   LIG    1       -2.060   1.452  -0.157  0.00  0.00    +0.305 C 
ATOM      4  O   LIG    1       -2.848   1.659   0.763  0.00  0.00    -0.251 OA
BRANCH   3   5
ATOM      5  O   LIG    1       -2.417   1.179  -1.445  0.00  0.00    -0.481 OA
ATOM      6  H   LIG    1       -3.369   1.167  -1.563  0.00  0.00    +0.295 HD
ENDBRANCH   3   5
ENDBRANCH   2   3
ENDBRANCH   1   2
BRANCH   1   7
ATOM      7  C   LIG    1        1.608   0.026   0.212  0.00  0.00    +0.074 C 
BRANCH   7   8
ATOM      8  N   LIG    1        2.036   0.663   1.444  0.00  0.00    -0.324 NA
ATOM      9  H   LIG    1        3.043   0.644   1.516  0.00  0.00    +0.119 HD
ATOM     10  H   LIG    1        1.662   0.169   2.242  0.00  0.00    +0.119 HD
ENDBRANCH   7   8
BRANCH   7  11
ATOM     11  C   LIG    1        2.169  -1.378   0.085  0.00  0.00    -0.016 C 
ATOM     12  C   LIG    1        2.951  -1.801  -0.920  0.00  0.00    +0.005 C 
ENDBRANCH   7  11
ENDBRANCH   1   7
TORSDOF 6
