REMARK  Name = DB01177
REMARK                            x       y       z     vdW  Elec       q    Type
REMARK                         _______ _______ _______ _____ _____    ______ ____
ROOT
ATOM      1  C   LIG    1        1.402  -0.131  -0.003  0.00  0.00    +0.158 C 
ATOM      2  C   LIG    1        1.849  -1.603  -0.149  0.00  0.00    +0.030 A 
ATOM      3  C   LIG    1        1.707  -2.254  -1.387  0.00  0.00    +0.134 A 
ATOM      4  C   LIG    1        2.006  -3.626  -1.558  0.00  0.00    +0.078 A 
ATOM      5  C   LIG    1        1.863  -4.299  -2.915  0.00  0.00    +0.198 C 
ATOM      6  C   LIG    1        2.564  -5.611  -3.091  0.00  0.00    +0.033 A 
ATOM      7  C   LIG    1        2.789  -6.118  -4.383  0.00  0.00    +0.012 A 
ATOM      8  C   LIG    1        3.445  -7.331  -4.573  0.00  0.00    +0.001 A 
ATOM      9  C   LIG    1        3.887  -8.059  -3.474  0.00  0.00    +0.001 A 
ATOM     10  C   LIG    1        3.673  -7.572  -2.187  0.00  0.00    +0.012 A 
ATOM     11  C   LIG    1        3.012  -6.349  -1.977  0.00  0.00    +0.033 A 
ATOM     12  C   LIG    1        2.801  -5.845  -0.582  0.00  0.00    +0.198 C 
ATOM     13  O   LIG    1        3.023  -6.582   0.382  0.00  0.00    -0.286 OA
ATOM     14  O   LIG    1        1.312  -3.759  -3.877  0.00  0.00    -0.286 OA
ATOM     15  C   LIG    1        2.457  -4.370  -0.436  0.00  0.00    +0.078 A 
ATOM     16  C   LIG    1        2.596  -3.708   0.806  0.00  0.00    +0.132 A 
ATOM     17  C   LIG    1        2.293  -2.346   0.966  0.00  0.00    +0.007 A 
ATOM     18  C   LIG    1        2.502  -1.659   2.333  0.00  0.00    +0.082 C 
ATOM     19  C   LIG    1        1.646  -0.388   2.539  0.00  0.00    +0.130 C 
ATOM     20  C   LIG    1        1.886   0.521   1.314  0.00  0.00    +0.079 C 
ENDROOT
BRANCH  19  21
ATOM     21  C   LIG    1        2.104   0.317   3.848  0.00  0.00    +0.162 C 
ATOM     22  C   LIG    1        1.303   0.117   5.139  0.00  0.00    +0.089 C 
ATOM     23  O   LIG    1        3.108   1.030   3.869  0.00  0.00    -0.295 OA
ENDBRANCH  19  21
BRANCH  16  24
ATOM     24  O   LIG    1        3.067  -4.374   1.916  0.00  0.00    -0.506 OA
ATOM     25  H   LIG    1        3.120  -3.816   2.695  0.00  0.00    +0.292 HD
ENDBRANCH  16  24
BRANCH   3  26
ATOM     26  O   LIG    1        1.260  -1.489  -2.442  0.00  0.00    -0.506 OA
ATOM     27  H   LIG    1        1.069  -0.582  -2.192  0.00  0.00    +0.292 HD
ENDBRANCH   3  26
BRANCH  19  28
ATOM     28  O   LIG    1        0.279  -0.741   2.684  0.00  0.00    -0.381 OA
ATOM     29  H   LIG    1       -0.244   0.064   2.683  0.00  0.00    +0.211 HD
ENDBRANCH  19  28
BRANCH   1  30
ATOM     30  O   LIG    1       -0.016  -0.068  -0.193  0.00  0.00    -0.343 OA
BRANCH  30  31
ATOM     31  C   LIG    1       -0.579   1.202  -0.380  0.00  0.00    +0.253 C 
ATOM     32  C   LIG    1       -1.658   1.101  -1.470  0.00  0.00    +0.082 C 
ATOM     33  C   LIG    1       -2.924   0.371  -0.985  0.00  0.00    +0.087 C 
ATOM     34  C   LIG    1       -3.411   0.979   0.346  0.00  0.00    +0.160 C 
ATOM     35  C   LIG    1       -2.237   1.011   1.350  0.00  0.00    +0.148 C 
ATOM     36  C   LIG    1       -2.600   1.610   2.719  0.00  0.00    +0.041 C 
ATOM     37  O   LIG    1       -1.105   1.716   0.821  0.00  0.00    -0.346 OA
BRANCH  33  38
ATOM     38  N   LIG    1       -3.946   0.276  -2.014  0.00  0.00    -0.325 NA
ATOM     39  H   LIG    1       -4.728  -0.264  -1.673  0.00  0.00    +0.119 HD
ATOM     40  H   LIG    1       -3.581  -0.215  -2.818  0.00  0.00    +0.119 HD
ENDBRANCH  33  38
BRANCH  34  41
ATOM     41  O   LIG    1       -4.010   2.256   0.180  0.00  0.00    -0.388 OA
ATOM     42  H   LIG    1       -3.386   2.824  -0.278  0.00  0.00    +0.210 HD
ENDBRANCH  34  41
ENDBRANCH  30  31
ENDBRANCH   1  30
TORSDOF 8
