REMARK  Name = DB01520
REMARK                            x       y       z     vdW  Elec       q    Type
REMARK                         _______ _______ _______ _____ _____    ______ ____
ROOT
ATOM      1  C   LIG    1        1.574  -0.186   0.021  0.00  0.00    -0.033 C 
ATOM      2  C   LIG    1        2.044   0.640   1.272  0.00  0.00    -0.007 C 
ATOM      3  C   LIG    1        3.556   0.951   1.284  0.00  0.00    -0.001 C 
ATOM      4  C   LIG    1        4.005   1.672   0.005  0.00  0.00    -0.000 C 
ATOM      5  C   LIG    1        3.572   0.901  -1.251  0.00  0.00    -0.001 C 
ATOM      6  C   LIG    1        2.058   0.601  -1.247  0.00  0.00    -0.007 C 
ENDROOT
BRANCH   1   7
ATOM      7  N   LIG    1       -0.004  -0.149   0.009  0.00  0.00    +0.386 N 
ATOM      8  H   LIG    1       -0.258   0.829   0.009  0.00  0.00    -0.081 HD
ATOM      9  C   LIG    1       -0.662  -0.769   1.278  0.00  0.00    -0.078 C 
ATOM     10  C   LIG    1       -2.180  -0.516   1.263  0.00  0.00    -0.019 C 
ATOM     11  C   LIG    1       -2.846  -1.070  -0.003  0.00  0.00    -0.004 C 
ATOM     12  C   LIG    1       -2.170  -0.517  -1.263  0.00  0.00    -0.019 C 
ATOM     13  C   LIG    1       -0.652  -0.767  -1.266  0.00  0.00    -0.078 C 
ENDBRANCH   1   7
BRANCH   1  18
ATOM     14  S   LIG    1        2.443  -2.553   1.470  0.00  0.00    -0.103 S 
ATOM     15  C   LIG    1        2.850  -3.981   0.587  0.00  0.00    +0.045 A 
ATOM     16  C   LIG    1        2.700  -3.793  -0.771  0.00  0.00    +0.008 A 
ATOM     17  C   LIG    1        2.260  -2.506  -1.086  0.00  0.00    +0.010 A 
ATOM     18  C   LIG    1        2.044  -1.659   0.011  0.00  0.00    -0.021 A 
ENDBRANCH   1  18
TORSDOF 2
