REMARK  Name = DB01581
REMARK                            x       y       z     vdW  Elec       q    Type
REMARK                         _______ _______ _______ _____ _____    ______ ____
ROOT
ATOM      1  S   LIG    1       -0.081   0.007   0.000  0.00  0.00    +0.075 S 
ATOM      2  O   LIG    1       -0.535  -0.564   1.274  0.00  0.00    -0.150 OA
ATOM      3  O   LIG    1       -0.535  -0.564  -1.274  0.00  0.00    -0.150 OA
ENDROOT
BRANCH   1   4
ATOM      4  C   LIG    1       -0.457   1.755  -0.000  0.00  0.00    +0.109 A 
ATOM      5  C   LIG    1       -0.593   2.436  -1.212  0.00  0.00    +0.030 A 
ATOM      6  C   LIG    1       -0.874   3.799  -1.211  0.00  0.00    +0.024 A 
ATOM      7  C   LIG    1       -1.014   4.478   0.000  0.00  0.00    +0.025 A 
ATOM      8  C   LIG    1       -0.874   3.800   1.211  0.00  0.00    +0.024 A 
ATOM      9  C   LIG    1       -0.593   2.436   1.212  0.00  0.00    +0.030 A 
BRANCH   7  10
ATOM     10  N   LIG    1       -1.294   5.843   0.000  0.00  0.00    -0.358 N 
ATOM     11  H   LIG    1       -1.394   6.330   0.879  0.00  0.00    +0.142 HD
ATOM     12  H   LIG    1       -1.394   6.330  -0.879  0.00  0.00    +0.142 HD
ENDBRANCH   7  10
ENDBRANCH   1   4
BRANCH   1  13
ATOM     13  N   LIG    1        1.690  -0.080   0.000  0.00  0.00    -0.184 N 
ATOM     14  H   LIG    1        2.214   0.783   0.000  0.00  0.00    +0.177 HD
BRANCH  13  15
ATOM     15  C   LIG    1        2.405  -1.283   0.000  0.00  0.00    +0.235 A 
ATOM     16  N   LIG    1        3.759  -1.165   0.000  0.00  0.00    -0.222 NA
ATOM     17  C   LIG    1        4.474  -2.321   0.000  0.00  0.00    +0.116 A 
ATOM     18  C   LIG    1        3.868  -3.579   0.000  0.00  0.00    +0.043 A 
ATOM     19  C   LIG    1        2.470  -3.601   0.000  0.00  0.00    +0.043 A 
ATOM     20  C   LIG    1        1.693  -4.903   0.000  0.00  0.00    +0.066 C 
ATOM     21  N   LIG    1        1.725  -2.463   0.000  0.00  0.00    -0.219 NA
ENDBRANCH  13  15
ENDBRANCH   1  13
TORSDOF 4
