REMARK  Name = DB01025
REMARK                            x       y       z     vdW  Elec       q    Type
REMARK                         _______ _______ _______ _____ _____    ______ ____
ROOT
ATOM      1  O   LIG    1        5.709   0.043  -0.075  0.00  0.00    -0.437 OA
ATOM      2  C   LIG    1        6.455  -0.538   0.932  0.00  0.00    +0.233 A 
ATOM      3  C   LIG    1        5.872  -1.174   2.034  0.00  0.00    +0.085 A 
ATOM      4  C   LIG    1        6.733  -1.726   2.989  0.00  0.00    +0.035 A 
ATOM      5  C   LIG    1        8.132  -1.642   2.843  0.00  0.00    +0.099 A 
ATOM      6  C   LIG    1        8.615  -0.975   1.689  0.00  0.00    +0.134 A 
ATOM      7  C   LIG    1        4.389  -1.241   2.150  0.00  0.00    +0.202 A 
ATOM      8  C   LIG    1        3.628  -0.600   1.039  0.00  0.00    +0.065 A 
ATOM      9  C   LIG    1        2.226  -0.586   1.015  0.00  0.00    +0.019 A 
ATOM     10  C   LIG    1        1.530   0.021  -0.037  0.00  0.00    -0.044 A 
ATOM     11  C   LIG    1        2.250   0.622  -1.077  0.00  0.00    +0.007 A 
ATOM     12  C   LIG    1        3.644   0.617  -1.068  0.00  0.00    +0.047 A 
ATOM     13  O   LIG    1        3.830  -1.791   3.102  0.00  0.00    -0.286 OA
ATOM     14  N   LIG    1        7.792  -0.436   0.755  0.00  0.00    -0.197 NA
ATOM     15  C   LIG    1        4.328   0.009  -0.016  0.00  0.00    +0.141 A 
ENDROOT
BRANCH   6  16
ATOM     16  N   LIG    1        9.973  -0.811   1.404  0.00  0.00    -0.342 N 
ATOM     17  H   LIG    1       10.248  -0.325   0.563  0.00  0.00    +0.144 HD
ATOM     18  H   LIG    1       10.660  -1.181   2.046  0.00  0.00    +0.144 HD
ENDBRANCH   6  16
BRANCH  10  19
ATOM     19  C   LIG    1       -0.001   0.026  -0.045  0.00  0.00    +0.013 C 
ATOM     20  C   LIG    1       -0.575   1.454   0.036  0.00  0.00    +0.012 C 
ATOM     21  C   LIG    1       -0.575  -0.758  -1.241  0.00  0.00    +0.012 C 
ENDBRANCH  10  19
BRANCH   5  22
ATOM     22  C   LIG    1        9.040  -2.252   3.901  0.00  0.00    +0.340 C 
ATOM     23  O   LIG    1       10.267  -2.215   3.837  0.00  0.00    -0.245 OA
BRANCH  22  24
ATOM     24  O   LIG    1        8.390  -2.853   4.942  0.00  0.00    -0.477 OA
ATOM     25  H   LIG    1        8.997  -3.224   5.585  0.00  0.00    +0.295 HD
ENDBRANCH  22  24
ENDBRANCH   5  22
TORSDOF 4
