REMARK  Name = DB01001
REMARK                            x       y       z     vdW  Elec       q    Type
REMARK                         _______ _______ _______ _____ _____    ______ ____
ROOT
ATOM      1  C   LIG    1        1.571   0.024  -0.142  0.00  0.00    -0.017 A 
ATOM      2  C   LIG    1        2.163  -0.434   1.040  0.00  0.00    +0.010 A 
ATOM      3  C   LIG    1        3.550  -0.461   1.169  0.00  0.00    +0.046 A 
ATOM      4  C   LIG    1        4.364  -0.029   0.121  0.00  0.00    +0.122 A 
ATOM      5  C   LIG    1        3.785   0.438  -1.069  0.00  0.00    +0.020 A 
ATOM      6  C   LIG    1        2.391   0.460  -1.190  0.00  0.00    +0.015 A 
ENDROOT
BRANCH   4   7
ATOM      7  O   LIG    1        5.725  -0.068   0.282  0.00  0.00    -0.506 OA
ATOM      8  H   LIG    1        5.990  -0.403   1.142  0.00  0.00    +0.292 HD
ENDBRANCH   4   7
BRANCH   1   9
ATOM      9  C   LIG    1        0.050   0.059  -0.272  0.00  0.00    +0.158 C 
BRANCH   9  10
ATOM     10  O   LIG    1       -0.390  -0.519  -1.490  0.00  0.00    -0.386 OA
ATOM     11  H   LIG    1       -0.180  -1.455  -1.476  0.00  0.00    +0.210 HD
ENDBRANCH   9  10
BRANCH   9  12
ATOM     12  C   LIG    1       -0.482   1.506  -0.156  0.00  0.00    +0.117 C 
BRANCH  12  13
ATOM     13  N   LIG    1       -1.940   1.525  -0.018  0.00  0.00    -0.309 NA
ATOM     14  H   LIG    1       -2.229   0.925   0.741  0.00  0.00    +0.123 HD
BRANCH  13  15
ATOM     15  C   LIG    1       -2.594   2.835   0.100  0.00  0.00    +0.011 C 
ATOM     16  C   LIG    1       -2.081   3.597   1.345  0.00  0.00    +0.027 C 
ATOM     17  C   LIG    1       -2.370   3.666  -1.186  0.00  0.00    +0.027 C 
ATOM     18  C   LIG    1       -4.099   2.537   0.265  0.00  0.00    +0.027 C 
ENDBRANCH  13  15
ENDBRANCH  12  13
ENDBRANCH   9  12
ENDBRANCH   1   9
BRANCH   5  19
ATOM     19  C   LIG    1        4.641   0.922  -2.233  0.00  0.00    +0.194 C 
BRANCH  19  20
ATOM     20  O   LIG    1        5.158   2.220  -2.028  0.00  0.00    -0.390 OA
ATOM     21  H   LIG    1        4.423   2.820  -1.880  0.00  0.00    +0.210 HD
ENDBRANCH  19  20
ENDBRANCH   5  19
TORSDOF 8
