REMARK  Name = DB01153
REMARK                            x       y       z     vdW  Elec       q    Type
REMARK                         _______ _______ _______ _____ _____    ______ ____
ROOT
ATOM      1  C   LIG    1        1.311   0.146   0.069  0.00  0.00    +0.170 C 
ENDROOT
BRANCH   1   9
ATOM      2 CL   LIG    1        4.066   1.620   0.060  0.00  0.00    -0.083 Cl
ATOM      3  C   LIG    1        3.194   1.165   1.484  0.00  0.00    +0.048 A 
ATOM      4  C   LIG    1        3.758   1.468   2.725  0.00  0.00    +0.040 A 
ATOM      5  C   LIG    1        3.104   1.111   3.904  0.00  0.00    +0.042 A 
ATOM      6  C   LIG    1        1.882   0.445   3.845  0.00  0.00    +0.020 A 
ATOM      7  C   LIG    1        1.314   0.140   2.609  0.00  0.00    +0.009 A 
ATOM      8 CL   LIG    1        3.810   1.489   5.433  0.00  0.00    -0.083 Cl
ATOM      9  C   LIG    1        1.956   0.501   1.416  0.00  0.00    +0.001 A 
ENDBRANCH   1   9
BRANCH   1  10
ATOM     10  C   LIG    1        1.747  -1.257  -0.405  0.00  0.00    +0.159 C 
BRANCH  10  11
ATOM     11  N   LIG    1        1.171  -1.580  -1.703  0.00  0.00    -0.334 N 
ATOM     12  C   LIG    1        1.669  -1.268  -2.945  0.00  0.00    +0.199 A 
ATOM     13  N   LIG    1        0.906  -1.676  -3.932  0.00  0.00    -0.244 NA
ATOM     14  C   LIG    1       -0.119  -2.265  -3.340  0.00  0.00    +0.130 A 
ATOM     15  C   LIG    1       -0.010  -2.229  -1.958  0.00  0.00    +0.107 A 
ENDBRANCH  10  11
ENDBRANCH   1  10
BRANCH   1  16
ATOM     16  O   LIG    1       -0.117   0.188   0.141  0.00  0.00    -0.366 OA
BRANCH  16  17
ATOM     17  C   LIG    1       -0.697   1.485   0.245  0.00  0.00    +0.197 C 
BRANCH  17  18
ATOM     18  C   LIG    1       -2.197   1.361   0.081  0.00  0.00    -0.007 A 
ATOM     19  C   LIG    1       -3.144   1.661   1.038  0.00  0.00    +0.052 A 
ATOM     20  S   LIG    1       -4.792   1.402   0.542  0.00  0.00    -0.095 S 
ATOM     21  C   LIG    1       -4.240   0.870  -1.042  0.00  0.00    +0.038 A 
ATOM     22  C   LIG    1       -5.030   0.446  -2.127  0.00  0.00    +0.055 A 
ATOM     23  C   LIG    1       -4.389   0.064  -3.302  0.00  0.00    +0.021 A 
ATOM     24  C   LIG    1       -3.005   0.102  -3.410  0.00  0.00    +0.002 A 
ATOM     25  C   LIG    1       -2.213   0.521  -2.344  0.00  0.00    +0.009 A 
ATOM     26 CL   LIG    1       -6.756   0.386  -2.036  0.00  0.00    -0.082 Cl
ATOM     27  C   LIG    1       -2.812   0.911  -1.131  0.00  0.00    -0.004 A 
ENDBRANCH  17  18
ENDBRANCH  16  17
ENDBRANCH   1  16
TORSDOF 6
