REMARK  Name = DB01107
REMARK                            x       y       z     vdW  Elec       q    Type
REMARK                         _______ _______ _______ _____ _____    ______ ____
ROOT
ATOM      1  O   LIG    1        0.040  -0.173  -2.375  0.00  0.00    -0.296 OA
ATOM      2  C   LIG    1       -0.186  -0.714  -1.290  0.00  0.00    +0.152 C 
ATOM      3  C   LIG    1       -0.745  -2.150  -1.191  0.00  0.00    +0.070 C 
ATOM      4  C   LIG    1       -0.532  -2.947  -2.497  0.00  0.00    +0.017 C 
ATOM      5  C   LIG    1       -0.139  -2.866   0.033  0.00  0.00    +0.115 C 
ATOM      6  N   LIG    1       -0.478  -2.112   1.241  0.00  0.00    -0.314 N 
ATOM      7  H   LIG    1       -0.825  -2.620   2.041  0.00  0.00    +0.149 HD
ATOM      8  C   LIG    1       -0.386  -0.767   1.342  0.00  0.00    +0.226 C 
ATOM      9  O   LIG    1       -0.679  -0.225   2.407  0.00  0.00    -0.275 OA
ATOM     10  C   LIG    1        0.115   0.013   0.066  0.00  0.00    +0.105 C 
ENDROOT
BRANCH  10  11
ATOM     11  C   LIG    1       -0.613   1.406   0.032  0.00  0.00    +0.020 C 
ATOM     12  C   LIG    1       -2.148   1.405  -0.165  0.00  0.00    +0.005 C 
ENDBRANCH  10  11
BRANCH  10  13
ATOM     13  C   LIG    1        1.678   0.114   0.172  0.00  0.00    +0.020 C 
ATOM     14  C   LIG    1        2.249   0.911   1.363  0.00  0.00    +0.005 C 
ENDBRANCH  10  13
TORSDOF 2
