REMARK  Name = DB01096
REMARK                            x       y       z     vdW  Elec       q    Type
REMARK                         _______ _______ _______ _____ _____    ______ ____
ROOT
ATOM      1  C   LIG    1        3.664  -2.830   4.580  0.00  0.00    +0.008 A 
ATOM      2  C   LIG    1        2.368  -3.359   4.396  0.00  0.00    +0.129 A 
ATOM      3  C   LIG    1        1.716  -3.125   3.179  0.00  0.00    +0.056 A 
ATOM      4  C   LIG    1        2.330  -2.412   2.150  0.00  0.00    +0.033 A 
ATOM      5  C   LIG    1        3.615  -1.869   2.332  0.00  0.00    -0.026 A 
ATOM      6  C   LIG    1        4.269  -1.032   1.242  0.00  0.00    +0.039 C 
ATOM      7  C   LIG    1        3.673  -1.372  -0.133  0.00  0.00    +0.028 C 
ATOM      8  C   LIG    1        2.126  -1.369  -0.122  0.00  0.00    +0.084 C 
ATOM      9  N   LIG    1        1.621  -2.249   0.942  0.00  0.00    -0.339 N 
ATOM     10  H   LIG    1        0.641  -2.483   0.883  0.00  0.00    +0.146 HD
ATOM     11  C   LIG    1        4.263  -2.102   3.547  0.00  0.00    +0.013 A 
ENDROOT
BRANCH   2  12
ATOM     12  N   LIG    1        1.670  -4.158   5.431  0.00  0.00    +0.006 N 
ATOM     13  O   LIG    1        2.316  -4.952   6.108  0.00  0.00    -0.130 OA
BRANCH  12  14
ATOM     14  O   LIG    1        0.455  -4.017   5.543  0.00  0.00    -0.396 OA
ATOM     15  H   LIG    1       -0.016  -4.507   6.188  0.00  0.00    +0.329 HD
ENDBRANCH  12  14
ENDBRANCH   2  12
BRANCH   1  16
ATOM     16  C   LIG    1        4.443  -2.978   5.885  0.00  0.00    +0.193 C 
BRANCH  16  17
ATOM     17  O   LIG    1        5.240  -4.143   5.910  0.00  0.00    -0.390 OA
ATOM     18  H   LIG    1        5.643  -4.220   6.778  0.00  0.00    +0.210 HD
ENDBRANCH  16  17
ENDBRANCH   1  16
BRANCH   8  19
ATOM     19  C   LIG    1        1.530   0.051   0.042  0.00  0.00    +0.103 C 
BRANCH  19  20
ATOM     20  N   LIG    1        0.090   0.048  -0.208  0.00  0.00    -0.312 NA
ATOM     21  H   LIG    1       -0.114  -0.413  -1.083  0.00  0.00    +0.122 HD
BRANCH  20  22
ATOM     22  C   LIG    1       -0.524   1.374  -0.184  0.00  0.00    +0.048 C 
ATOM     23  C   LIG    1       -1.963   1.228  -0.706  0.00  0.00    +0.023 C 
ATOM     24  C   LIG    1       -0.501   1.993   1.229  0.00  0.00    +0.023 C 
ENDBRANCH  20  22
ENDBRANCH  19  20
ENDBRANCH   8  19
TORSDOF 7
