REMARK  Name = DB01262
REMARK                            x       y       z     vdW  Elec       q    Type
REMARK                         _______ _______ _______ _____ _____    ______ ____
ROOT
ATOM      1  O4* LIG    1        2.232  -0.758  -0.750  0.00  0.00    -0.348 OA
ATOM      2  C1* LIG    1        1.579   0.052   0.189  0.00  0.00    +0.228 C 
ATOM      3  C2* LIG    1        2.110  -0.404   1.542  0.00  0.00    +0.088 C 
ATOM      4  C3* LIG    1        3.564  -0.685   1.185  0.00  0.00    +0.150 C 
ATOM      5  C4* LIG    1        3.492  -1.210  -0.260  0.00  0.00    +0.175 C 
ENDROOT
BRANCH   2   6
ATOM      6  N   LIG    1        0.126   0.042   0.018  0.00  0.00    -0.256 N 
ATOM      7  C   LIG    1       -0.545  -1.058  -0.505  0.00  0.00    +0.209 A 
ATOM      8  N   LIG    1       -1.834  -1.105  -0.600  0.00  0.00    -0.205 NA
ATOM      9  C   LIG    1       -2.529   0.016  -0.143  0.00  0.00    +0.218 A 
ATOM     10  N   LIG    1       -2.006   1.073   0.376  0.00  0.00    -0.159 NA
ATOM     11  C   LIG    1       -0.599   1.126   0.529  0.00  0.00    +0.354 A 
ATOM     12  O   LIG    1       -0.001   2.055   1.078  0.00  0.00    -0.244 OA
BRANCH   9  13
ATOM     13  N   LIG    1       -3.895  -0.008  -0.259  0.00  0.00    -0.327 N 
ATOM     14  H   LIG    1       -4.445   0.777   0.056  0.00  0.00    +0.145 HD
ATOM     15  H   LIG    1       -4.361  -0.810  -0.657  0.00  0.00    +0.145 HD
ENDBRANCH   9  13
ENDBRANCH   2   6
BRANCH   4  16
ATOM     16  O3* LIG    1        4.368   0.477   1.301  0.00  0.00    -0.389 OA
ATOM     17  H3* LIG    1        5.225   0.298   0.909  0.00  0.00    +0.210 HD
ENDBRANCH   4  16
BRANCH   5  18
ATOM     18  C5* LIG    1        3.564  -2.744  -0.432  0.00  0.00    +0.190 C 
BRANCH  18  19
ATOM     19  O5* LIG    1        2.615  -3.430   0.363  0.00  0.00    -0.392 OA
ATOM     20  H5* LIG    1        2.708  -4.372   0.207  0.00  0.00    +0.210 HD
ENDBRANCH  18  19
ENDBRANCH   5  18
TORSDOF 5
