REMARK  Name = DB01261
REMARK                            x       y       z     vdW  Elec       q    Type
REMARK                         _______ _______ _______ _____ _____    ______ ____
ROOT
ATOM      1  C   LIG    1       -5.191   1.568   2.650  0.00  0.00    +0.238 A 
ATOM      2  N   LIG    1       -5.609   0.323   2.627  0.00  0.00    -0.125 NA
ATOM      3  N   LIG    1       -4.815  -0.365   1.713  0.00  0.00    -0.132 NA
ATOM      4  C   LIG    1       -3.958   0.494   1.223  0.00  0.00    +0.151 A 
ATOM      5  C   LIG    1       -2.862   0.222   0.199  0.00  0.00    +0.184 C 
ATOM      6  N   LIG    1       -1.973   1.401   0.070  0.00  0.00    -0.292 N 
ATOM      7  C   LIG    1       -0.622   1.323   0.216  0.00  0.00    +0.217 C 
ATOM      8  O   LIG    1        0.083   2.328   0.335  0.00  0.00    -0.276 OA
ATOM      9  C   LIG    1       -2.652   2.717   0.093  0.00  0.00    +0.130 C 
ATOM     10  C   LIG    1       -3.311   2.906   1.487  0.00  0.00    +0.144 C 
ATOM     11  N   LIG    1       -4.171   1.752   1.742  0.00  0.00    -0.305 N 
ENDROOT
BRANCH   1  13
ATOM     12  F   LIG    1       -6.700   2.210   4.357  0.00  0.00    -0.163 F 
ATOM     13  C   LIG    1       -5.743   2.664   3.546  0.00  0.00    +0.452 C 
ATOM     14  F   LIG    1       -4.784   3.183   4.312  0.00  0.00    -0.163 F 
ATOM     15  F   LIG    1       -6.267   3.653   2.823  0.00  0.00    -0.163 F 
ENDBRANCH   1  13
BRANCH   7  16
ATOM     16  C   LIG    1        0.066  -0.058   0.087  0.00  0.00    +0.114 C 
BRANCH  16  17
ATOM     17  C   LIG    1        1.599  -0.035  -0.162  0.00  0.00    +0.064 C 
BRANCH  17  18
ATOM     18  N   LIG    1        1.885   0.450  -1.505  0.00  0.00    -0.327 NA
ATOM     19  H   LIG    1        1.476  -0.175  -2.186  0.00  0.00    +0.118 HD
ATOM     20  H   LIG    1        2.882   0.430  -1.666  0.00  0.00    +0.118 HD
ENDBRANCH  17  18
BRANCH  17  21
ATOM     21  C   LIG    1        2.242  -1.426   0.054  0.00  0.00    +0.057 C 
BRANCH  21  22
ATOM     22  C   LIG    1        3.768  -1.427  -0.007  0.00  0.00    -0.008 A 
ATOM     23  C   LIG    1        4.507  -1.150   1.149  0.00  0.00    +0.047 A 
ATOM     24  C   LIG    1        5.901  -1.146   1.111  0.00  0.00    +0.159 A 
ATOM     25  C   LIG    1        6.567  -1.419  -0.085  0.00  0.00    +0.161 A 
ATOM     26  C   LIG    1        5.837  -1.697  -1.240  0.00  0.00    +0.080 A 
ATOM     27  F   LIG    1        7.919  -1.416  -0.126  0.00  0.00    -0.202 F 
ATOM     28  F   LIG    1        6.605  -0.875   2.234  0.00  0.00    -0.202 F 
ATOM     29  C   LIG    1        4.442  -1.702  -1.204  0.00  0.00    +0.129 A 
ATOM     30  F   LIG    1        3.751  -1.974  -2.336  0.00  0.00    -0.205 F 
ENDBRANCH  21  22
ENDBRANCH  17  21
ENDBRANCH  16  17
ENDBRANCH   7  16
TORSDOF 6
