REMARK  Name = DB01255
REMARK                            x       y       z     vdW  Elec       q    Type
REMARK                         _______ _______ _______ _____ _____    ______ ____
ROOT
ATOM      1  N   LIG    1       -0.578   1.517   0.130  0.00  0.00    -0.311 N 
ATOM      2  H   LIG    1        0.020   2.267   0.446  0.00  0.00    +0.149 HD
ATOM      3  C   LIG    1       -0.013   0.347  -0.218  0.00  0.00    +0.230 C 
ATOM      4  O   LIG    1       -0.650  -0.641  -0.589  0.00  0.00    -0.274 OA
ENDROOT
BRANCH   1   5
ATOM      5  C   LIG    1       -2.015   1.796   0.119  0.00  0.00    +0.074 C 
ATOM      6  C   LIG    1       -2.307   3.016   1.013  0.00  0.00    +0.028 C 
BRANCH   5   7
ATOM      7  C   LIG    1       -2.561   1.974  -1.322  0.00  0.00    +0.057 C 
BRANCH   7   9
ATOM      8  C   LIG    1       -4.732   3.258  -1.555  0.00  0.00    +0.004 A 
ATOM      9  C   LIG    1       -4.082   2.030  -1.402  0.00  0.00    -0.046 A 
ATOM     10  C   LIG    1       -4.825   0.849  -1.325  0.00  0.00    +0.004 A 
ATOM     11  C   LIG    1       -6.215   0.897  -1.396  0.00  0.00    +0.000 A 
ATOM     12  C   LIG    1       -6.857   2.125  -1.546  0.00  0.00    +0.000 A 
ATOM     13  C   LIG    1       -6.121   3.305  -1.626  0.00  0.00    +0.000 A 
ENDBRANCH   7   9
ENDBRANCH   5   7
ENDBRANCH   1   5
BRANCH   3  14
ATOM     14  C   LIG    1        1.526   0.278  -0.117  0.00  0.00    +0.138 C 
BRANCH  14  15
ATOM     15  N   LIG    1        1.833  -0.646   0.989  0.00  0.00    -0.320 NA
ATOM     16  H   LIG    1        1.407  -1.549   0.837  0.00  0.00    +0.119 HD
ATOM     17  H   LIG    1        1.487  -0.295   1.871  0.00  0.00    +0.119 HD
ENDBRANCH  14  15
BRANCH  14  18
ATOM     18  C   LIG    1        2.173  -0.153  -1.455  0.00  0.00    +0.028 C 
BRANCH  18  19
ATOM     19  C   LIG    1        3.708  -0.052  -1.456  0.00  0.00    +0.003 C 
BRANCH  19  20
ATOM     20  C   LIG    1        4.326  -0.475  -2.800  0.00  0.00    +0.015 C 
BRANCH  20  21
ATOM     21  C   LIG    1        5.861  -0.396  -2.819  0.00  0.00    +0.077 C 
BRANCH  21  22
ATOM     22  N   LIG    1        6.308   0.983  -2.783  0.00  0.00    -0.330 NA
ATOM     23  H   LIG    1        5.989   1.464  -3.612  0.00  0.00    +0.118 HD
ATOM     24  H   LIG    1        7.317   1.014  -2.805  0.00  0.00    +0.118 HD
ENDBRANCH  21  22
ENDBRANCH  20  21
ENDBRANCH  19  20
ENDBRANCH  18  19
ENDBRANCH  14  18
ENDBRANCH   3  14
TORSDOF 10
