REMARK  Name = DB01604
REMARK                            x       y       z     vdW  Elec       q    Type
REMARK                         _______ _______ _______ _____ _____    ______ ____
ROOT
ATOM      1  S   LIG    1        0.846  -3.324  -0.750  0.00  0.00    -0.127 S 
ATOM      2  C   LIG    1        1.982  -3.804  -2.092  0.00  0.00    +0.042 C 
ATOM      3  C   LIG    1        1.146  -4.324  -3.279  0.00  0.00    +0.025 C 
ATOM      4  C   LIG    1        2.902  -4.934  -1.562  0.00  0.00    +0.025 C 
ATOM      5  C   LIG    1        2.741  -2.471  -2.379  0.00  0.00    +0.201 C 
ATOM      6  N   LIG    1        2.900  -1.792  -1.085  0.00  0.00    -0.271 N 
ATOM      7  C   LIG    1        2.600  -0.444  -0.867  0.00  0.00    +0.240 C 
ATOM      8  C   LIG    1        1.873  -0.799   0.459  0.00  0.00    +0.190 C 
ATOM      9  O   LIG    1        2.772   0.577  -1.532  0.00  0.00    -0.273 OA
ATOM     10  C   LIG    1        2.088  -2.281   0.059  0.00  0.00    +0.165 C 
ENDROOT
BRANCH   8  11
ATOM     11  N   LIG    1        0.495  -0.331   0.695  0.00  0.00    -0.300 N 
ATOM     12  H   LIG    1        0.218  -0.334   1.666  0.00  0.00    +0.150 HD
ATOM     13  C   LIG    1       -0.466   0.004  -0.192  0.00  0.00    +0.235 C 
ATOM     14  O   LIG    1       -0.333  -0.024  -1.418  0.00  0.00    -0.274 OA
BRANCH  13  15
ATOM     15  C   LIG    1       -1.819   0.441   0.415  0.00  0.00    +0.168 C 
BRANCH  15  16
ATOM     16  C   LIG    1       -2.243   1.819  -0.058  0.00  0.00    -0.022 A 
ATOM     17  C   LIG    1       -3.446   2.017  -0.752  0.00  0.00    +0.005 A 
ATOM     18  C   LIG    1       -3.822   3.292  -1.164  0.00  0.00    +0.000 A 
ATOM     19  C   LIG    1       -3.000   4.380  -0.881  0.00  0.00    +0.000 A 
ATOM     20  C   LIG    1       -1.806   4.203  -0.189  0.00  0.00    +0.000 A 
ATOM     21  C   LIG    1       -1.431   2.928   0.224  0.00  0.00    +0.005 A 
ENDBRANCH  15  16
BRANCH  15  22
ATOM     22  N   LIG    1       -2.731  -0.699   0.195  0.00  0.00    -0.316 NA
ATOM     23  H   LIG    1       -3.647  -0.502   0.573  0.00  0.00    +0.119 HD
ATOM     24  H   LIG    1       -2.398  -1.524   0.673  0.00  0.00    +0.119 HD
ENDBRANCH  15  22
ENDBRANCH  13  15
ENDBRANCH   8  11
BRANCH   5  25
ATOM     25  C   LIG    1        3.996  -2.569  -3.274  0.00  0.00    +0.332 C 
ATOM     26  O   LIG    1        3.911  -2.978  -4.434  0.00  0.00    -0.249 OA
BRANCH  25  27
ATOM     27  O   LIG    1        5.138  -2.161  -2.646  0.00  0.00    -0.426 OA
BRANCH  27  28
ATOM     28  C   LIG    1        6.230  -1.818  -3.458  0.00  0.00    +0.472 C 
BRANCH  28  29
ATOM     29  O   LIG    1        6.060  -0.600  -4.138  0.00  0.00    -0.427 OA
BRANCH  29  30
ATOM     30  C   LIG    1        6.030   0.545  -3.382  0.00  0.00    +0.315 C 
ATOM     31  O   LIG    1        6.296   0.615  -2.177  0.00  0.00    -0.250 OA
BRANCH  30  32
ATOM     32  C   LIG    1        5.602   1.792  -4.205  0.00  0.00    +0.059 C 
ATOM     33  C   LIG    1        4.259   1.514  -4.927  0.00  0.00    +0.022 C 
ATOM     34  C   LIG    1        5.411   3.023  -3.278  0.00  0.00    +0.022 C 
ATOM     35  C   LIG    1        6.704   2.124  -5.240  0.00  0.00    +0.022 C 
ENDBRANCH  30  32
ENDBRANCH  29  30
ENDBRANCH  28  29
ENDBRANCH  27  28
ENDBRANCH  25  27
ENDBRANCH   5  25
TORSDOF 10
