REMARK  Name = DB01035
REMARK                            x       y       z     vdW  Elec       q    Type
REMARK                         _______ _______ _______ _____ _____    ______ ____
ROOT
ATOM      1  O   LIG    1        4.701  -0.047  -0.695  0.00  0.00    -0.270 OA
ATOM      2  C   LIG    1        4.096  -0.983  -1.224  0.00  0.00    +0.244 C 
ATOM      3  N   LIG    1        3.101  -1.646  -0.603  0.00  0.00    -0.310 N 
ATOM      4  H   LIG    1        2.660  -2.414  -1.087  0.00  0.00    +0.149 HD
ENDROOT
BRANCH   2   5
ATOM      5  C   LIG    1        4.461  -1.454  -2.616  0.00  0.00    +0.037 A 
ATOM      6  C   LIG    1        3.618  -2.308  -3.348  0.00  0.00    +0.015 A 
ATOM      7  C   LIG    1        3.971  -2.723  -4.630  0.00  0.00    +0.023 A 
ATOM      8  C   LIG    1        5.167  -2.288  -5.195  0.00  0.00    +0.025 A 
ATOM      9  C   LIG    1        6.012  -1.438  -4.485  0.00  0.00    +0.023 A 
ATOM     10  C   LIG    1        5.659  -1.022  -3.203  0.00  0.00    +0.015 A 
BRANCH   8  11
ATOM     11  N   LIG    1        5.521  -2.703  -6.478  0.00  0.00    -0.358 N 
ATOM     12  H   LIG    1        6.386  -2.380  -6.885  0.00  0.00    +0.142 HD
ATOM     13  H   LIG    1        4.898  -3.310  -6.992  0.00  0.00    +0.142 HD
ENDBRANCH   8  11
ENDBRANCH   2   5
BRANCH   3  14
ATOM     14  C   LIG    1        2.572  -1.328   0.724  0.00  0.00    +0.120 C 
BRANCH  14  15
ATOM     15  C   LIG    1        1.681  -0.063   0.739  0.00  0.00    +0.103 C 
BRANCH  15  16
ATOM     16  N   LIG    1        0.387  -0.275   0.068  0.00  0.00    -0.301 NA
BRANCH  16  17
ATOM     17  C   LIG    1       -0.554  -0.983   0.951  0.00  0.00    +0.081 C 
ATOM     18  C   LIG    1       -1.739  -1.601   0.186  0.00  0.00    +0.020 C 
ENDBRANCH  16  17
BRANCH  16  19
ATOM     19  C   LIG    1       -0.177   1.000  -0.399  0.00  0.00    +0.081 C 
ATOM     20  C   LIG    1        0.575   1.558  -1.622  0.00  0.00    +0.020 C 
ENDBRANCH  16  19
ENDBRANCH  15  16
ENDBRANCH  14  15
ENDBRANCH   3  14
TORSDOF 7
