REMARK  Name = DB01104
REMARK                            x       y       z     vdW  Elec       q    Type
REMARK                         _______ _______ _______ _____ _____    ______ ____
ROOT
ATOM      1  C   LIG    1        2.572  -2.727  -0.207  0.00  0.00    +0.049 C 
ATOM      2  C   LIG    1        2.446  -1.911  -1.513  0.00  0.00    -0.035 A 
ATOM      3  C   LIG    1        2.881  -2.461  -2.729  0.00  0.00    +0.004 A 
ATOM      4  C   LIG    1        2.813  -1.748  -3.922  0.00  0.00    +0.000 A 
ATOM      5  C   LIG    1        2.310  -0.454  -3.921  0.00  0.00    +0.000 A 
ATOM      6  C   LIG    1        1.887   0.119  -2.726  0.00  0.00    +0.005 A 
ATOM      7  C   LIG    1        1.956  -0.579  -1.512  0.00  0.00    -0.027 A 
ATOM      8  C   LIG    1        1.451   0.099  -0.232  0.00  0.00    +0.084 C 
ATOM      9  C   LIG    1        2.067  -0.567   1.020  0.00  0.00    +0.024 C 
ATOM     10  C   LIG    1        1.843  -2.080   0.992  0.00  0.00    +0.015 C 
ENDROOT
BRANCH   1  16
ATOM     11 CL   LIG    1       -0.938  -6.282  -1.784  0.00  0.00    -0.082 Cl
ATOM     12  C   LIG    1        0.583  -5.897  -1.055  0.00  0.00    +0.060 A 
ATOM     13  C   LIG    1        1.441  -6.900  -0.584  0.00  0.00    +0.059 A 
ATOM     14  C   LIG    1        2.658  -6.550   0.002  0.00  0.00    +0.022 A 
ATOM     15  C   LIG    1        3.022  -5.209   0.121  0.00  0.00    +0.006 A 
ATOM     16  C   LIG    1        2.175  -4.201  -0.351  0.00  0.00    -0.038 A 
ATOM     17 CL   LIG    1        1.024  -8.574  -0.709  0.00  0.00    -0.082 Cl
ATOM     18  C   LIG    1        0.953  -4.557  -0.936  0.00  0.00    +0.025 A 
ENDBRANCH   1  16
BRANCH   8  19
ATOM     19  N   LIG    1       -0.009   0.186  -0.245  0.00  0.00    -0.312 NA
ATOM     20  H   LIG    1       -0.397  -0.728  -0.061  0.00  0.00    +0.122 HD
ATOM     21  C   LIG    1       -0.535   1.135   0.726  0.00  0.00    +0.101 C 
ENDBRANCH   8  19
TORSDOF 2
