REMARK  Name = DB01627
REMARK                            x       y       z     vdW  Elec       q    Type
REMARK                         _______ _______ _______ _____ _____    ______ ____
ROOT
ATOM      1  C   LIG    1        1.240  -0.094  -0.087  0.00  0.00    +0.132 C 
ENDROOT
BRANCH   1   2
ATOM      2  C   LIG    1       -0.317  -0.150  -0.217  0.00  0.00    +0.173 C 
ATOM      3  C   LIG    1       -0.872  -1.081  -1.338  0.00  0.00    +0.176 C 
ATOM      4  C   LIG    1       -2.418  -1.015  -1.373  0.00  0.00    +0.177 C 
ATOM      5  C   LIG    1       -2.898   0.452  -1.482  0.00  0.00    +0.184 C 
ATOM      6  C   LIG    1       -2.253   1.341  -0.387  0.00  0.00    +0.207 C 
ATOM      7  O   LIG    1       -0.831   1.180  -0.391  0.00  0.00    -0.356 OA
BRANCH   3   8
ATOM      8  O   LIG    1       -0.308  -0.800  -2.611  0.00  0.00    -0.387 OA
ATOM      9  H   LIG    1        0.625  -1.027  -2.590  0.00  0.00    +0.210 HD
ENDBRANCH   3   8
BRANCH   5  10
ATOM     10  O   LIG    1       -4.309   0.575  -1.505  0.00  0.00    -0.386 OA
ATOM     11  H   LIG    1       -4.631   0.549  -0.601  0.00  0.00    +0.210 HD
ENDBRANCH   5  10
BRANCH   6  12
ATOM     12  S   LIG    1       -2.941   1.063   1.285  0.00  0.00    -0.131 S 
ATOM     13  C   LIG    1       -2.145   2.425   2.177  0.00  0.00    +0.087 C 
ENDBRANCH   6  12
BRANCH   4  14
ATOM     14  O   LIG    1       -2.964  -1.849  -2.382  0.00  0.00    -0.386 OA
ATOM     15  H   LIG    1       -2.656  -1.533  -3.235  0.00  0.00    +0.210 HD
ENDBRANCH   4  14
ENDBRANCH   1   2
BRANCH   1  16
ATOM     16  N   LIG    1        1.890   0.636  -1.186  0.00  0.00    -0.306 N 
ATOM     17  H   LIG    1        2.255   0.069  -1.937  0.00  0.00    +0.149 HD
ATOM     18  C   LIG    1        2.079   1.968  -1.271  0.00  0.00    +0.231 C 
ATOM     19  O   LIG    1        1.734   2.754  -0.388  0.00  0.00    -0.274 OA
BRANCH  18  20
ATOM     20  C   LIG    1        2.744   2.517  -2.557  0.00  0.00    +0.143 C 
ATOM     21  N   LIG    1        3.773   1.625  -3.105  0.00  0.00    -0.294 NA
ATOM     22  C   LIG    1        5.065   1.697  -2.429  0.00  0.00    +0.105 C 
ATOM     23  C   LIG    1        3.849   1.994  -4.509  0.00  0.00    +0.088 C 
ATOM     24  C   LIG    1        2.401   2.205  -4.963  0.00  0.00    +0.005 C 
ATOM     25  C   LIG    1        1.695   2.682  -3.681  0.00  0.00    +0.033 C 
BRANCH  24  26
ATOM     26  C   LIG    1        2.258   3.187  -6.148  0.00  0.00    +0.004 C 
BRANCH  26  27
ATOM     27  C   LIG    1        2.862   2.663  -7.464  0.00  0.00    -0.003 C 
ATOM     28  C   LIG    1        2.695   3.646  -8.631  0.00  0.00    +0.004 C 
ENDBRANCH  26  27
ENDBRANCH  24  26
ENDBRANCH  18  20
ENDBRANCH   1  16
BRANCH   1  29
ATOM     29  C   LIG    1        1.914  -1.478   0.152  0.00  0.00    +0.134 C 
ATOM     30  C   LIG    1        3.452  -1.427   0.251  0.00  0.00    +0.039 C 
BRANCH  29  31
ATOM     31  O   LIG    1        1.439  -2.049   1.357  0.00  0.00    -0.390 OA
ATOM     32  H   LIG    1        0.483  -2.126   1.306  0.00  0.00    +0.210 HD
ENDBRANCH  29  31
ENDBRANCH   1  29
TORSDOF 11
