REMARK  Name = DB01056
REMARK                            x       y       z     vdW  Elec       q    Type
REMARK                         _______ _______ _______ _____ _____    ______ ____
ROOT
ATOM      1  O   LIG    1       -0.400   1.976  -0.943  0.00  0.00    -0.274 OA
ATOM      2  C   LIG    1       -0.763   0.943  -0.374  0.00  0.00    +0.234 C 
ATOM      3  N   LIG    1        0.069   0.004   0.124  0.00  0.00    -0.284 N 
ATOM      4  H   LIG    1       -0.336  -0.756   0.650  0.00  0.00    +0.155 HD
ENDROOT
BRANCH   3   5
ATOM      5  C   LIG    1        1.474   0.039   0.065  0.00  0.00    +0.039 A 
ATOM      6  C   LIG    1        2.187  -0.008   1.281  0.00  0.00    -0.029 A 
ATOM      7  C   LIG    1        1.474  -0.068   2.627  0.00  0.00    +0.045 C 
ATOM      8  C   LIG    1        3.585   0.017   1.265  0.00  0.00    +0.005 A 
ATOM      9  C   LIG    1        4.277   0.074   0.059  0.00  0.00    +0.001 A 
ATOM     10  C   LIG    1        3.579   0.094  -1.144  0.00  0.00    +0.005 A 
ATOM     11  C   LIG    1        2.181   0.070  -1.160  0.00  0.00    -0.029 A 
ATOM     12  C   LIG    1        1.488   0.011  -2.518  0.00  0.00    +0.045 C 
ENDBRANCH   3   5
BRANCH   2  13
ATOM     13  C   LIG    1       -2.269   0.671  -0.171  0.00  0.00    +0.135 C 
ATOM     14  C   LIG    1       -3.038   0.747  -1.504  0.00  0.00    +0.033 C 
BRANCH  13  15
ATOM     15  N   LIG    1       -2.749   1.645   0.822  0.00  0.00    -0.320 NA
ATOM     16  H   LIG    1       -2.403   1.430   1.747  0.00  0.00    +0.119 HD
ATOM     17  H   LIG    1       -3.757   1.650   0.875  0.00  0.00    +0.119 HD
ENDBRANCH  13  15
ENDBRANCH   2  13
TORSDOF 3
