REMARK  Name = DB01060
REMARK                            x       y       z     vdW  Elec       q    Type
REMARK                         _______ _______ _______ _____ _____    ______ ____
ROOT
ATOM      1  N   LIG    1        0.130   0.344  -0.727  0.00  0.00    -0.300 N 
ATOM      2  H   LIG    1       -0.462   0.012  -1.475  0.00  0.00    +0.150 HD
ATOM      3  C   LIG    1       -0.411   1.078   0.260  0.00  0.00    +0.235 C 
ATOM      4  O   LIG    1        0.245   1.592   1.170  0.00  0.00    -0.274 OA
ENDROOT
BRANCH   1  12
ATOM      5  S   LIG    1        1.315  -1.906   1.386  0.00  0.00    -0.127 S 
ATOM      6  C   LIG    1        2.397  -3.318   1.011  0.00  0.00    +0.042 C 
ATOM      7  C   LIG    1        1.752  -4.663   1.403  0.00  0.00    +0.025 C 
ATOM      8  C   LIG    1        3.655  -3.124   1.907  0.00  0.00    +0.025 C 
ATOM      9  CA  LIG    1        2.699  -3.169  -0.524  0.00  0.00    +0.201 C 
ATOM     10  N   LIG    1        2.688  -1.726  -0.803  0.00  0.00    -0.271 N 
ATOM     11  C   LIG    1        1.888  -1.128  -1.783  0.00  0.00    +0.240 C 
ATOM     12  CA  LIG    1        1.558   0.047  -0.837  0.00  0.00    +0.190 C 
ATOM     13  O   LIG    1        1.529  -1.477  -2.907  0.00  0.00    -0.273 OA
ATOM     14  C   LIG    1        2.230  -0.806   0.270  0.00  0.00    +0.165 C 
BRANCH   9  15
ATOM     15  C   LIG    1        3.982  -3.882  -1.006  0.00  0.00    +0.327 C 
ATOM     16  OXT LIG    1        4.996  -3.307  -1.348  0.00  0.00    -0.249 OA
BRANCH  15  17
ATOM     17  O   LIG    1        3.795  -5.233  -1.027  0.00  0.00    -0.479 OA
ATOM     18  H   LIG    1        4.571  -5.703  -1.339  0.00  0.00    +0.295 HD
ENDBRANCH  15  17
ENDBRANCH   9  15
ENDBRANCH   1  12
BRANCH   3  19
ATOM     19  CA  LIG    1       -1.948   1.231   0.235  0.00  0.00    +0.168 C 
BRANCH  19  20
ATOM     20  C   LIG    1       -2.590   0.665   1.488  0.00  0.00    -0.022 A 
ATOM     21  C   LIG    1       -3.338   1.473   2.356  0.00  0.00    +0.009 A 
ATOM     22  C   LIG    1       -3.921   0.931   3.499  0.00  0.00    +0.046 A 
ATOM     23  C   LIG    1       -3.763  -0.424   3.780  0.00  0.00    +0.117 A 
ATOM     24  C   LIG    1       -3.029  -1.242   2.924  0.00  0.00    +0.046 A 
ATOM     25  C   LIG    1       -2.448  -0.699   1.781  0.00  0.00    +0.009 A 
BRANCH  23  26
ATOM     26  O   LIG    1       -4.334  -0.957   4.904  0.00  0.00    -0.507 OA
ATOM     27  H   LIG    1       -4.810  -0.306   5.425  0.00  0.00    +0.292 HD
ENDBRANCH  23  26
ENDBRANCH  19  20
BRANCH  19  28
ATOM     28  N   LIG    1       -2.201   2.640  -0.122  0.00  0.00    -0.316 NA
ATOM     29  H1  LIG    1       -3.193   2.826  -0.161  0.00  0.00    +0.119 HD
ATOM     30  H2  LIG    1       -1.838   2.849  -1.041  0.00  0.00    +0.119 HD
ENDBRANCH  19  28
ENDBRANCH   3  19
TORSDOF 7
