REMARK  Name = DB01382
REMARK                            x       y       z     vdW  Elec       q    Type
REMARK                         _______ _______ _______ _____ _____    ______ ____
ROOT
ATOM      1  N   LIG    1       -2.205   4.817   0.203  0.00  0.00    -0.184 N 
ATOM      2  H   LIG    1       -3.176   4.802   0.478  0.00  0.00    +0.177 HD
ENDROOT
BRANCH   1   3
ATOM      3  C   LIG    1       -1.549   3.584   0.096  0.00  0.00    +0.235 A 
ATOM      4  N   LIG    1       -0.216   3.549  -0.177  0.00  0.00    -0.218 NA
ATOM      5  C   LIG    1        0.365   2.324  -0.252  0.00  0.00    +0.161 A 
ATOM      6  C   LIG    1       -0.352   1.132  -0.057  0.00  0.00    +0.157 A 
ATOM      7  C   LIG    1       -1.715   1.279   0.216  0.00  0.00    +0.161 A 
ATOM      8  N   LIG    1       -2.327   2.489   0.297  0.00  0.00    -0.218 NA
BRANCH   6   9
ATOM      9  O   LIG    1        0.176  -0.142  -0.114  0.00  0.00    -0.487 OA
BRANCH   9  10
ATOM     10  C   LIG    1        1.574  -0.296  -0.347  0.00  0.00    +0.257 C 
BRANCH  10  11
ATOM     11  C   LIG    1        1.939  -1.785  -0.287  0.00  0.00    +0.200 C 
BRANCH  11  12
ATOM     12  O   LIG    1        1.629  -2.297   1.002  0.00  0.00    -0.380 OA
ATOM     13  C   LIG    1        1.921  -3.678   1.148  0.00  0.00    +0.194 C 
ENDBRANCH  11  12
ENDBRANCH  10  11
ENDBRANCH   9  10
ENDBRANCH   6   9
ENDBRANCH   1   3
BRANCH   1  14
ATOM     14  S   LIG    1       -1.401   6.402   0.106  0.00  0.00    +0.075 S 
ATOM     15  O   LIG    1       -2.475   7.401   0.102  0.00  0.00    -0.150 OA
ATOM     16  O   LIG    1       -0.419   6.348  -0.983  0.00  0.00    -0.150 OA
BRANCH  14  17
ATOM     17  C   LIG    1       -0.526   6.564   1.660  0.00  0.00    +0.109 A 
ATOM     18  C   LIG    1       -1.198   7.039   2.789  0.00  0.00    +0.029 A 
ATOM     19  C   LIG    1       -0.524   7.143   4.002  0.00  0.00    +0.002 A 
ATOM     20  C   LIG    1        0.815   6.764   4.083  0.00  0.00    +0.000 A 
ATOM     21  C   LIG    1        1.486   6.281   2.962  0.00  0.00    +0.002 A 
ATOM     22  C   LIG    1        0.815   6.180   1.747  0.00  0.00    +0.029 A 
ENDBRANCH  14  17
ENDBRANCH   1  14
TORSDOF 7
