REMARK  Name = DB01081
REMARK                            x       y       z     vdW  Elec       q    Type
REMARK                         _______ _______ _______ _____ _____    ______ ____
ROOT
ATOM      1  C   LIG    1       -2.980   0.705  -1.189  0.00  0.00    +0.095 C 
ATOM      2  C   LIG    1       -2.218  -0.664  -1.171  0.00  0.00    +0.038 C 
ATOM      3  C   LIG    1       -0.679  -0.524  -1.231  0.00  0.00    +0.086 C 
ATOM      4  N   LIG    1       -0.165   0.295  -0.125  0.00  0.00    -0.302 NA
ATOM      5  C   LIG    1       -0.834   1.601   0.001  0.00  0.00    +0.086 C 
ATOM      6  C   LIG    1       -2.377   1.475   0.026  0.00  0.00    +0.038 C 
ENDROOT
BRANCH   1   7
ATOM      7  C   LIG    1       -4.518   0.570  -0.972  0.00  0.00    -0.031 A 
ATOM      8  C   LIG    1       -5.345   1.706  -1.045  0.00  0.00    +0.005 A 
ATOM      9  C   LIG    1       -6.715   1.616  -0.817  0.00  0.00    +0.000 A 
ATOM     10  C   LIG    1       -7.280   0.387  -0.499  0.00  0.00    +0.000 A 
ATOM     11  C   LIG    1       -6.484  -0.750  -0.403  0.00  0.00    +0.000 A 
ATOM     12  C   LIG    1       -5.114  -0.658  -0.631  0.00  0.00    +0.005 A 
ENDBRANCH   1   7
BRANCH   1  13
ATOM     13  C   LIG    1       -2.736   1.467  -2.534  0.00  0.00    +0.318 C 
ATOM     14  O   LIG    1       -2.621   2.696  -2.573  0.00  0.00    -0.250 OA
BRANCH  13  15
ATOM     15  O   LIG    1       -2.682   0.651  -3.613  0.00  0.00    -0.464 OA
BRANCH  15  16
ATOM     16  C   LIG    1       -2.466   1.178  -4.915  0.00  0.00    +0.229 C 
ATOM     17  C   LIG    1       -2.438   0.027  -5.926  0.00  0.00    +0.048 C 
ENDBRANCH  15  16
ENDBRANCH  13  15
ENDBRANCH   1  13
BRANCH   4  18
ATOM     18  C   LIG    1        1.296   0.407  -0.206  0.00  0.00    +0.086 C 
BRANCH  18  19
ATOM     19  C   LIG    1        1.934   1.003   1.074  0.00  0.00    +0.046 C 
BRANCH  19  20
ATOM     20  C   LIG    1        3.478   0.807   1.204  0.00  0.00    +0.108 C 
BRANCH  20  21
ATOM     21  C   LIG    1        4.074   1.410   2.501  0.00  0.00    -0.023 A 
ATOM     22  C   LIG    1        3.306   2.153   3.414  0.00  0.00    +0.005 A 
ATOM     23  C   LIG    1        3.888   2.682   4.563  0.00  0.00    +0.000 A 
ATOM     24  C   LIG    1        5.242   2.475   4.811  0.00  0.00    +0.000 A 
ATOM     25  C   LIG    1        6.019   1.742   3.920  0.00  0.00    +0.000 A 
ATOM     26  C   LIG    1        5.436   1.213   2.772  0.00  0.00    +0.005 A 
ENDBRANCH  20  21
BRANCH  20  27
ATOM     27  C   LIG    1        4.173   1.419  -0.038  0.00  0.00    -0.023 A 
ATOM     28  C   LIG    1        4.234   2.814  -0.170  0.00  0.00    +0.005 A 
ATOM     29  C   LIG    1        4.842   3.396  -1.278  0.00  0.00    +0.000 A 
ATOM     30  C   LIG    1        5.390   2.586  -2.268  0.00  0.00    +0.000 A 
ATOM     31  C   LIG    1        5.333   1.200  -2.159  0.00  0.00    +0.000 A 
ATOM     32  C   LIG    1        4.725   0.618  -1.050  0.00  0.00    +0.005 A 
ENDBRANCH  20  27
BRANCH  20  33
ATOM     33  C   LIG    1        3.713  -0.654   1.291  0.00  0.00    +0.079 C 
ATOM     34  N   LIG    1        3.894  -1.796   1.361  0.00  0.00    -0.195 NA
ENDBRANCH  20  33
ENDBRANCH  19  20
ENDBRANCH  18  19
ENDBRANCH   4  18
TORSDOF 10
