REMARK  Name = DB01101
REMARK                            x       y       z     vdW  Elec       q    Type
REMARK                         _______ _______ _______ _____ _____    ______ ____
ROOT
ATOM      1  F   LIG    1       -1.642   3.878  -1.583  0.00  0.00    -0.200 F 
ATOM      2  C   LIG    1       -2.662   3.654  -0.726  0.00  0.00    +0.180 A 
ATOM      3  C   LIG    1       -2.787   2.429   0.046  0.00  0.00    +0.170 A 
ATOM      4  N   LIG    1       -3.832   2.231   0.779  0.00  0.00    -0.175 NA
ATOM      5  C   LIG    1       -4.840   3.199   0.981  0.00  0.00    +0.352 A 
ATOM      6  N   LIG    1       -4.739   4.352   0.216  0.00  0.00    -0.267 N 
ATOM      7  O   LIG    1       -5.772   3.075   1.779  0.00  0.00    -0.244 OA
ATOM      8  C   LIG    1       -3.650   4.550  -0.597  0.00  0.00    +0.135 A 
ENDROOT
BRANCH   6   9
ATOM      9  C   LIG    1       -5.716   5.428   0.369  0.00  0.00    +0.255 C 
ATOM     10  C   LIG    1       -5.390   6.530   1.372  0.00  0.00    +0.195 C 
ATOM     11  C   LIG    1       -6.427   7.568   0.944  0.00  0.00    +0.176 C 
ATOM     12  C   LIG    1       -6.472   7.410  -0.588  0.00  0.00    +0.149 C 
ATOM     13  C   LIG    1       -5.588   8.406  -1.356  0.00  0.00    +0.041 C 
ATOM     14  O   LIG    1       -5.949   6.105  -0.832  0.00  0.00    -0.348 OA
BRANCH  11  15
ATOM     15  O   LIG    1       -7.702   7.381   1.538  0.00  0.00    -0.387 OA
ATOM     16  H   LIG    1       -7.595   7.373   2.492  0.00  0.00    +0.210 HD
ENDBRANCH  11  15
BRANCH  10  17
ATOM     17  O   LIG    1       -5.435   6.061   2.708  0.00  0.00    -0.385 OA
ATOM     18  H   LIG    1       -6.292   5.656   2.861  0.00  0.00    +0.210 HD
ENDBRANCH  10  17
ENDBRANCH   6   9
BRANCH   3  19
ATOM     19  N   LIG    1       -1.860   1.439  -0.018  0.00  0.00    -0.233 N 
ATOM     20  H   LIG    1       -2.188   0.488   0.067  0.00  0.00    +0.160 HD
ATOM     21  C   LIG    1       -0.480   1.605   0.027  0.00  0.00    +0.406 C 
ATOM     22  O   LIG    1        0.135   2.666   0.163  0.00  0.00    -0.226 OA
BRANCH  21  23
ATOM     23  O   LIG    1        0.100   0.392  -0.070  0.00  0.00    -0.450 OA
BRANCH  23  24
ATOM     24  C   LIG    1        1.515   0.252  -0.017  0.00  0.00    +0.234 C 
BRANCH  24  25
ATOM     25  C   LIG    1        1.882  -1.237  -0.094  0.00  0.00    +0.041 C 
BRANCH  25  26
ATOM     26  C   LIG    1        3.400  -1.477  -0.023  0.00  0.00    +0.003 C 
BRANCH  26  27
ATOM     27  C   LIG    1        3.774  -2.968  -0.096  0.00  0.00    -0.003 C 
ATOM     28  C   LIG    1        5.287  -3.212  -0.005  0.00  0.00    +0.004 C 
ENDBRANCH  26  27
ENDBRANCH  25  26
ENDBRANCH  24  25
ENDBRANCH  23  24
ENDBRANCH  21  23
ENDBRANCH   3  19
TORSDOF 9
