REMARK  Name = DB01210
REMARK                            x       y       z     vdW  Elec       q    Type
REMARK                         _______ _______ _______ _____ _____    ______ ____
ROOT
ATOM      1  O   LIG    1        3.336  -1.742   0.023  0.00  0.00    -0.489 OA
ENDROOT
BRANCH   1   2
ATOM      2  C   LIG    1        4.005  -2.954   0.031  0.00  0.00    +0.124 A 
ATOM      3  C   LIG    1        3.346  -4.193   0.035  0.00  0.00    +0.046 A 
ATOM      4  C   LIG    1        4.069  -5.378   0.031  0.00  0.00    +0.004 A 
ATOM      5  C   LIG    1        5.457  -5.342   0.033  0.00  0.00    +0.012 A 
ATOM      6  C   LIG    1        6.148  -4.122   0.064  0.00  0.00    +0.024 A 
ATOM      7  C   LIG    1        7.650  -4.139  -0.019  0.00  0.00    +0.164 C 
ATOM      8  C   LIG    1        8.334  -2.786   0.217  0.00  0.00    +0.080 C 
ATOM      9  C   LIG    1        7.577  -1.687  -0.544  0.00  0.00    +0.013 C 
ATOM     10  C   LIG    1        6.145  -1.558   0.012  0.00  0.00    +0.040 C 
ATOM     11  O   LIG    1        8.283  -5.168  -0.260  0.00  0.00    -0.292 OA
ATOM     12  C   LIG    1        5.412  -2.909   0.039  0.00  0.00    +0.005 A 
ENDBRANCH   1   2
BRANCH   1  13
ATOM     13  C   LIG    1        1.912  -1.711  -0.062  0.00  0.00    +0.261 C 
BRANCH  13  14
ATOM     14  C   LIG    1        1.432  -0.250  -0.157  0.00  0.00    +0.166 C 
BRANCH  14  15
ATOM     15  O   LIG    1        1.857   0.283  -1.400  0.00  0.00    -0.387 OA
ATOM     16  H   LIG    1        1.490   1.166  -1.489  0.00  0.00    +0.210 HD
ENDBRANCH  14  15
BRANCH  14  17
ATOM     17  C   LIG    1       -0.105  -0.140  -0.053  0.00  0.00    +0.116 C 
BRANCH  17  18
ATOM     18  N   LIG    1       -0.526   1.262  -0.003  0.00  0.00    -0.309 NA
ATOM     19  H   LIG    1       -0.069   1.733   0.765  0.00  0.00    +0.123 HD
BRANCH  18  20
ATOM     20  C   LIG    1       -1.969   1.535   0.041  0.00  0.00    +0.011 C 
ATOM     21  C   LIG    1       -2.654   1.030  -1.251  0.00  0.00    +0.027 C 
ATOM     22  C   LIG    1       -2.613   0.894   1.294  0.00  0.00    +0.027 C 
ATOM     23  C   LIG    1       -2.100   3.071   0.124  0.00  0.00    +0.027 C 
ENDBRANCH  18  20
ENDBRANCH  17  18
ENDBRANCH  14  17
ENDBRANCH  13  14
ENDBRANCH   1  13
TORSDOF 7
