REMARK  Name = DB01226
REMARK                            x       y       z     vdW  Elec       q    Type
REMARK                         _______ _______ _______ _____ _____    ______ ____
ROOT
ATOM      1  C   LIG    1        0.978   0.302  -1.685  0.00  0.00    -0.030 C 
ATOM      2  C   LIG    1        1.416   1.529  -2.033  0.00  0.00    -0.030 C 
ENDROOT
BRANCH   1   3
ATOM      3  C   LIG    1       -0.147  -0.029  -0.710  0.00  0.00    +0.038 C 
BRANCH   3   4
ATOM      4  C   LIG    1       -0.882   1.148  -0.022  0.00  0.00    +0.124 C 
BRANCH   4   5
ATOM      5  C   LIG    1       -0.086   1.897   1.057  0.00  0.00    +0.307 C 
ATOM      6  O   LIG    1        1.045   1.553   1.408  0.00  0.00    -0.251 OA
BRANCH   5   7
ATOM      7  O   LIG    1       -0.780   2.945   1.544  0.00  0.00    -0.465 OA
BRANCH   7   8
ATOM      8  C   LIG    1       -0.231   3.776   2.559  0.00  0.00    +0.230 C 
BRANCH   8   9
ATOM      9  C   LIG    1       -1.230   4.883   2.930  0.00  0.00    +0.023 C 
BRANCH   9  10
ATOM     10  C   LIG    1       -1.521   5.845   1.746  0.00  0.00    -0.071 C 
BRANCH  10  11
ATOM     11  N   LIG    1       -2.448   7.076   2.061  0.00  0.00    +0.383 N 
ATOM     12  C   LIG    1       -3.193   7.389   0.725  0.00  0.00    -0.091 C 
ATOM     13  C   LIG    1       -3.502   6.729   3.151  0.00  0.00    -0.070 C 
ATOM     14  C   LIG    1       -4.508   7.874   3.377  0.00  0.00    +0.017 C 
ATOM     15  C   LIG    1       -3.891   9.270   3.369  0.00  0.00    -0.044 A 
ATOM     16  C   LIG    1       -4.657  10.351   3.816  0.00  0.00    +0.053 A 
ATOM     17  C   LIG    1       -4.191  11.672   3.754  0.00  0.00    +0.162 A 
ATOM     18  C   LIG    1       -2.925  11.918   3.216  0.00  0.00    +0.162 A 
ATOM     19  C   LIG    1       -2.158  10.836   2.765  0.00  0.00    +0.051 A 
ATOM     20  C   LIG    1       -2.598   9.510   2.859  0.00  0.00    -0.053 A 
ATOM     21  C   LIG    1       -1.639   8.365   2.463  0.00  0.00    -0.030 C 
BRANCH  18  22
ATOM     22  O   LIG    1       -2.498  13.234   3.173  0.00  0.00    -0.491 OA
ATOM     23  C   LIG    1       -1.194  13.534   2.687  0.00  0.00    +0.277 C 
ENDBRANCH  18  22
BRANCH  17  24
ATOM     24  O   LIG    1       -4.917  12.767   4.189  0.00  0.00    -0.491 OA
ATOM     25  C   LIG    1       -6.213  12.574   4.745  0.00  0.00    +0.277 C 
ENDBRANCH  17  24
BRANCH  21  26
ATOM     26  C   LIG    1       -0.582   8.063   3.574  0.00  0.00    +0.025 C 
BRANCH  26  27
ATOM     27  C   LIG    1        0.276   9.261   3.966  0.00  0.00    -0.041 A 
ATOM     28  C   LIG    1       -0.021   9.990   5.119  0.00  0.00    +0.053 A 
ATOM     29  C   LIG    1        0.725  11.128   5.462  0.00  0.00    +0.165 A 
ATOM     30  C   LIG    1        1.795  11.509   4.640  0.00  0.00    +0.204 A 
ATOM     31  C   LIG    1        2.108  10.787   3.480  0.00  0.00    +0.165 A 
ATOM     32  C   LIG    1        1.339   9.658   3.155  0.00  0.00    +0.053 A 
BRANCH  31  33
ATOM     33  O   LIG    1        3.165  11.247   2.716  0.00  0.00    -0.491 OA
ATOM     34  C   LIG    1        3.511  10.564   1.516  0.00  0.00    +0.277 C 
ENDBRANCH  31  33
BRANCH  30  35
ATOM     35  O   LIG    1        2.523  12.632   4.954  0.00  0.00    -0.488 OA
ATOM     36  C   LIG    1        3.647  12.381   5.786  0.00  0.00    +0.277 C 
ENDBRANCH  30  35
BRANCH  29  37
ATOM     37  O   LIG    1        0.464  11.918   6.567  0.00  0.00    -0.491 OA
ATOM     38  C   LIG    1       -0.649  11.610   7.398  0.00  0.00    +0.277 C 
ENDBRANCH  29  37
ENDBRANCH  26  27
ENDBRANCH  21  26
ENDBRANCH  10  11
ENDBRANCH   9  10
ENDBRANCH   8   9
ENDBRANCH   7   8
ENDBRANCH   5   7
ENDBRANCH   4   5
ENDBRANCH   3   4
ENDBRANCH   1   3
BRANCH   2  39
ATOM     39  C   LIG    1        2.537   1.849  -3.016  0.00  0.00    +0.038 C 
BRANCH  39  40
ATOM     40  C   LIG    1        3.125   0.673  -3.836  0.00  0.00    +0.124 C 
BRANCH  40  41
ATOM     41  C   LIG    1        2.184   0.092  -4.902  0.00  0.00    +0.307 C 
ATOM     42  O   LIG    1        1.285   0.761  -5.418  0.00  0.00    -0.251 OA
BRANCH  41  43
ATOM     43  O   LIG    1        2.449  -1.205  -5.159  0.00  0.00    -0.465 OA
BRANCH  43  44
ATOM     44  C   LIG    1        1.692  -1.918  -6.129  0.00  0.00    +0.230 C 
BRANCH  44  45
ATOM     45  C   LIG    1        2.063  -3.404  -6.078  0.00  0.00    +0.023 C 
BRANCH  45  46
ATOM     46  C   LIG    1        1.336  -4.209  -7.182  0.00  0.00    -0.071 C 
BRANCH  46  47
ATOM     47  N   LIG    1        1.665  -5.740  -7.189  0.00  0.00    +0.383 N 
ATOM     48  C   LIG    1        1.036  -6.376  -5.913  0.00  0.00    -0.091 C 
ATOM     49  C   LIG    1        0.967  -6.335  -8.445  0.00  0.00    -0.070 C 
ATOM     50  C   LIG    1        1.149  -7.865  -8.551  0.00  0.00    +0.017 C 
ATOM     51  C   LIG    1        2.515  -8.387  -8.109  0.00  0.00    -0.044 A 
ATOM     52  C   LIG    1        2.841  -9.726  -8.343  0.00  0.00    +0.053 A 
ATOM     53  C   LIG    1        4.048 -10.288  -7.899  0.00  0.00    +0.162 A 
ATOM     54  C   LIG    1        4.947  -9.487  -7.191  0.00  0.00    +0.162 A 
ATOM     55  C   LIG    1        4.619  -8.146  -6.950  0.00  0.00    +0.051 A 
ATOM     56  C   LIG    1        3.432  -7.570  -7.417  0.00  0.00    -0.053 A 
ATOM     57  C   LIG    1        3.203  -6.058  -7.235  0.00  0.00    -0.030 C 
BRANCH  54  58
ATOM     58  O   LIG    1        6.130 -10.074  -6.777  0.00  0.00    -0.491 OA
ATOM     59  C   LIG    1        7.106  -9.286  -6.103  0.00  0.00    +0.277 C 
ENDBRANCH  54  58
BRANCH  53  60
ATOM     60  O   LIG    1        4.410 -11.606  -8.116  0.00  0.00    -0.491 OA
ATOM     61  C   LIG    1        3.535 -12.465  -8.839  0.00  0.00    +0.277 C 
ENDBRANCH  53  60
BRANCH  57  62
ATOM     62  C   LIG    1        3.939  -5.234  -8.343  0.00  0.00    +0.025 C 
BRANCH  62  63
ATOM     63  C   LIG    1        5.458  -5.326  -8.252  0.00  0.00    -0.041 A 
ATOM     64  C   LIG    1        6.162  -6.206  -9.075  0.00  0.00    +0.053 A 
ATOM     65  C   LIG    1        7.555  -6.339  -8.961  0.00  0.00    +0.165 A 
ATOM     66  C   LIG    1        8.234  -5.558  -8.015  0.00  0.00    +0.204 A 
ATOM     67  C   LIG    1        7.544  -4.652  -7.197  0.00  0.00    +0.165 A 
ATOM     68  C   LIG    1        6.150  -4.550  -7.322  0.00  0.00    +0.053 A 
BRANCH  67  69
ATOM     69  O   LIG    1        8.293  -3.912  -6.298  0.00  0.00    -0.491 OA
ATOM     70  C   LIG    1        7.641  -2.973  -5.451  0.00  0.00    +0.277 C 
ENDBRANCH  67  69
BRANCH  66  71
ATOM     71  O   LIG    1        9.599  -5.664  -7.901  0.00  0.00    -0.488 OA
ATOM     72  C   LIG    1       10.029  -6.667  -6.990  0.00  0.00    +0.277 C 
ENDBRANCH  66  71
BRANCH  65  73
ATOM     73  O   LIG    1        8.310  -7.212  -9.723  0.00  0.00    -0.491 OA
ATOM     74  C   LIG    1        7.658  -8.068 -10.655  0.00  0.00    +0.277 C 
ENDBRANCH  65  73
ENDBRANCH  62  63
ENDBRANCH  57  62
ENDBRANCH  46  47
ENDBRANCH  45  46
ENDBRANCH  44  45
ENDBRANCH  43  44
ENDBRANCH  41  43
ENDBRANCH  40  41
ENDBRANCH  39  40
ENDBRANCH   2  39
TORSDOF 30
