REMARK  Name = DB01203
REMARK                            x       y       z     vdW  Elec       q    Type
REMARK                         _______ _______ _______ _____ _____    ______ ____
ROOT
ATOM      1  C   LIG    1        3.556  -5.260  -0.283  0.00  0.00    +0.148 C 
ATOM      2  C   LIG    1        2.984  -3.867   0.051  0.00  0.00    +0.073 C 
ATOM      3  C   LIG    1        4.029  -2.740   0.014  0.00  0.00    +0.000 A 
ATOM      4  C   LIG    1        3.610  -1.396  -0.014  0.00  0.00    +0.124 A 
ATOM      5  C   LIG    1        4.562  -0.366   0.031  0.00  0.00    +0.046 A 
ATOM      6  C   LIG    1        5.916  -0.662   0.113  0.00  0.00    +0.004 A 
ATOM      7  C   LIG    1        6.332  -1.986   0.132  0.00  0.00    +0.004 A 
ATOM      8  C   LIG    1        5.413  -3.037   0.069  0.00  0.00    -0.038 A 
ATOM      9  C   LIG    1        5.926  -4.478   0.003  0.00  0.00    +0.069 C 
ATOM     10  C   LIG    1        4.884  -5.515   0.460  0.00  0.00    +0.148 C 
ENDROOT
BRANCH   1  11
ATOM     11  O   LIG    1        2.602  -6.276  -0.041  0.00  0.00    -0.389 OA
ATOM     12  H   LIG    1        2.409  -6.291   0.899  0.00  0.00    +0.210 HD
ENDBRANCH   1  11
BRANCH  10  13
ATOM     13  O   LIG    1        4.728  -5.518   1.869  0.00  0.00    -0.389 OA
ATOM     14  H   LIG    1        5.589  -5.376   2.271  0.00  0.00    +0.210 HD
ENDBRANCH  10  13
BRANCH   4  15
ATOM     15  O   LIG    1        2.246  -1.164  -0.067  0.00  0.00    -0.489 OA
BRANCH  15  16
ATOM     16  C   LIG    1        1.749   0.171  -0.133  0.00  0.00    +0.261 C 
BRANCH  16  17
ATOM     17  C   LIG    1        0.211   0.143  -0.218  0.00  0.00    +0.166 C 
BRANCH  17  18
ATOM     18  O   LIG    1       -0.160  -0.418  -1.466  0.00  0.00    -0.387 OA
ATOM     19  H   LIG    1       -1.117  -0.381  -1.540  0.00  0.00    +0.210 HD
ENDBRANCH  17  18
BRANCH  17  20
ATOM     20  C   LIG    1       -0.399   1.556  -0.089  0.00  0.00    +0.116 C 
BRANCH  20  21
ATOM     21  N   LIG    1       -1.860   1.488  -0.019  0.00  0.00    -0.309 NA
ATOM     22  H   LIG    1       -2.141   0.891   0.746  0.00  0.00    +0.123 HD
BRANCH  21  23
ATOM     23  C   LIG    1       -2.594   2.758   0.053  0.00  0.00    +0.011 C 
ATOM     24  C   LIG    1       -2.184   3.561   1.311  0.00  0.00    +0.027 C 
ATOM     25  C   LIG    1       -2.363   3.589  -1.231  0.00  0.00    +0.027 C 
ATOM     26  C   LIG    1       -4.085   2.373   0.153  0.00  0.00    +0.027 C 
ENDBRANCH  21  23
ENDBRANCH  20  21
ENDBRANCH  17  20
ENDBRANCH  16  17
ENDBRANCH  15  16
ENDBRANCH   4  15
TORSDOF 9
