REMARK  Name = DB01231
REMARK                            x       y       z     vdW  Elec       q    Type
REMARK                         _______ _______ _______ _____ _____    ______ ____
ROOT
ATOM      1  C   LIG    1        1.679   0.006   0.029  0.00  0.00    +0.116 C 
ENDROOT
BRANCH   1   2
ATOM      2  C   LIG    1        2.072  -1.493  -0.043  0.00  0.00    -0.012 A 
ATOM      3  C   LIG    1        1.515  -2.324  -1.028  0.00  0.00    +0.007 A 
ATOM      4  C   LIG    1        1.860  -3.670  -1.107  0.00  0.00    +0.000 A 
ATOM      5  C   LIG    1        2.768  -4.204  -0.200  0.00  0.00    +0.000 A 
ATOM      6  C   LIG    1        3.332  -3.402   0.787  0.00  0.00    +0.000 A 
ATOM      7  C   LIG    1        2.986  -2.055   0.866  0.00  0.00    +0.007 A 
ENDBRANCH   1   2
BRANCH   1   8
ATOM      8  C   LIG    1        2.126   0.738  -1.265  0.00  0.00    -0.012 A 
ATOM      9  C   LIG    1        1.359   0.672  -2.441  0.00  0.00    +0.007 A 
ATOM     10  C   LIG    1        1.774   1.322  -3.599  0.00  0.00    +0.000 A 
ATOM     11  C   LIG    1        2.964   2.042  -3.599  0.00  0.00    +0.000 A 
ATOM     12  C   LIG    1        3.743   2.117  -2.449  0.00  0.00    +0.000 A 
ATOM     13  C   LIG    1        3.326   1.467  -1.290  0.00  0.00    +0.007 A 
ENDBRANCH   1   8
BRANCH   1  14
ATOM     14  O   LIG    1        2.220   0.638   1.188  0.00  0.00    -0.379 OA
ATOM     15  H   LIG    1        3.176   0.576   1.146  0.00  0.00    +0.211 HD
ENDBRANCH   1  14
BRANCH   1  16
ATOM     16  C   LIG    1        0.135   0.127   0.273  0.00  0.00    +0.046 C 
BRANCH  16  17
ATOM     17  C   LIG    1       -0.446   1.561   0.340  0.00  0.00    +0.019 C 
BRANCH  17  18
ATOM     18  C   LIG    1       -1.969   1.566   0.596  0.00  0.00    +0.084 C 
BRANCH  18  19
ATOM     19  N   LIG    1       -2.592   2.883   0.419  0.00  0.00    -0.302 NA
ATOM     20  C   LIG    1       -2.694   3.263  -1.001  0.00  0.00    +0.084 C 
ATOM     21  C   LIG    1       -3.355   4.645  -1.190  0.00  0.00    +0.015 C 
ATOM     22  C   LIG    1       -4.721   4.731  -0.496  0.00  0.00    +0.002 C 
ATOM     23  C   LIG    1       -4.590   4.290   0.968  0.00  0.00    +0.015 C 
ATOM     24  C   LIG    1       -3.897   2.918   1.098  0.00  0.00    +0.084 C 
ENDBRANCH  18  19
ENDBRANCH  17  18
ENDBRANCH  16  17
ENDBRANCH   1  16
TORSDOF 7
