REMARK  Name = DB01047
REMARK                            x       y       z     vdW  Elec       q    Type
REMARK                         _______ _______ _______ _____ _____    ______ ____
ROOT
ATOM      1  C   LIG    1        0.270  -0.199   0.222  0.00  0.00    +0.165 C 
ATOM      2  O   LIG    1       -0.394   1.059   0.235  0.00  0.00    -0.332 OA
ATOM      3  C   LIG    1       -0.711   1.476  -1.056  0.00  0.00    +0.166 C 
ATOM      4  C   LIG    1        0.358   2.434  -1.579  0.00  0.00    +0.074 C 
ATOM      5  C   LIG    1       -2.106   2.084  -1.037  0.00  0.00    +0.074 C 
ATOM      6  O   LIG    1       -0.730   0.335  -1.845  0.00  0.00    -0.343 OA
ATOM      7  C   LIG    1       -0.193  -0.774  -1.147  0.00  0.00    +0.162 C 
ATOM      8  C   LIG    1       -1.295  -1.816  -0.850  0.00  0.00    +0.039 C 
ATOM      9  C   LIG    1       -1.645  -1.557   0.621  0.00  0.00    +0.007 C 
ATOM     10  C   LIG    1       -2.494  -2.586   1.421  0.00  0.00    +0.037 C 
ATOM     11  C   LIG    1       -3.809  -2.942   0.690  0.00  0.00    +0.048 C 
ATOM     12  C   LIG    1       -4.672  -3.941   1.478  0.00  0.00    +0.194 C 
ATOM     13  C   LIG    1       -4.968  -3.359   2.870  0.00  0.00    -0.020 C 
ATOM     14  C   LIG    1       -6.225  -3.117   3.322  0.00  0.00    +0.054 C 
ATOM     15  C   LIG    1       -6.563  -2.543   4.625  0.00  0.00    +0.179 C 
ATOM     16  O   LIG    1       -7.719  -2.353   4.998  0.00  0.00    -0.288 OA
ATOM     17  C   LIG    1       -5.398  -2.212   5.438  0.00  0.00    +0.047 C 
ATOM     18  C   LIG    1       -4.126  -2.428   5.050  0.00  0.00    -0.009 C 
ATOM     19  C   LIG    1       -3.691  -3.049   3.711  0.00  0.00    +0.047 C 
ATOM     20  C   LIG    1       -3.014  -4.404   4.061  0.00  0.00    +0.023 C 
ATOM     21  F   LIG    1       -5.808  -4.158   0.811  0.00  0.00    -0.241 F 
ATOM     22  C   LIG    1       -2.784  -2.051   2.873  0.00  0.00    +0.153 C 
ATOM     23  F   LIG    1       -3.527  -0.946   2.712  0.00  0.00    -0.238 F 
ATOM     24  C   LIG    1       -1.486  -1.511   3.591  0.00  0.00    +0.154 C 
ATOM     25  C   LIG    1       -0.635  -0.582   2.675  0.00  0.00    +0.044 C 
ATOM     26  C   LIG    1       -0.294  -1.209   1.290  0.00  0.00    +0.012 C 
ATOM     27  C   LIG    1        0.637  -2.463   1.440  0.00  0.00    +0.015 C 
ENDROOT
BRANCH   1  28
ATOM     28  C   LIG    1        1.805   0.037   0.339  0.00  0.00    +0.205 C 
ATOM     29  O   LIG    1        2.612  -0.621  -0.324  0.00  0.00    -0.291 OA
BRANCH  28  30
ATOM     30  C   LIG    1        2.272   1.147   1.293  0.00  0.00    +0.309 C 
BRANCH  30  31
ATOM     31  O   LIG    1        3.694   1.225   1.335  0.00  0.00    -0.457 OA
BRANCH  31  32
ATOM     32  C   LIG    1        4.308   2.137   2.116  0.00  0.00    +0.304 C 
ATOM     33  C   LIG    1        5.826   2.053   2.016  0.00  0.00    +0.136 C 
ATOM     34  O   LIG    1        3.758   2.964   2.844  0.00  0.00    -0.251 OA
ENDBRANCH  31  32
ENDBRANCH  30  31
ENDBRANCH  28  30
ENDBRANCH   1  28
BRANCH  24  35
ATOM     35  O   LIG    1       -0.673  -2.515   4.166  0.00  0.00    -0.389 OA
ATOM     36  H   LIG    1       -1.198  -3.008   4.801  0.00  0.00    +0.210 HD
ENDBRANCH  24  35
TORSDOF 5
