REMARK  Name = DB01114
REMARK                            x       y       z     vdW  Elec       q    Type
REMARK                         _______ _______ _______ _____ _____    ______ ____
ROOT
ATOM      1  C   LIG    1       -0.575   1.357  -0.046  0.00  0.00    +0.069 C 
ENDROOT
BRANCH   1   6
ATOM      2 CL   LIG    1       -6.621   1.537  -0.110  0.00  0.00    -0.084 Cl
ATOM      3  C   LIG    1       -4.895   1.484  -0.098  0.00  0.00    +0.041 A 
ATOM      4  C   LIG    1       -4.224   0.612  -0.952  0.00  0.00    +0.020 A 
ATOM      5  C   LIG    1       -2.833   0.569  -0.942  0.00  0.00    +0.006 A 
ATOM      6  C   LIG    1       -2.108   1.398  -0.077  0.00  0.00    -0.038 A 
ATOM      7  C   LIG    1       -2.792   2.271   0.776  0.00  0.00    +0.006 A 
ATOM      8  C   LIG    1       -4.184   2.315   0.765  0.00  0.00    +0.020 A 
ENDBRANCH   1   6
BRANCH   1   9
ATOM      9  C   LIG    1        0.041   2.141  -1.210  0.00  0.00    +0.049 A 
ATOM     10  C   LIG    1        0.637   3.390  -0.999  0.00  0.00    +0.024 A 
ATOM     11  C   LIG    1        1.198   4.058  -2.090  0.00  0.00    +0.003 A 
ATOM     12  C   LIG    1        1.154   3.470  -3.355  0.00  0.00    +0.020 A 
ATOM     13  C   LIG    1        0.544   2.221  -3.486  0.00  0.00    +0.111 A 
ATOM     14  N   LIG    1       -0.007   1.556  -2.439  0.00  0.00    -0.259 NA
ENDBRANCH   1   9
BRANCH   1  15
ATOM     15  C   LIG    1       -0.012  -0.085   0.075  0.00  0.00    +0.029 C 
BRANCH  15  16
ATOM     16  C   LIG    1        1.498  -0.137   0.411  0.00  0.00    +0.085 C 
BRANCH  16  17
ATOM     17  N   LIG    1        2.095  -1.460   0.203  0.00  0.00    -0.308 NA
ATOM     18  C   LIG    1        2.253  -1.764  -1.219  0.00  0.00    +0.104 C 
ATOM     19  C   LIG    1        3.409  -1.512   0.839  0.00  0.00    +0.104 C 
ENDBRANCH  16  17
ENDBRANCH  15  16
ENDBRANCH   1  15
TORSDOF 5
