REMARK  Name = DB01172
REMARK                            x       y       z     vdW  Elec       q    Type
REMARK                         _______ _______ _______ _____ _____    ______ ____
ROOT
ATOM      1  C   LIG    1       -0.112  -0.737  -0.633  0.00  0.00    +0.084 C 
ATOM      2  C   LIG    1        0.542  -0.190   0.666  0.00  0.00    +0.169 C 
ATOM      3  C   LIG    1        0.036  -0.905   1.954  0.00  0.00    +0.175 C 
ATOM      4  C   LIG    1       -1.514  -1.019   2.034  0.00  0.00    +0.169 C 
ATOM      5  C   LIG    1       -2.110  -1.591   0.721  0.00  0.00    +0.084 C 
ATOM      6  C   LIG    1       -1.646  -0.767  -0.495  0.00  0.00    +0.042 C 
ENDROOT
BRANCH   5   7
ATOM      7  N   LIG    1       -3.557  -1.705   0.749  0.00  0.00    -0.325 NA
ATOM      8  H   LIG    1       -3.841  -2.283   1.528  0.00  0.00    +0.119 HD
ATOM      9  H   LIG    1       -3.886  -2.162  -0.089  0.00  0.00    +0.119 HD
ENDBRANCH   5   7
BRANCH   1  10
ATOM     10  N   LIG    1        0.292  -0.015  -1.825  0.00  0.00    -0.325 NA
ATOM     11  H   LIG    1       -0.088  -0.465  -2.645  0.00  0.00    +0.119 HD
ATOM     12  H   LIG    1        1.298  -0.049  -1.914  0.00  0.00    +0.119 HD
ENDBRANCH   1  10
BRANCH   3  13
ATOM     13  O   LIG    1        0.558  -0.248   3.094  0.00  0.00    -0.387 OA
ATOM     14  H   LIG    1        0.250   0.661   3.092  0.00  0.00    +0.210 HD
ENDBRANCH   3  13
BRANCH   4  15
ATOM     15  O   LIG    1       -1.874  -1.885   3.119  0.00  0.00    -0.341 OA
BRANCH  15  16
ATOM     16  C   LIG    1       -2.221  -1.269   4.332  0.00  0.00    +0.282 C 
ATOM     17  C   LIG    1       -2.066  -2.283   5.477  0.00  0.00    +0.201 C 
ATOM     18  C   LIG    1       -3.147  -3.383   5.403  0.00  0.00    +0.179 C 
ATOM     19  C   LIG    1       -4.552  -2.755   5.287  0.00  0.00    +0.176 C 
ATOM     20  C   LIG    1       -4.575  -1.711   4.139  0.00  0.00    +0.166 C 
ATOM     21  O   LIG    1       -3.527  -0.744   4.304  0.00  0.00    -0.342 OA
BRANCH  17  22
ATOM     22  O   LIG    1       -0.750  -2.804   5.530  0.00  0.00    -0.384 OA
ATOM     23  H   LIG    1       -0.643  -3.433   4.813  0.00  0.00    +0.210 HD
ENDBRANCH  17  22
BRANCH  18  24
ATOM     24  O   LIG    1       -3.065  -4.260   6.516  0.00  0.00    -0.386 OA
ATOM     25  H   LIG    1       -2.138  -4.388   6.733  0.00  0.00    +0.210 HD
ENDBRANCH  18  24
BRANCH  19  26
ATOM     26  O   LIG    1       -5.533  -3.765   5.119  0.00  0.00    -0.387 OA
ATOM     27  H   LIG    1       -5.519  -4.331   5.894  0.00  0.00    +0.210 HD
ENDBRANCH  19  26
BRANCH  20  28
ATOM     28  C   LIG    1       -5.890  -0.907   4.024  0.00  0.00    +0.112 C 
BRANCH  28  29
ATOM     29  N   LIG    1       -6.979  -1.696   3.476  0.00  0.00    -0.328 NA
ATOM     30  H   LIG    1       -7.826  -1.146   3.462  0.00  0.00    +0.118 HD
ATOM     31  H   LIG    1       -7.159  -2.486   4.080  0.00  0.00    +0.118 HD
ENDBRANCH  28  29
ENDBRANCH  20  28
ENDBRANCH  15  16
ENDBRANCH   4  15
BRANCH   2  32
ATOM     32  O   LIG    1        1.976  -0.127   0.626  0.00  0.00    -0.341 OA
BRANCH  32  33
ATOM     33  C   LIG    1        2.707  -1.297   0.354  0.00  0.00    +0.281 C 
ATOM     34  O   LIG    1        2.924  -1.477  -1.022  0.00  0.00    -0.341 OA
ATOM     35  C   LIG    1        3.651  -0.416  -1.656  0.00  0.00    +0.177 C 
ATOM     36  C   LIG    1        5.056  -0.258  -1.021  0.00  0.00    +0.165 C 
ATOM     37  C   LIG    1        4.983  -0.142   0.520  0.00  0.00    +0.116 C 
ATOM     38  C   LIG    1        4.051  -1.234   1.103  0.00  0.00    +0.189 C 
BRANCH  37  39
ATOM     39  N   LIG    1        6.306  -0.169   1.132  0.00  0.00    -0.323 NA
ATOM     40  H   LIG    1        6.890   0.532   0.697  0.00  0.00    +0.119 HD
ATOM     41  H   LIG    1        6.746  -1.059   0.949  0.00  0.00    +0.119 HD
ENDBRANCH  37  39
BRANCH  36  42
ATOM     42  O   LIG    1        5.792   0.818  -1.581  0.00  0.00    -0.388 OA
ATOM     43  H   LIG    1        5.345   1.639  -1.362  0.00  0.00    +0.210 HD
ENDBRANCH  36  42
BRANCH  38  44
ATOM     44  O   LIG    1        3.828  -1.068   2.493  0.00  0.00    -0.385 OA
ATOM     45  H   LIG    1        3.349  -1.831   2.822  0.00  0.00    +0.210 HD
ENDBRANCH  38  44
BRANCH  35  46
ATOM     46  C   LIG    1        3.673  -0.731  -3.169  0.00  0.00    +0.190 C 
BRANCH  46  47
ATOM     47  O   LIG    1        3.988   0.410  -3.942  0.00  0.00    -0.392 OA
ATOM     48  H   LIG    1        4.005   0.157  -4.869  0.00  0.00    +0.210 HD
ENDBRANCH  46  47
ENDBRANCH  35  46
ENDBRANCH  32  33
ENDBRANCH   2  32
TORSDOF 17
