REMARK  Name = DB01140
REMARK                            x       y       z     vdW  Elec       q    Type
REMARK                         _______ _______ _______ _____ _____    ______ ____
ROOT
ATOM      1  N   LIG    1       -0.627   1.041  -0.465  0.00  0.00    -0.300 N 
ATOM      2  H   LIG    1        0.050   1.467  -1.082  0.00  0.00    +0.150 HD
ATOM      3  C   LIG    1       -0.226   0.078   0.382  0.00  0.00    +0.235 C 
ATOM      4  O   LIG    1       -0.976  -0.490   1.179  0.00  0.00    -0.274 OA
ENDROOT
BRANCH   1   6
ATOM      5  C   LIG    1       -2.332   2.762   0.413  0.00  0.00    +0.169 C 
ATOM      6  CA  LIG    1       -1.992   1.567  -0.520  0.00  0.00    +0.191 C 
ATOM      7  C   LIG    1       -2.198   2.566  -1.691  0.00  0.00    +0.244 C 
ATOM      8  O   LIG    1       -2.005   2.537  -2.905  0.00  0.00    -0.273 OA
ATOM      9  S   LIG    1       -1.054   3.608   1.398  0.00  0.00    -0.131 S 
ATOM     10  C   LIG    1       -1.997   5.163   1.580  0.00  0.00    +0.103 C 
ATOM     11  C   LIG    1       -2.496   5.734   0.241  0.00  0.00    -0.034 C 
ATOM     12  C   LIG    1       -2.694   7.252   0.283  0.00  0.00    +0.042 C 
ATOM     13  CA  LIG    1       -2.753   4.931  -0.837  0.00  0.00    +0.122 C 
ATOM     14  N   LIG    1       -2.608   3.566  -0.798  0.00  0.00    -0.249 N 
BRANCH  13  15
ATOM     15  C   LIG    1       -3.187   5.498  -2.106  0.00  0.00    +0.351 C 
ATOM     16  O   LIG    1       -2.576   6.373  -2.717  0.00  0.00    -0.244 OA
BRANCH  15  17
ATOM     17  OXT LIG    1       -4.360   4.952  -2.547  0.00  0.00    -0.476 OA
ATOM     18  HXT LIG    1       -4.643   5.326  -3.384  0.00  0.00    +0.295 HD
ENDBRANCH  15  17
ENDBRANCH  13  15
ENDBRANCH   1   6
BRANCH   3  19
ATOM     19  CA  LIG    1        1.271  -0.302   0.328  0.00  0.00    +0.168 C 
BRANCH  19  20
ATOM     20  C   LIG    1        1.948  -0.173   1.681  0.00  0.00    -0.022 A 
ATOM     21  C   LIG    1        2.600  -1.262   2.277  0.00  0.00    +0.009 A 
ATOM     22  C   LIG    1        3.229  -1.121   3.511  0.00  0.00    +0.046 A 
ATOM     23  C   LIG    1        3.216   0.114   4.157  0.00  0.00    +0.117 A 
ATOM     24  C   LIG    1        2.581   1.208   3.574  0.00  0.00    +0.046 A 
ATOM     25  C   LIG    1        1.954   1.065   2.340  0.00  0.00    +0.009 A 
BRANCH  23  26
ATOM     26  O   LIG    1        3.833   0.253   5.371  0.00  0.00    -0.507 OA
ATOM     27  H   LIG    1        4.236  -0.562   5.680  0.00  0.00    +0.292 HD
ENDBRANCH  23  26
ENDBRANCH  19  20
BRANCH  19  28
ATOM     28  N   LIG    1        1.310  -1.603  -0.367  0.00  0.00    -0.316 NA
ATOM     29  H1  LIG    1        0.898  -1.537  -1.287  0.00  0.00    +0.119 HD
ATOM     30  H2  LIG    1        0.782  -2.297   0.144  0.00  0.00    +0.119 HD
ENDBRANCH  19  28
ENDBRANCH   3  19
TORSDOF 7
