REMARK  Name = DB01610
REMARK                            x       y       z     vdW  Elec       q    Type
REMARK                         _______ _______ _______ _____ _____    ______ ____
ROOT
ATOM      1  O   LIG    1       -0.454  -0.881   0.818  0.00  0.00    -0.350 OA
ENDROOT
BRANCH   1   2
ATOM      2  C   LIG    1       -1.810  -1.006   1.132  0.00  0.00    +0.287 C 
BRANCH   2   3
ATOM      3  N   LIG    1       -2.210  -0.055   2.140  0.00  0.00    -0.292 N 
ATOM      4  C   LIG    1       -1.613   0.192   3.359  0.00  0.00    +0.203 A 
ATOM      5  N   LIG    1       -2.203   1.118   4.080  0.00  0.00    -0.229 NA
ATOM      6  C   LIG    1       -3.233   1.505   3.346  0.00  0.00    +0.172 A 
ATOM      7  C   LIG    1       -4.236   2.527   3.667  0.00  0.00    +0.302 A 
ATOM      8  N   LIG    1       -5.209   2.700   2.650  0.00  0.00    -0.176 NA
ATOM      9  C   LIG    1       -5.240   2.031   1.542  0.00  0.00    +0.195 A 
ATOM     10  N   LIG    1       -4.274   1.027   1.215  0.00  0.00    -0.312 N 
ATOM     11  H   LIG    1       -4.381   0.565   0.324  0.00  0.00    +0.170 HD
ATOM     12  O   LIG    1       -4.204   3.158   4.723  0.00  0.00    -0.263 OA
ATOM     13  C   LIG    1       -3.285   0.801   2.148  0.00  0.00    +0.148 A 
BRANCH   9  14
ATOM     14  N   LIG    1       -6.266   2.312   0.614  0.00  0.00    -0.329 N 
ATOM     15  H   LIG    1       -6.076   2.186  -0.370  0.00  0.00    +0.145 HD
ATOM     16  H   LIG    1       -6.859   3.112   0.784  0.00  0.00    +0.145 HD
ENDBRANCH   9  14
ENDBRANCH   2   3
ENDBRANCH   1   2
BRANCH   1  17
ATOM     17  C   LIG    1       -0.066   0.040  -0.209  0.00  0.00    +0.183 C 
BRANCH  17  18
ATOM     18  C   LIG    1       -0.538   1.500   0.015  0.00  0.00    +0.190 C 
BRANCH  18  19
ATOM     19  O   LIG    1       -0.077   2.359  -1.008  0.00  0.00    -0.392 OA
ATOM     20  H   LIG    1       -0.377   3.251  -0.818  0.00  0.00    +0.210 HD
ENDBRANCH  18  19
ENDBRANCH  17  18
BRANCH  17  21
ATOM     21  C   LIG    1        1.466  -0.090  -0.333  0.00  0.00    +0.266 C 
BRANCH  21  22
ATOM     22  O   LIG    1        2.103   0.393   0.846  0.00  0.00    -0.461 OA
BRANCH  22  23
ATOM     23  C   LIG    1        3.450   0.415   0.946  0.00  0.00    +0.324 C 
ATOM     24  O   LIG    1        4.236   0.031   0.076  0.00  0.00    -0.249 OA
BRANCH  23  25
ATOM     25  C   LIG    1        3.893   0.988   2.281  0.00  0.00    +0.163 C 
BRANCH  25  26
ATOM     26  C   LIG    1        5.110   1.960   2.165  0.00  0.00    +0.010 C 
ATOM     27  C   LIG    1        4.900   3.112   1.157  0.00  0.00    +0.009 C 
ATOM     28  C   LIG    1        5.506   2.551   3.533  0.00  0.00    +0.009 C 
ENDBRANCH  25  26
BRANCH  25  29
ATOM     29  N   LIG    1        4.150  -0.152   3.178  0.00  0.00    -0.318 NA
ATOM     30  H   LIG    1        3.288  -0.635   3.390  0.00  0.00    +0.119 HD
ATOM     31  H   LIG    1        4.509   0.172   4.064  0.00  0.00    +0.119 HD
ENDBRANCH  25  29
ENDBRANCH  23  25
ENDBRANCH  22  23
ENDBRANCH  21  22
ENDBRANCH  17  21
ENDBRANCH   1  17
TORSDOF 12
