REMARK  Name = DB01933
REMARK                            x       y       z     vdW  Elec       q    Type
REMARK                         _______ _______ _______ _____ _____    ______ ____
ROOT
ATOM      1  C   LIG    1        6.058  -3.336  -1.188  0.00  0.00    +0.235 C 
ATOM      2  C   LIG    1        4.655  -3.130  -0.689  0.00  0.00    +0.021 A 
ATOM      3  C   LIG    1        3.462  -2.958  -1.414  0.00  0.00    +0.018 A 
ATOM      4  C   LIG    1        3.160  -2.929  -2.778  0.00  0.00    +0.008 A 
ATOM      5  C   LIG    1        3.965  -3.084  -3.919  0.00  0.00    +0.010 A 
ATOM      6  C   LIG    1        3.385  -2.961  -5.175  0.00  0.00    +0.001 A 
ATOM      7  C   LIG    1        2.033  -2.680  -5.307  0.00  0.00    +0.002 A 
ATOM      8  C   LIG    1        1.200  -2.528  -4.200  0.00  0.00    +0.026 A 
ATOM      9  C   LIG    1        1.762  -2.672  -2.916  0.00  0.00    +0.053 A 
ATOM     10  N   LIG    1        1.191  -2.611  -1.629  0.00  0.00    -0.307 N 
ATOM     11  C   LIG    1       -0.236  -2.406  -1.285  0.00  0.00    +0.171 C 
ATOM     12  C   LIG    1       -1.157  -3.267  -2.173  0.00  0.00    +0.069 C 
ATOM     13  C   LIG    1       -0.664  -0.905  -1.412  0.00  0.00    +0.157 C 
ATOM     14  C   LIG    1       -0.226  -0.027  -0.210  0.00  0.00    -0.034 C 
ATOM     15  C   LIG    1       -0.568  -0.733   1.116  0.00  0.00    +0.041 C 
ATOM     16  C   LIG    1       -0.173  -2.214   1.146  0.00  0.00    +0.221 C 
ATOM     17  N   LIG    1        1.201  -2.447   1.525  0.00  0.00    -0.312 N 
ATOM     18  C   LIG    1        2.261  -2.678   0.669  0.00  0.00    +0.077 A 
ATOM     19  C   LIG    1        3.455  -2.849   1.410  0.00  0.00    +0.022 A 
ATOM     20  C   LIG    1        3.096  -2.716   2.772  0.00  0.00    +0.008 A 
ATOM     21  C   LIG    1        3.816  -2.780   3.979  0.00  0.00    +0.010 A 
ATOM     22  C   LIG    1        3.146  -2.587   5.184  0.00  0.00    +0.001 A 
ATOM     23  C   LIG    1        1.781  -2.331   5.212  0.00  0.00    +0.002 A 
ATOM     24  C   LIG    1        1.026  -2.259   4.043  0.00  0.00    +0.026 A 
ATOM     25  C   LIG    1        1.694  -2.457   2.825  0.00  0.00    +0.052 A 
ATOM     26  O   LIG    1       -0.544  -2.923  -0.005  0.00  0.00    -0.328 OA
ATOM     27  C   LIG    1        2.253  -2.742  -0.728  0.00  0.00    +0.077 A 
ATOM     28  C   LIG    1        4.652  -3.098   0.701  0.00  0.00    +0.054 A 
ATOM     29  C   LIG    1        6.051  -3.357   1.180  0.00  0.00    +0.247 C 
ATOM     30  O   LIG    1        6.495  -3.404   2.322  0.00  0.00    -0.270 OA
ATOM     31  N   LIG    1        6.752  -3.596   0.060  0.00  0.00    -0.282 N 
ATOM     32  H   LIG    1        7.720  -3.882   0.074  0.00  0.00    +0.152 HD
ENDROOT
BRANCH  14  33
ATOM     33  N   LIG    1        1.289   0.255  -0.325  0.00  0.00    +0.381 N 
ATOM     34  H   LIG    1        1.477   0.582  -1.262  0.00  0.00    -0.086 HD
ATOM     35  H   LIG    1        1.776  -0.626  -0.237  0.00  0.00    -0.086 HD
ATOM     36  C   LIG    1        1.876   1.236   0.700  0.00  0.00    -0.100 C 
ENDBRANCH  14  33
BRANCH   1  37
ATOM     37  O   LIG    1        6.556  -2.191  -1.849  0.00  0.00    -0.370 OA
ATOM     38  H   LIG    1        7.433  -2.389  -2.184  0.00  0.00    +0.212 HD
ENDBRANCH   1  37
BRANCH  13  39
ATOM     39  O   LIG    1       -0.281  -0.359  -2.678  0.00  0.00    -0.377 OA
ATOM     40  C   LIG    1       -1.021   0.770  -3.124  0.00  0.00    +0.194 C 
ENDBRANCH  13  39
TORSDOF 3
