REMARK  Name = DB01048
REMARK                            x       y       z     vdW  Elec       q    Type
REMARK                         _______ _______ _______ _____ _____    ______ ____
ROOT
ATOM      1  C   LIG    1       -0.846   1.055   0.252  0.00  0.00    +0.168 A 
ATOM      2  N   LIG    1       -0.516   2.322  -0.030  0.00  0.00    -0.195 NA
ATOM      3  C   LIG    1       -1.593   3.142  -0.157  0.00  0.00    +0.216 A 
ATOM      4  N   LIG    1       -2.903   2.805  -0.032  0.00  0.00    -0.198 NA
ATOM      5  C   LIG    1       -3.206   1.504   0.249  0.00  0.00    +0.152 A 
ATOM      6  C   LIG    1       -2.167   0.567   0.405  0.00  0.00    +0.148 A 
ATOM      7  N   LIG    1       -2.167  -0.775   0.678  0.00  0.00    -0.231 NA
ATOM      8  C   LIG    1       -0.896  -1.095   0.687  0.00  0.00    +0.202 A 
ATOM      9  N   LIG    1       -0.030  -0.040   0.459  0.00  0.00    -0.308 N 
ENDROOT
BRANCH   9  10
ATOM     10  C   LIG    1        1.434  -0.086   0.367  0.00  0.00    +0.113 C 
ATOM     11  C   LIG    1        1.923  -0.440  -1.039  0.00  0.00    +0.039 C 
ATOM     12  C   LIG    1        3.171  -1.318  -0.873  0.00  0.00    +0.039 C 
ATOM     13  C   LIG    1        3.037  -1.813   0.556  0.00  0.00    -0.023 C 
ATOM     14  C   LIG    1        2.065  -1.167   1.223  0.00  0.00    -0.006 C 
BRANCH  12  15
ATOM     15  C   LIG    1        3.266  -2.482  -1.882  0.00  0.00    +0.163 C 
BRANCH  15  16
ATOM     16  O   LIG    1        3.436  -1.994  -3.197  0.00  0.00    -0.394 OA
ATOM     17  H   LIG    1        3.504  -2.742  -3.795  0.00  0.00    +0.209 HD
ENDBRANCH  15  16
ENDBRANCH  12  15
ENDBRANCH   9  10
BRANCH   3  18
ATOM     18  N   LIG    1       -1.324   4.475  -0.444  0.00  0.00    -0.327 N 
ATOM     19  H   LIG    1       -0.365   4.775  -0.541  0.00  0.00    +0.145 HD
ATOM     20  H   LIG    1       -2.091   5.122  -0.549  0.00  0.00    +0.145 HD
ENDBRANCH   3  18
BRANCH   5  21
ATOM     21  N   LIG    1       -4.543   1.098   0.394  0.00  0.00    -0.324 N 
ATOM     22  H   LIG    1       -4.697   0.100   0.383  0.00  0.00    +0.148 HD
BRANCH  21  23
ATOM     23  C   LIG    1       -5.624   1.948  -0.089  0.00  0.00    +0.072 C 
ATOM     24  C   LIG    1       -6.268   1.576  -1.401  0.00  0.00    +0.024 C 
ATOM     25  C   LIG    1       -7.011   1.358  -0.095  0.00  0.00    +0.024 C 
ENDBRANCH  21  23
ENDBRANCH   5  21
TORSDOF 6
