REMARK  Name = DB01129
REMARK                            x       y       z     vdW  Elec       q    Type
REMARK                         _______ _______ _______ _____ _____    ______ ____
ROOT
ATOM      1  C   LIG    1        4.760  -0.896  -1.333  0.00  0.00    +0.167 C 
ENDROOT
BRANCH   1   2
ATOM      2  C   LIG    1        3.623   0.083  -1.054  0.00  0.00    +0.060 A 
ATOM      3  C   LIG    1        2.304  -0.313  -0.746  0.00  0.00    +0.013 A 
ATOM      4  C   LIG    1        1.881  -1.779  -0.670  0.00  0.00    +0.049 C 
ATOM      5  C   LIG    1        1.346   0.687  -0.494  0.00  0.00    +0.127 A 
ATOM      6  C   LIG    1        1.742   2.034  -0.561  0.00  0.00    +0.065 A 
ATOM      7  C   LIG    1        3.064   2.337  -0.872  0.00  0.00    +0.114 A 
ATOM      8  N   LIG    1        3.997   1.388  -1.114  0.00  0.00    -0.258 NA
BRANCH   5   9
ATOM      9  O   LIG    1        0.059   0.283  -0.186  0.00  0.00    -0.492 OA
BRANCH   9  10
ATOM     10  C   LIG    1       -0.935   1.259   0.119  0.00  0.00    +0.231 C 
BRANCH  10  11
ATOM     11  C   LIG    1       -2.257   0.554   0.458  0.00  0.00    +0.069 C 
BRANCH  11  12
ATOM     12  C   LIG    1       -2.164  -0.364   1.687  0.00  0.00    +0.163 C 
BRANCH  12  13
ATOM     13  O   LIG    1       -3.444  -0.927   1.935  0.00  0.00    -0.383 OA
ATOM     14  C   LIG    1       -3.468  -1.804   3.052  0.00  0.00    +0.193 C 
ENDBRANCH  12  13
ENDBRANCH  11  12
ENDBRANCH  10  11
ENDBRANCH   9  10
ENDBRANCH   5   9
ENDBRANCH   1   2
BRANCH   1  15
ATOM     15  S   LIG    1        5.501  -1.490   0.263  0.00  0.00    +0.095 S 
ATOM     16  O   LIG    1        4.480  -2.417   0.928  0.00  0.00    -0.249 OA
BRANCH  15  17
ATOM     17  C   LIG    1        6.743  -2.607  -0.499  0.00  0.00    +0.198 A 
ATOM     18  N   LIG    1        7.822  -2.253  -1.150  0.00  0.00    -0.220 NA
ATOM     19  C   LIG    1        8.404  -3.439  -1.516  0.00  0.00    +0.090 A 
ATOM     20  C   LIG    1        9.589  -3.660  -2.234  0.00  0.00    +0.030 A 
ATOM     21  C   LIG    1        9.971  -4.980  -2.482  0.00  0.00    +0.002 A 
ATOM     22  C   LIG    1        9.202  -6.055  -2.033  0.00  0.00    +0.002 A 
ATOM     23  C   LIG    1        8.017  -5.870  -1.315  0.00  0.00    +0.028 A 
ATOM     24  C   LIG    1        7.638  -4.547  -1.068  0.00  0.00    +0.067 A 
ATOM     25  N   LIG    1        6.574  -3.969  -0.416  0.00  0.00    -0.331 N 
ATOM     26  H   LIG    1        5.793  -4.407   0.051  0.00  0.00    +0.168 HD
ENDBRANCH  15  17
ENDBRANCH   1  15
TORSDOF 8
