REMARK  Name = DB01598
REMARK                            x       y       z     vdW  Elec       q    Type
REMARK                         _______ _______ _______ _____ _____    ______ ____
ROOT
ATOM      1  C   LIG    1        1.917  -0.042  -0.262  0.00  0.00    +0.016 C 
ATOM      2  C   LIG    1        2.813  -0.119  -1.274  0.00  0.00    +0.131 C 
ATOM      3  N   LIG    1        4.073  -0.068  -0.773  0.00  0.00    -0.260 N 
ATOM      4  C   LIG    1        5.021   0.950  -0.927  0.00  0.00    +0.228 C 
ATOM      5  C   LIG    1        4.991   1.247   0.600  0.00  0.00    +0.125 C 
ATOM      6  O   LIG    1        5.595   1.430  -1.903  0.00  0.00    -0.275 OA
ATOM      7  C   LIG    1        4.136  -0.042   0.700  0.00  0.00    +0.101 C 
ATOM      8  C   LIG    1        2.646   0.044   1.072  0.00  0.00    +0.068 C 
ENDROOT
BRANCH   2   9
ATOM      9  C   LIG    1        2.515  -0.267  -2.692  0.00  0.00    +0.352 C 
ATOM     10  O   LIG    1        1.408  -0.080  -3.194  0.00  0.00    -0.244 OA
BRANCH   9  11
ATOM     11  O   LIG    1        3.603  -0.642  -3.431  0.00  0.00    -0.476 OA
ATOM     12  H   LIG    1        3.394  -0.732  -4.363  0.00  0.00    +0.295 HD
ENDBRANCH   9  11
ENDBRANCH   2   9
BRANCH   5  13
ATOM     13  C   LIG    1        6.398   1.196   1.244  0.00  0.00    +0.125 C 
ATOM     14  C   LIG    1        7.290   2.400   0.888  0.00  0.00    +0.038 C 
BRANCH  13  15
ATOM     15  O   LIG    1        6.240   1.174   2.648  0.00  0.00    -0.391 OA
ATOM     16  H   LIG    1        5.700   0.416   2.884  0.00  0.00    +0.210 HD
ENDBRANCH  13  15
ENDBRANCH   5  13
BRANCH   1  17
ATOM     17  S   LIG    1        0.138  -0.167  -0.301  0.00  0.00    -0.126 S 
BRANCH  17  18
ATOM     18  C   LIG    1       -0.352   1.490   0.265  0.00  0.00    +0.097 C 
BRANCH  18  19
ATOM     19  C   LIG    1       -1.866   1.777   0.307  0.00  0.00    +0.154 C 
BRANCH  19  20
ATOM     20  N   LIG    1       -2.463   1.600  -1.008  0.00  0.00    -0.276 NA
ATOM     21  C   LIG    1       -2.971   2.619  -1.570  0.00  0.00    +0.172 C 
BRANCH  21  22
ATOM     22  N   LIG    1       -3.593   2.724  -2.790  0.00  0.00    -0.349 N 
ATOM     23  H   LIG    1       -3.972   3.606  -3.103  0.00  0.00    +0.143 HD
ATOM     24  H   LIG    1       -3.697   1.911  -3.380  0.00  0.00    +0.143 HD
ENDBRANCH  21  22
ENDBRANCH  19  20
ENDBRANCH  18  19
ENDBRANCH  17  18
ENDBRANCH   1  17
TORSDOF 9
