REMARK  Name = DB01029
REMARK                            x       y       z     vdW  Elec       q    Type
REMARK                         _______ _______ _______ _____ _____    ______ ____
ROOT
ATOM      1  C   LIG    1        1.897   0.878  -1.329  0.00  0.00    -0.008 A 
ATOM      2  C   LIG    1        1.342   0.539  -2.567  0.00  0.00    +0.008 A 
ATOM      3  C   LIG    1        1.865   1.083  -3.737  0.00  0.00    +0.009 A 
ATOM      4  C   LIG    1        2.951   1.962  -3.684  0.00  0.00    -0.017 A 
ATOM      5  C   LIG    1        3.494   2.306  -2.442  0.00  0.00    +0.009 A 
ATOM      6  C   LIG    1        2.973   1.765  -1.270  0.00  0.00    +0.008 A 
ENDROOT
BRANCH   4   7
ATOM      7  C   LIG    1        3.509   2.543  -4.935  0.00  0.00    -0.007 A 
ATOM      8  C   LIG    1        2.682   3.405  -5.667  0.00  0.00    +0.009 A 
ATOM      9  C   LIG    1        3.139   4.046  -6.814  0.00  0.00    +0.001 A 
ATOM     10  C   LIG    1        4.442   3.835  -7.247  0.00  0.00    +0.001 A 
ATOM     11  C   LIG    1        5.276   2.972  -6.541  0.00  0.00    +0.012 A 
ATOM     12  C   LIG    1        4.830   2.297  -5.391  0.00  0.00    +0.030 A 
BRANCH  12  13
ATOM     13  C   LIG    1        5.806   1.343  -4.734  0.00  0.00    +0.205 A 
ATOM     14  N   LIG    1        5.444   0.357  -3.925  0.00  0.00    -0.108 NA
ATOM     15  N   LIG    1        6.603  -0.287  -3.550  0.00  0.00    -0.049 NA
ATOM     16  N   LIG    1        7.556   0.381  -4.193  0.00  0.00    -0.176 N 
ATOM     17  H   LIG    1        8.534   0.141  -4.124  0.00  0.00    +0.214 HD
ATOM     18  N   LIG    1        7.110   1.393  -4.942  0.00  0.00    -0.133 NA
ENDBRANCH  12  13
ENDBRANCH   4   7
BRANCH   1  19
ATOM     19  C   LIG    1        1.343   0.286  -0.035  0.00  0.00    +0.270 C 
BRANCH  19  29
ATOM     20  O   LIG    1       -0.564   2.487  -0.007  0.00  0.00    -0.242 OA
ATOM     21  C   LIG    1       -0.895   1.301   0.069  0.00  0.00    +0.356 C 
ATOM     22  C   LIG    1       -2.305   0.743   0.189  0.00  0.00    +0.249 C 
ATOM     23  C   LIG    1       -3.055   1.347   1.401  0.00  0.00    +0.069 C 
ATOM     24  C   LIG    1       -4.552   1.260   1.065  0.00  0.00    +0.005 C 
ATOM     25  C   LIG    1       -4.642   1.123  -0.461  0.00  0.00    +0.005 C 
ATOM     26  C   LIG    1       -3.201   1.218  -0.980  0.00  0.00    +0.069 C 
ATOM     27  N   LIG    1       -2.147  -0.674   0.258  0.00  0.00    -0.069 NA
ATOM     28  C   LIG    1       -0.900  -0.918   0.209  0.00  0.00    +0.292 C 
ATOM     29  N   LIG    1       -0.126   0.194   0.061  0.00  0.00    -0.153 N 
BRANCH  28  30
ATOM     30  C   LIG    1       -0.255  -2.309   0.287  0.00  0.00    +0.128 C 
BRANCH  30  31
ATOM     31  C   LIG    1       -1.208  -3.448   0.727  0.00  0.00    +0.012 C 
BRANCH  31  32
ATOM     32  C   LIG    1       -1.664  -3.369   2.200  0.00  0.00    -0.003 C 
ATOM     33  C   LIG    1       -2.540  -4.558   2.618  0.00  0.00    +0.004 C 
ENDBRANCH  31  32
ENDBRANCH  30  31
ENDBRANCH  28  30
ENDBRANCH  19  29
ENDBRANCH   1  19
TORSDOF 7
