REMARK  Name = DB01628
REMARK                            x       y       z     vdW  Elec       q    Type
REMARK                         _______ _______ _______ _____ _____    ______ ____
ROOT
ATOM      1 CL   LIG    1        4.493   1.658   2.001  0.00  0.00    -0.082 Cl
ATOM      2  C   LIG    1        3.571   0.714   0.888  0.00  0.00    +0.060 A 
ATOM      3  C   LIG    1        4.201  -0.125  -0.027  0.00  0.00    +0.131 A 
ATOM      4  N   LIG    1        3.515  -0.879  -0.919  0.00  0.00    -0.253 NA
ATOM      5  C   LIG    1        2.154  -0.816  -0.924  0.00  0.00    +0.080 A 
ATOM      6  C   LIG    1        1.436  -0.009  -0.011  0.00  0.00    +0.010 A 
ATOM      7  C   LIG    1        2.179   0.767   0.890  0.00  0.00    +0.032 A 
ENDROOT
BRANCH   5   8
ATOM      8  C   LIG    1        1.512  -1.647  -1.983  0.00  0.00    +0.019 A 
ATOM      9  C   LIG    1        1.836  -3.002  -2.148  0.00  0.00    +0.121 A 
ATOM     10  N   LIG    1        1.271  -3.801  -3.088  0.00  0.00    -0.260 NA
ATOM     11  C   LIG    1        0.346  -3.251  -3.915  0.00  0.00    +0.038 A 
ATOM     12  C   LIG    1       -0.257  -4.186  -4.947  0.00  0.00    +0.065 C 
ATOM     13  C   LIG    1       -0.037  -1.910  -3.834  0.00  0.00    +0.024 A 
ATOM     14  C   LIG    1        0.558  -1.108  -2.859  0.00  0.00    +0.013 A 
ENDBRANCH   5   8
BRANCH   6  15
ATOM     15  C   LIG    1       -0.052   0.030   0.050  0.00  0.00    -0.016 A 
ATOM     16  C   LIG    1       -0.732   1.250  -0.037  0.00  0.00    +0.010 A 
ATOM     17  C   LIG    1       -2.123   1.289   0.012  0.00  0.00    +0.027 A 
ATOM     18  C   LIG    1       -2.845   0.104   0.157  0.00  0.00    +0.088 A 
ATOM     19  C   LIG    1       -2.178  -1.118   0.253  0.00  0.00    +0.027 A 
ATOM     20  C   LIG    1       -0.788  -1.151   0.204  0.00  0.00    +0.010 A 
BRANCH  18  21
ATOM     21  S   LIG    1       -4.634   0.149   0.207  0.00  0.00    -0.006 S 
ATOM     22  C   LIG    1       -5.116   0.005  -1.610  0.00  0.00    +0.200 C 
ATOM     23  O   LIG    1       -5.028   1.477   0.691  0.00  0.00    -0.170 OA
ATOM     24  O   LIG    1       -5.088  -1.058   0.907  0.00  0.00    -0.170 OA
ENDBRANCH  18  21
ENDBRANCH   6  15
TORSDOF 3
