REMARK  Name = DB01011
REMARK                            x       y       z     vdW  Elec       q    Type
REMARK                         _______ _______ _______ _____ _____    ______ ____
ROOT
ATOM      1  C   LIG    1        1.471  -0.061  -0.112  0.00  0.00    +0.054 C 
ATOM      2  C   LIG    1        1.917   1.429  -0.064  0.00  0.00    +0.024 C 
ATOM      3  C   LIG    1        1.919  -0.705   1.236  0.00  0.00    +0.024 C 
ENDROOT
BRANCH   1   5
ATOM      4  C   LIG    1        3.371  -1.387  -1.256  0.00  0.00    +0.007 A 
ATOM      5  C   LIG    1        2.149  -0.699  -1.357  0.00  0.00    -0.016 A 
ATOM      6  C   LIG    1        1.618  -0.554  -2.654  0.00  0.00    +0.115 A 
ATOM      7  N   LIG    1        2.193  -1.067  -3.770  0.00  0.00    -0.263 NA
ATOM      8  C   LIG    1        3.357  -1.746  -3.626  0.00  0.00    +0.111 A 
ATOM      9  C   LIG    1        3.980  -1.923  -2.392  0.00  0.00    +0.020 A 
ENDBRANCH   1   5
BRANCH   1  10
ATOM     10  C   LIG    1       -0.093  -0.167  -0.233  0.00  0.00    +0.174 C 
ATOM     11  O   LIG    1       -0.752   0.854  -0.448  0.00  0.00    -0.291 OA
BRANCH  10  12
ATOM     12  C   LIG    1       -0.774  -1.479   0.037  0.00  0.00    +0.036 A 
ATOM     13  C   LIG    1       -2.075  -1.491   0.563  0.00  0.00    +0.122 A 
ATOM     14  N   LIG    1       -2.777  -2.628   0.806  0.00  0.00    -0.263 NA
ATOM     15  C   LIG    1       -2.187  -3.811   0.506  0.00  0.00    +0.111 A 
ATOM     16  C   LIG    1       -0.907  -3.901  -0.039  0.00  0.00    +0.020 A 
ATOM     17  C   LIG    1       -0.201  -2.721  -0.281  0.00  0.00    +0.014 A 
ENDBRANCH  10  12
ENDBRANCH   1  10
TORSDOF 3
