REMARK  Name = DB01249
REMARK                            x       y       z     vdW  Elec       q    Type
REMARK                         _______ _______ _______ _____ _____    ______ ____
ROOT
ATOM      1  C   LIG    1        1.038   0.188   0.782  0.00  0.00    +0.150 C 
ENDROOT
BRANCH   1   2
ATOM      2  O   LIG    1        1.107   0.243   2.191  0.00  0.00    -0.389 OA
ATOM      3  H   LIG    1        0.663   1.043   2.484  0.00  0.00    +0.210 HD
ENDBRANCH   1   2
BRANCH   1   4
ATOM      4  C   LIG    1       -0.447   0.252   0.348  0.00  0.00    +0.146 C 
BRANCH   4   5
ATOM      5  N   LIG    1       -0.949   1.575  -0.075  0.00  0.00    -0.267 N 
ATOM      6  C   LIG    1       -1.087   2.602   0.814  0.00  0.00    +0.217 C 
ATOM      7  C   LIG    1       -1.574   3.971   0.322  0.00  0.00    +0.109 C 
ATOM      8  O   LIG    1       -0.824   2.488   2.012  0.00  0.00    -0.276 OA
BRANCH   5   9
ATOM      9  C   LIG    1       -1.539   1.638  -1.356  0.00  0.00    +0.064 A 
ATOM     10  C   LIG    1       -2.872   1.224  -1.538  0.00  0.00    +0.049 A 
ATOM     11  I   LIG    1       -3.997   0.546   0.123  0.00  0.00    -0.041 I 
ATOM     12  C   LIG    1       -3.445   1.265  -2.822  0.00  0.00    +0.065 A 
ATOM     13  C   LIG    1       -2.691   1.723  -3.921  0.00  0.00    +0.040 A 
ATOM     14  I   LIG    1       -3.561   1.800  -5.853  0.00  0.00    -0.042 I 
ATOM     15  C   LIG    1       -1.355   2.130  -3.732  0.00  0.00    +0.065 A 
ATOM     16  C   LIG    1       -0.777   2.086  -2.449  0.00  0.00    +0.049 A 
ATOM     17  I   LIG    1        1.224   2.698  -2.148  0.00  0.00    -0.041 I 
BRANCH  12  18
ATOM     18  C   LIG    1       -4.869   0.822  -3.019  0.00  0.00    +0.246 C 
ATOM     19  O   LIG    1       -5.800   1.617  -2.890  0.00  0.00    -0.270 OA
ATOM     20  N   LIG    1       -5.011  -0.479  -3.328  0.00  0.00    -0.309 N 
ATOM     21  H   LIG    1       -4.182  -1.046  -3.432  0.00  0.00    +0.149 HD
BRANCH  20  22
ATOM     22  C   LIG    1       -6.291  -1.157  -3.531  0.00  0.00    +0.138 C 
BRANCH  22  23
ATOM     23  C   LIG    1       -7.045  -1.487  -2.219  0.00  0.00    +0.157 C 
BRANCH  23  24
ATOM     24  O   LIG    1       -8.340  -1.969  -2.529  0.00  0.00    -0.388 OA
ATOM     25  H   LIG    1       -8.249  -2.813  -2.977  0.00  0.00    +0.210 HD
ENDBRANCH  23  24
BRANCH  23  26
ATOM     26  C   LIG    1       -6.324  -2.500  -1.298  0.00  0.00    +0.188 C 
BRANCH  26  27
ATOM     27  O   LIG    1       -6.055  -3.727  -1.950  0.00  0.00    -0.392 OA
ATOM     28  H   LIG    1       -5.623  -4.316  -1.327  0.00  0.00    +0.210 HD
ENDBRANCH  26  27
ENDBRANCH  23  26
ENDBRANCH  22  23
ENDBRANCH  20  22
ENDBRANCH  12  18
BRANCH  15  29
ATOM     29  C   LIG    1       -0.546   2.618  -4.901  0.00  0.00    +0.246 C 
ATOM     30  N   LIG    1        0.142   1.659  -5.546  0.00  0.00    -0.309 N 
ATOM     31  H   LIG    1        0.110   0.717  -5.186  0.00  0.00    +0.149 HD
ATOM     32  O   LIG    1       -0.552   3.808  -5.217  0.00  0.00    -0.270 OA
BRANCH  30  33
ATOM     33  C   LIG    1        0.949   1.873  -6.747  0.00  0.00    +0.138 C 
BRANCH  33  34
ATOM     34  C   LIG    1        0.119   2.083  -8.036  0.00  0.00    +0.157 C 
BRANCH  34  35
ATOM     35  O   LIG    1        0.999   2.486  -9.069  0.00  0.00    -0.388 OA
ATOM     36  H   LIG    1        0.485   2.607  -9.872  0.00  0.00    +0.210 HD
ENDBRANCH  34  35
BRANCH  34  37
ATOM     37  C   LIG    1       -0.634   0.810  -8.482  0.00  0.00    +0.188 C 
BRANCH  37  38
ATOM     38  O   LIG    1       -1.548   1.094  -9.523  0.00  0.00    -0.392 OA
ATOM     39  H   LIG    1       -2.000   0.281  -9.765  0.00  0.00    +0.210 HD
ENDBRANCH  37  38
ENDBRANCH  34  37
ENDBRANCH  33  34
ENDBRANCH  30  33
ENDBRANCH  15  29
ENDBRANCH   5   9
ENDBRANCH   4   5
ENDBRANCH   1   4
BRANCH   1  40
ATOM     40  C   LIG    1        1.728  -1.100   0.272  0.00  0.00    +0.146 C 
BRANCH  40  41
ATOM     41  N   LIG    1        3.197  -1.198   0.426  0.00  0.00    -0.267 N 
ATOM     42  C   LIG    1        4.031  -0.365  -0.263  0.00  0.00    +0.217 C 
ATOM     43  C   LIG    1        5.550  -0.473  -0.067  0.00  0.00    +0.109 C 
ATOM     44  O   LIG    1        3.623   0.490  -1.050  0.00  0.00    -0.276 OA
BRANCH  41  45
ATOM     45  C   LIG    1        3.688  -2.403   0.977  0.00  0.00    +0.064 A 
ATOM     46  C   LIG    1        3.746  -3.566   0.184  0.00  0.00    +0.049 A 
ATOM     47  I   LIG    1        3.152  -3.493  -1.848  0.00  0.00    -0.041 I 
ATOM     48  C   LIG    1        4.205  -4.772   0.746  0.00  0.00    +0.065 A 
ATOM     49  C   LIG    1        4.601  -4.819   2.097  0.00  0.00    +0.040 A 
ATOM     50  I   LIG    1        5.281  -6.640   2.945  0.00  0.00    -0.042 I 
ATOM     51  C   LIG    1        4.546  -3.651   2.883  0.00  0.00    +0.065 A 
ATOM     52  C   LIG    1        4.094  -2.441   2.324  0.00  0.00    +0.049 A 
ATOM     53  I   LIG    1        4.046  -0.676   3.490  0.00  0.00    -0.041 I 
BRANCH  48  54
ATOM     54  C   LIG    1        4.266  -6.016  -0.098  0.00  0.00    +0.246 C 
ATOM     55  O   LIG    1        3.295  -6.769  -0.179  0.00  0.00    -0.270 OA
ATOM     56  N   LIG    1        5.439  -6.208  -0.726  0.00  0.00    -0.309 N 
ATOM     57  H   LIG    1        6.165  -5.515  -0.609  0.00  0.00    +0.149 HD
BRANCH  56  58
ATOM     58  C   LIG    1        5.758  -7.341  -1.597  0.00  0.00    +0.138 C 
BRANCH  58  59
ATOM     59  C   LIG    1        6.415  -8.537  -0.868  0.00  0.00    +0.157 C 
BRANCH  59  60
ATOM     60  O   LIG    1        5.504  -9.092   0.067  0.00  0.00    -0.388 OA
ATOM     61  H   LIG    1        4.715  -9.372  -0.402  0.00  0.00    +0.210 HD
ENDBRANCH  59  60
BRANCH  59  62
ATOM     62  C   LIG    1        6.867  -9.639  -1.851  0.00  0.00    +0.188 C 
BRANCH  62  63
ATOM     63  O   LIG    1        7.684 -10.600  -1.212  0.00  0.00    -0.392 OA
ATOM     64  H   LIG    1        7.937 -11.266  -1.856  0.00  0.00    +0.210 HD
ENDBRANCH  62  63
ENDBRANCH  59  62
ENDBRANCH  58  59
ENDBRANCH  56  58
ENDBRANCH  48  54
BRANCH  51  65
ATOM     65  C   LIG    1        4.972  -3.697   4.324  0.00  0.00    +0.246 C 
ATOM     66  O   LIG    1        6.147  -3.509   4.641  0.00  0.00    -0.270 OA
ATOM     67  N   LIG    1        3.980  -3.968   5.190  0.00  0.00    -0.309 N 
ATOM     68  H   LIG    1        3.042  -4.076   4.831  0.00  0.00    +0.149 HD
BRANCH  67  69
ATOM     69  C   LIG    1        4.147  -4.124   6.634  0.00  0.00    +0.138 C 
BRANCH  69  70
ATOM     70  C   LIG    1        4.799  -5.463   7.052  0.00  0.00    +0.157 C 
BRANCH  70  71
ATOM     71  O   LIG    1        5.083  -5.401   8.438  0.00  0.00    -0.388 OA
ATOM     72  H   LIG    1        5.539  -6.206   8.693  0.00  0.00    +0.210 HD
ENDBRANCH  70  71
BRANCH  70  73
ATOM     73  C   LIG    1        3.896  -6.686   6.770  0.00  0.00    +0.188 C 
BRANCH  73  74
ATOM     74  O   LIG    1        4.596  -7.899   6.960  0.00  0.00    -0.392 OA
ATOM     75  H   LIG    1        4.720  -8.038   7.902  0.00  0.00    +0.210 HD
ENDBRANCH  73  74
ENDBRANCH  70  73
ENDBRANCH  69  70
ENDBRANCH  67  69
ENDBRANCH  51  65
ENDBRANCH  41  45
ENDBRANCH  40  41
ENDBRANCH   1  40
TORSDOF 31
