REMARK  Name = DB01162
REMARK                            x       y       z     vdW  Elec       q    Type
REMARK                         _______ _______ _______ _____ _____    ______ ____
ROOT
ATOM      1  C   LIG    1        4.511   2.622   0.147  0.00  0.00    +0.220 A 
ATOM      2  N   LIG    1        5.330   1.801   0.859  0.00  0.00    -0.199 NA
ATOM      3  C   LIG    1        4.974   0.501   0.970  0.00  0.00    +0.129 A 
ATOM      4  C   LIG    1        3.801  -0.029   0.364  0.00  0.00    +0.044 A 
ATOM      5  C   LIG    1        3.377  -1.379   0.440  0.00  0.00    +0.062 A 
ATOM      6  C   LIG    1        2.199  -1.800  -0.198  0.00  0.00    +0.162 A 
ATOM      7  C   LIG    1        1.427  -0.880  -0.920  0.00  0.00    +0.164 A 
ATOM      8  C   LIG    1        1.834   0.460  -1.008  0.00  0.00    +0.078 A 
ATOM      9  C   LIG    1        3.016   0.901  -0.374  0.00  0.00    +0.082 A 
ATOM     10  N   LIG    1        3.376   2.211  -0.486  0.00  0.00    -0.214 NA
ENDROOT
BRANCH   1  15
ATOM     11  C   LIG    1        5.288   7.946   0.571  0.00  0.00    +0.245 C 
ATOM     12  N   LIG    1        5.551   6.790  -0.099  0.00  0.00    -0.296 N 
ATOM     13  C   LIG    1        4.619   6.267  -1.104  0.00  0.00    +0.127 C 
ATOM     14  C   LIG    1        3.976   4.971  -0.563  0.00  0.00    +0.127 C 
ATOM     15  N   LIG    1        4.906   3.957  -0.021  0.00  0.00    -0.297 N 
ATOM     16  C   LIG    1        5.968   4.555   0.816  0.00  0.00    +0.127 C 
ATOM     17  C   LIG    1        6.614   5.856   0.288  0.00  0.00    +0.127 C 
ATOM     18  O   LIG    1        4.276   8.616   0.343  0.00  0.00    -0.273 OA
BRANCH  11  23
ATOM     19  O   LIG    1        6.281   7.776   2.806  0.00  0.00    -0.367 OA
ATOM     20  C   LIG    1        5.313   8.368   3.673  0.00  0.00    +0.161 C 
ATOM     21  C   LIG    1        5.261   9.848   3.281  0.00  0.00    +0.031 C 
ATOM     22  C   LIG    1        6.113   9.950   2.027  0.00  0.00    +0.043 C 
ATOM     23  C   LIG    1        6.341   8.498   1.575  0.00  0.00    +0.204 C 
ENDBRANCH  11  23
ENDBRANCH   1  15
BRANCH   3  24
ATOM     24  N   LIG    1        5.841  -0.291   1.724  0.00  0.00    -0.343 N 
ATOM     25  H   LIG    1        6.662   0.130   2.135  0.00  0.00    +0.144 HD
ATOM     26  H   LIG    1        5.638  -1.271   1.852  0.00  0.00    +0.144 HD
ENDBRANCH   3  24
BRANCH   7  27
ATOM     27  O   LIG    1        0.277  -1.365  -1.519  0.00  0.00    -0.491 OA
ATOM     28  C   LIG    1       -0.557  -0.482  -2.262  0.00  0.00    +0.277 C 
ENDBRANCH   7  27
BRANCH   6  29
ATOM     29  O   LIG    1        1.738  -3.105  -0.160  0.00  0.00    -0.491 OA
ATOM     30  C   LIG    1        2.475  -4.094   0.550  0.00  0.00    +0.277 C 
ENDBRANCH   6  29
TORSDOF 5
