REMARK  Name = DB01416
REMARK                            x       y       z     vdW  Elec       q    Type
REMARK                         _______ _______ _______ _____ _____    ______ ____
ROOT
ATOM      1  S   LIG    1        1.103  -2.465   1.518  0.00  0.00    -0.131 S 
ATOM      2  C   LIG    1        2.393  -3.750   1.359  0.00  0.00    +0.106 C 
ATOM      3  C   LIG    1        3.125  -3.730   0.004  0.00  0.00    -0.006 C 
ATOM      4  CA  LIG    1        3.252  -2.581  -0.729  0.00  0.00    +0.124 C 
ATOM      5  N   LIG    1        2.742  -1.378  -0.307  0.00  0.00    -0.249 N 
ATOM      6  C   LIG    1        2.519  -0.088  -0.800  0.00  0.00    +0.244 C 
ATOM      7  CA  LIG    1        1.619   0.240   0.444  0.00  0.00    +0.191 C 
ATOM      8  O   LIG    1        2.877   0.514  -1.811  0.00  0.00    -0.273 OA
ATOM      9  C   LIG    1        2.185  -1.086   1.029  0.00  0.00    +0.169 C 
ENDROOT
BRANCH   7  10
ATOM     10  N   LIG    1        0.153   0.274   0.263  0.00  0.00    -0.296 N 
ATOM     11  H   LIG    1       -0.364   0.198   1.127  0.00  0.00    +0.150 HD
ATOM     12  C   LIG    1       -0.595   0.436  -0.849  0.00  0.00    +0.268 C 
ATOM     13  O   LIG    1       -0.154   0.643  -1.980  0.00  0.00    -0.268 OA
BRANCH  12  14
ATOM     14  C   LIG    1       -2.038   0.342  -0.585  0.00  0.00    +0.190 C 
ATOM     15  N   LIG    1       -2.788   1.391  -0.608  0.00  0.00    -0.078 NA
BRANCH  14  16
ATOM     16  C   LIG    1       -2.637  -0.984  -0.288  0.00  0.00    +0.107 A 
ATOM     17  C   LIG    1       -3.975  -1.179   0.082  0.00  0.00    +0.078 A 
ATOM     18  S   LIG    1       -4.274  -2.874   0.333  0.00  0.00    -0.060 S 
ATOM     19  C   LIG    1       -2.618  -3.166  -0.079  0.00  0.00    +0.156 A 
ATOM     20  N   LIG    1       -1.923  -2.100  -0.377  0.00  0.00    -0.223 NA
BRANCH  19  21
ATOM     21  N   LIG    1       -2.122  -4.437  -0.077  0.00  0.00    -0.338 N 
ATOM     22  H   LIG    1       -2.699  -5.233   0.154  0.00  0.00    +0.144 HD
ATOM     23  H   LIG    1       -1.159  -4.626  -0.315  0.00  0.00    +0.144 HD
ENDBRANCH  19  21
ENDBRANCH  14  16
BRANCH  15  24
ATOM     24  O   LIG    1       -2.125   2.612  -0.877  0.00  0.00    -0.396 OA
ATOM     25  C   LIG    1       -3.077   3.662  -0.863  0.00  0.00    +0.313 C 
ENDBRANCH  15  24
ENDBRANCH  12  14
ENDBRANCH   7  10
BRANCH   4  26
ATOM     26  C   LIG    1        3.905  -2.593  -2.028  0.00  0.00    +0.351 C 
ATOM     27  OXT LIG    1        3.511  -3.246  -2.993  0.00  0.00    -0.244 OA
BRANCH  26  28
ATOM     28  O   LIG    1        5.025  -1.812  -2.050  0.00  0.00    -0.476 OA
ATOM     29  H   LIG    1        5.456  -1.820  -2.907  0.00  0.00    +0.295 HD
ENDBRANCH  26  28
ENDBRANCH   4  26
BRANCH   3  30
ATOM     30  C   LIG    1        3.682  -5.101  -0.396  0.00  0.00    +0.193 C 
BRANCH  30  31
ATOM     31  O   LIG    1        2.615  -6.006  -0.649  0.00  0.00    -0.379 OA
ATOM     32  C   LIG    1        3.048  -7.314  -0.990  0.00  0.00    +0.194 C 
ENDBRANCH  30  31
ENDBRANCH   3  30
TORSDOF 9
