REMARK  Name = DB01282
REMARK                            x       y       z     vdW  Elec       q    Type
REMARK                         _______ _______ _______ _____ _____    ______ ____
ROOT
ATOM      1  C   LIG    1        0.935   0.773  -0.018  0.00  0.00    +0.169 C 
ATOM      2  C   LIG    1        0.295   2.181  -0.135  0.00  0.00    +0.100 C 
ATOM      3  S   LIG    1       -0.480   2.747   1.415  0.00  0.00    -0.158 S 
ATOM      4  C   LIG    1        0.729   3.960   2.014  0.00  0.00    +0.069 C 
ATOM      5  C   LIG    1        2.078   3.369   2.468  0.00  0.00    +0.020 C 
ATOM      6  C   LIG    1        3.058   4.409   3.063  0.00  0.00    +0.096 C 
ATOM      7  C   LIG    1        3.592   5.481   2.095  0.00  0.00    +0.214 C 
ATOM      8  O   LIG    1        4.009   6.545   2.551  0.00  0.00    -0.276 OA
ATOM      9  N   LIG    1        3.616   5.186   0.783  0.00  0.00    -0.304 N 
ATOM     10  H   LIG    1        3.290   4.279   0.481  0.00  0.00    +0.149 HD
ATOM     11  C   LIG    1        4.102   6.067  -0.287  0.00  0.00    +0.163 C 
ATOM     12  C   LIG    1        3.098   6.144  -1.458  0.00  0.00    +0.234 C 
ATOM     13  N   LIG    1        1.899   5.548  -1.291  0.00  0.00    -0.302 N 
ATOM     14  H   LIG    1        1.724   5.114  -0.396  0.00  0.00    +0.150 HD
ATOM     15  C   LIG    1        0.812   5.359  -2.264  0.00  0.00    +0.162 C 
ATOM     16  C   LIG    1        1.158   4.277  -3.309  0.00  0.00    +0.234 C 
ATOM     17  O   LIG    1        0.465   3.261  -3.363  0.00  0.00    -0.274 OA
ATOM     18  N   LIG    1        2.258   4.477  -4.056  0.00  0.00    -0.302 N 
ATOM     19  H   LIG    1        2.764   5.345  -3.948  0.00  0.00    +0.150 HD
ATOM     20  C   LIG    1        2.943   3.442  -4.828  0.00  0.00    +0.159 C 
ATOM     21  C   LIG    1        3.683   2.548  -3.818  0.00  0.00    +0.234 C 
ATOM     22  O   LIG    1        4.558   3.044  -3.107  0.00  0.00    -0.274 OA
ATOM     23  N   LIG    1        3.269   1.271  -3.750  0.00  0.00    -0.302 N 
ATOM     24  H   LIG    1        2.557   0.965  -4.398  0.00  0.00    +0.150 HD
ATOM     25  C   LIG    1        3.623   0.292  -2.716  0.00  0.00    +0.168 C 
ATOM     26  C   LIG    1        3.031   0.724  -1.359  0.00  0.00    +0.234 C 
ATOM     27  O   LIG    1        3.729   1.305  -0.527  0.00  0.00    -0.274 OA
ATOM     28  O   LIG    1        3.435   6.739  -2.481  0.00  0.00    -0.274 OA
ATOM     29  N   LIG    1        1.728   0.447  -1.198  0.00  0.00    -0.302 N 
ATOM     30  H   LIG    1        1.229  -0.022  -1.941  0.00  0.00    +0.150 HD
ENDROOT
BRANCH   1  33
ATOM     31  C   LIG    1       -0.528  -2.666   1.023  0.00  0.00    +0.162 C 
ATOM     32  N   LIG    1        0.355  -1.512   0.775  0.00  0.00    -0.288 N 
ATOM     33  C   LIG    1       -0.086  -0.366   0.197  0.00  0.00    +0.237 C 
ATOM     34  O   LIG    1       -1.240  -0.207  -0.204  0.00  0.00    -0.274 OA
ATOM     35  C   LIG    1        1.741  -1.811   1.157  0.00  0.00    +0.109 C 
ATOM     36  C   LIG    1        1.694  -3.173   1.841  0.00  0.00    +0.021 C 
ATOM     37  C   LIG    1        0.462  -3.826   1.234  0.00  0.00    +0.033 C 
BRANCH  31  40
ATOM     38  N   LIG    1       -2.665  -1.889   1.924  0.00  0.00    -0.302 N 
ATOM     39  H   LIG    1       -2.882  -1.670   0.962  0.00  0.00    +0.150 HD
ATOM     40  C   LIG    1       -1.474  -2.433   2.220  0.00  0.00    +0.234 C 
ATOM     41  O   LIG    1       -1.113  -2.727   3.360  0.00  0.00    -0.274 OA
BRANCH  38  42
ATOM     42  C   LIG    1       -3.712  -1.582   2.899  0.00  0.00    +0.159 C 
BRANCH  42  45
ATOM     43  N   LIG    1       -5.089  -2.915   4.410  0.00  0.00    -0.305 N 
ATOM     44  H   LIG    1       -4.856  -2.207   5.091  0.00  0.00    +0.149 HD
ATOM     45  C   LIG    1       -4.588  -2.817   3.168  0.00  0.00    +0.234 C 
ATOM     46  O   LIG    1       -4.811  -3.622   2.262  0.00  0.00    -0.274 OA
BRANCH  43  47
ATOM     47  C   LIG    1       -5.925  -4.023   4.876  0.00  0.00    +0.199 C 
BRANCH  47  51
ATOM     48  N   LIG    1       -5.668  -6.460   4.914  0.00  0.00    -0.328 N 
ATOM     49  H   LIG    1       -6.610  -6.501   4.554  0.00  0.00    +0.145 HD
ATOM     50  H   LIG    1       -5.165  -7.317   5.092  0.00  0.00    +0.145 HD
ATOM     51  C   LIG    1       -5.082  -5.283   5.148  0.00  0.00    +0.228 C 
ATOM     52  O   LIG    1       -3.943  -5.210   5.607  0.00  0.00    -0.274 OA
ENDBRANCH  47  51
ENDBRANCH  43  47
ENDBRANCH  42  45
BRANCH  42  53
ATOM     53  C   LIG    1       -4.569  -0.412   2.365  0.00  0.00    +0.034 C 
BRANCH  53  54
ATOM     54  C   LIG    1       -3.814   0.933   2.241  0.00  0.00    -0.015 C 
ATOM     55  C   LIG    1       -4.669   1.987   1.506  0.00  0.00    +0.007 C 
ATOM     56  C   LIG    1       -3.295   1.446   3.601  0.00  0.00    +0.007 C 
ENDBRANCH  53  54
ENDBRANCH  42  53
ENDBRANCH  38  42
ENDBRANCH  31  40
ENDBRANCH   1  33
BRANCH  15  57
ATOM     57  C   LIG    1        0.312   6.665  -2.964  0.00  0.00    +0.015 C 
ATOM     58  C   LIG    1       -0.818   6.428  -3.992  0.00  0.00    +0.010 C 
BRANCH  57  59
ATOM     59  C   LIG    1       -0.103   7.754  -1.945  0.00  0.00    +0.002 C 
ATOM     60  C   LIG    1       -1.179   7.332  -0.931  0.00  0.00    +0.004 C 
ENDBRANCH  57  59
ENDBRANCH  15  57
BRANCH  11  61
ATOM     61  C   LIG    1        5.513   5.654  -0.790  0.00  0.00    +0.067 C 
BRANCH  61  62
ATOM     62  C   LIG    1        6.556   5.626   0.323  0.00  0.00    -0.045 A 
ATOM     63  C   LIG    1        6.969   4.407   0.864  0.00  0.00    +0.007 A 
ATOM     64  C   LIG    1        7.914   4.387   1.886  0.00  0.00    +0.046 A 
ATOM     65  C   LIG    1        8.458   5.576   2.374  0.00  0.00    +0.120 A 
ATOM     66  C   LIG    1        8.041   6.798   1.823  0.00  0.00    +0.046 A 
ATOM     67  C   LIG    1        7.094   6.821   0.802  0.00  0.00    +0.007 A 
BRANCH  65  68
ATOM     68  O   LIG    1        9.390   5.456   3.388  0.00  0.00    -0.495 OA
ATOM     69  C   LIG    1        9.986   6.632   3.925  0.00  0.00    +0.277 C 
ENDBRANCH  65  68
ENDBRANCH  61  62
ENDBRANCH  11  61
BRANCH  20  70
ATOM     70  C   LIG    1        3.887   4.131  -5.845  0.00  0.00    +0.041 C 
BRANCH  70  71
ATOM     71  C   LIG    1        4.474   3.228  -6.955  0.00  0.00    +0.098 C 
BRANCH  71  72
ATOM     72  C   LIG    1        5.595   2.294  -6.492  0.00  0.00    +0.211 C 
ATOM     73  O   LIG    1        5.379   1.095  -6.325  0.00  0.00    -0.276 OA
ATOM     74  N   LIG    1        6.795   2.840  -6.281  0.00  0.00    -0.329 N 
ATOM     75  H   LIG    1        6.940   3.829  -6.422  0.00  0.00    +0.145 HD
ATOM     76  H   LIG    1        7.566   2.266  -5.971  0.00  0.00    +0.145 HD
ENDBRANCH  71  72
ENDBRANCH  70  71
ENDBRANCH  20  70
BRANCH  25  77
ATOM     77  C   LIG    1        5.154   0.024  -2.672  0.00  0.00    +0.127 C 
BRANCH  77  78
ATOM     78  C   LIG    1        5.559  -1.241  -1.902  0.00  0.00    +0.213 C 
ATOM     79  N   LIG    1        6.849  -1.354  -1.578  0.00  0.00    -0.329 N 
ATOM     80  H   LIG    1        7.505  -0.630  -1.833  0.00  0.00    +0.145 HD
ATOM     81  H   LIG    1        7.176  -2.164  -1.072  0.00  0.00    +0.145 HD
ATOM     82  O   LIG    1        4.735  -2.106  -1.607  0.00  0.00    -0.276 OA
ENDBRANCH  77  78
ENDBRANCH  25  77
TORSDOF 18
