REMARK  Name = DB01033
REMARK                            x       y       z     vdW  Elec       q    Type
REMARK                         _______ _______ _______ _____ _____    ______ ____
ROOT
ATOM      1  S   LIG    1       -2.810   3.736   0.046  0.00  0.00    -0.028 S 
ATOM      2  C   LIG    1       -1.297   3.049   0.029  0.00  0.00    +0.136 A 
ATOM      3  C   LIG    1       -0.041   3.787   0.021  0.00  0.00    +0.116 A 
ATOM      4  C   LIG    1        1.207   3.143   0.007  0.00  0.00    +0.160 A 
ATOM      5  N   LIG    1        2.219   3.993   0.002  0.00  0.00    -0.218 NA
ATOM      6  C   LIG    1        1.644   5.179   0.014  0.00  0.00    +0.199 A 
ATOM      7  N   LIG    1        1.231   1.751  -0.001  0.00  0.00    -0.329 N 
ATOM      8  H   LIG    1        2.099   1.235  -0.011  0.00  0.00    +0.168 HD
ATOM      9  C   LIG    1        0.001   1.078   0.007  0.00  0.00    +0.199 A 
ATOM     10  N   LIG    1        0.270   5.121   0.026  0.00  0.00    -0.341 N 
ATOM     11  H   LIG    1       -0.376   5.897   0.035  0.00  0.00    +0.167 HD
ATOM     12  N   LIG    1       -1.155   1.657   0.020  0.00  0.00    -0.228 NA
ENDROOT
TORSDOF 0
