REMARK  Name = DB01619
REMARK                            x       y       z     vdW  Elec       q    Type
REMARK                         _______ _______ _______ _____ _____    ______ ____
ROOT
ATOM      1  N   LIG    1       -0.058  -0.015   0.036  0.00  0.00    -0.301 NA
ATOM      2  C   LIG    1        1.392  -0.040  -0.113  0.00  0.00    +0.105 C 
ATOM      3  C   LIG    1       -0.474  -0.746   1.241  0.00  0.00    +0.089 C 
ATOM      4  C   LIG    1       -2.023  -0.847   1.369  0.00  0.00    +0.051 C 
ATOM      5  C   LIG    1       -2.713   0.454   0.966  0.00  0.00    -0.037 C 
ATOM      6  C   LIG    1       -4.111   0.862   1.142  0.00  0.00    -0.018 A 
ATOM      7  C   LIG    1       -5.200   0.189   1.697  0.00  0.00    +0.008 A 
ATOM      8  C   LIG    1       -6.449   0.814   1.734  0.00  0.00    +0.001 A 
ATOM      9  C   LIG    1       -6.603   2.104   1.221  0.00  0.00    +0.000 A 
ATOM     10  C   LIG    1       -5.509   2.777   0.672  0.00  0.00    +0.005 A 
ATOM     11  C   LIG    1       -4.261   2.152   0.636  0.00  0.00    -0.028 A 
ATOM     12  C   LIG    1       -2.931   2.649   0.120  0.00  0.00    +0.077 C 
ATOM     13  C   LIG    1       -2.047   1.439   0.334  0.00  0.00    -0.040 C 
ATOM     14  C   LIG    1       -0.547   1.369   0.090  0.00  0.00    +0.116 C 
ENDROOT
BRANCH  12  15
ATOM     15  C   LIG    1       -2.956   3.150  -1.326  0.00  0.00    -0.036 A 
ATOM     16  C   LIG    1       -2.550   4.456  -1.618  0.00  0.00    +0.004 A 
ATOM     17  C   LIG    1       -2.576   4.918  -2.931  0.00  0.00    +0.000 A 
ATOM     18  C   LIG    1       -3.008   4.075  -3.952  0.00  0.00    +0.000 A 
ATOM     19  C   LIG    1       -3.414   2.772  -3.672  0.00  0.00    +0.000 A 
ATOM     20  C   LIG    1       -3.388   2.309  -2.359  0.00  0.00    +0.004 A 
ENDBRANCH  12  15
TORSDOF 1
