REMARK  Name = DB01036
REMARK                            x       y       z     vdW  Elec       q    Type
REMARK                         _______ _______ _______ _____ _____    ______ ____
ROOT
ATOM      1  C   LIG    1       -2.036   1.495   0.220  0.00  0.00    +0.054 C 
ENDROOT
BRANCH   1   4
ATOM      2  C   LIG    1       -2.646   0.661   3.934  0.00  0.00    +0.046 A 
ATOM      3  C   LIG    1       -2.188   1.314   2.788  0.00  0.00    +0.121 A 
ATOM      4  C   LIG    1       -2.528   0.825   1.513  0.00  0.00    +0.002 A 
ATOM      5  C   LIG    1       -3.324  -0.325   1.420  0.00  0.00    +0.011 A 
ATOM      6  C   LIG    1       -3.782  -0.977   2.567  0.00  0.00    -0.050 A 
ATOM      7  C   LIG    1       -4.639  -2.224   2.455  0.00  0.00    +0.044 C 
ATOM      8  C   LIG    1       -3.439  -0.479   3.825  0.00  0.00    +0.007 A 
BRANCH   3   9
ATOM      9  O   LIG    1       -1.404   2.428   2.947  0.00  0.00    -0.506 OA
ATOM     10  H   LIG    1       -1.259   2.654   3.868  0.00  0.00    +0.292 HD
ENDBRANCH   3   9
ENDBRANCH   1   4
BRANCH   1  11
ATOM     11  C   LIG    1       -2.570   2.928   0.056  0.00  0.00    -0.040 A 
ATOM     12  C   LIG    1       -1.731   4.050   0.124  0.00  0.00    +0.004 A 
ATOM     13  C   LIG    1       -2.257   5.330  -0.034  0.00  0.00    +0.000 A 
ATOM     14  C   LIG    1       -3.620   5.494  -0.261  0.00  0.00    +0.000 A 
ATOM     15  C   LIG    1       -4.465   4.389  -0.330  0.00  0.00    +0.000 A 
ATOM     16  C   LIG    1       -3.939   3.110  -0.172  0.00  0.00    +0.004 A 
ENDBRANCH   1  11
BRANCH   1  17
ATOM     17  C   LIG    1       -0.506   1.327   0.011  0.00  0.00    +0.028 C 
BRANCH  17  18
ATOM     18  C   LIG    1       -0.050  -0.142  -0.122  0.00  0.00    +0.086 C 
BRANCH  18  19
ATOM     19  N   LIG    1        1.423  -0.237  -0.113  0.00  0.00    -0.297 NA
BRANCH  19  20
ATOM     20  C   LIG    1        1.952  -0.843   1.136  0.00  0.00    +0.051 C 
ATOM     21  C   LIG    1        3.494  -0.967   1.146  0.00  0.00    +0.024 C 
ATOM     22  C   LIG    1        1.517  -0.032   2.382  0.00  0.00    +0.024 C 
ENDBRANCH  19  20
BRANCH  19  23
ATOM     23  C   LIG    1        1.987  -0.739  -1.387  0.00  0.00    +0.051 C 
ATOM     24  C   LIG    1        1.665  -2.227  -1.656  0.00  0.00    +0.024 C 
ATOM     25  C   LIG    1        1.609   0.163  -2.584  0.00  0.00    +0.024 C 
ENDBRANCH  19  23
ENDBRANCH  18  19
ENDBRANCH  17  18
ENDBRANCH   1  17
TORSDOF 8
