REMARK  Name = DB01942
REMARK                            x       y       z     vdW  Elec       q    Type
REMARK                         _______ _______ _______ _____ _____    ______ ____
ROOT
ATOM      1  C   LIG    1       -0.158   0.601  -0.232  0.00  0.00    +0.443 C 
ATOM      2  O   LIG    1        0.532  -0.018   0.606  0.00  0.00    -0.255 OA
ENDROOT
BRANCH   1   3
ATOM      3  O   LIG    1       -0.087   0.533  -1.478  0.00  0.00    -0.483 OA
ATOM      4  H   LIG    1        0.541  -0.034  -1.881  0.00  0.00    +0.295 HD
ENDBRANCH   1   3
TORSDOF 1
