REMARK  Name = DB01126
REMARK                            x       y       z     vdW  Elec       q    Type
REMARK                         _______ _______ _______ _____ _____    ______ ____
ROOT
ATOM      1  C   LIG    1       -5.036  -1.935   6.254  0.00  0.00    +0.063 C 
ATOM      2  C   LIG    1       -3.889  -1.719   5.577  0.00  0.00    -0.013 C 
ATOM      3  C   LIG    1       -3.616  -2.410   4.235  0.00  0.00    +0.008 C 
ATOM      4  C   LIG    1       -2.749  -1.550   3.247  0.00  0.00    +0.004 C 
ATOM      5  C   LIG    1       -2.675  -2.208   1.819  0.00  0.00    -0.003 C 
ATOM      6  C   LIG    1       -1.825  -1.304   0.884  0.00  0.00    -0.001 C 
ATOM      7  C   LIG    1       -1.681  -1.643  -0.603  0.00  0.00    +0.005 C 
ATOM      8  C   LIG    1       -0.434  -0.855  -1.049  0.00  0.00    +0.013 C 
ATOM      9  C   LIG    1        0.155  -0.194   0.236  0.00  0.00    +0.081 C 
ATOM     10  C   LIG    1       -0.382  -1.084   1.404  0.00  0.00    -0.018 C 
ATOM     11  C   LIG    1        0.413  -2.426   1.554  0.00  0.00    +0.012 C 
ATOM     12  C   LIG    1       -0.495  -0.355   2.769  0.00  0.00    +0.008 C 
ATOM     13  C   LIG    1       -4.089  -2.467   1.243  0.00  0.00    +0.006 C 
ATOM     14  C   LIG    1       -4.990  -3.279   2.195  0.00  0.00    +0.023 C 
ATOM     15  C   LIG    1       -1.327  -1.178   3.785  0.00  0.00    +0.005 C 
ATOM     16  C   LIG    1       -2.935  -3.772   4.572  0.00  0.00    +0.017 C 
ATOM     17  C   LIG    1       -5.045  -2.603   3.580  0.00  0.00    +0.083 C 
ATOM     18  N   LIG    1       -5.983  -3.248   4.528  0.00  0.00    -0.308 N 
ATOM     19  H   LIG    1       -6.689  -3.874   4.170  0.00  0.00    +0.149 HD
ATOM     20  C   LIG    1       -6.044  -2.888   5.835  0.00  0.00    +0.237 C 
ATOM     21  O   LIG    1       -6.841  -3.412   6.610  0.00  0.00    -0.271 OA
ENDROOT
BRANCH   9  22
ATOM     22  C   LIG    1        1.700  -0.084   0.137  0.00  0.00    +0.221 C 
ATOM     23  N   LIG    1        2.221   1.060   0.631  0.00  0.00    -0.285 N 
ATOM     24  H   LIG    1        1.579   1.680   1.104  0.00  0.00    +0.155 HD
ATOM     25  O   LIG    1        2.372  -1.004  -0.334  0.00  0.00    -0.275 OA
BRANCH  23  26
ATOM     26  C   LIG    1        3.572   1.464   0.681  0.00  0.00    +0.046 A 
ATOM     27  C   LIG    1        3.984   2.324   1.722  0.00  0.00    +0.076 A 
ATOM     28  C   LIG    1        5.323   2.738   1.769  0.00  0.00    +0.015 A 
ATOM     29  C   LIG    1        6.239   2.318   0.807  0.00  0.00    +0.013 A 
ATOM     30  C   LIG    1        5.837   1.479  -0.235  0.00  0.00    +0.057 A 
ATOM     31  C   LIG    1        4.504   1.060  -0.291  0.00  0.00    +0.036 A 
BRANCH  27  32
ATOM     32  C   LIG    1        3.007   2.808   2.805  0.00  0.00    +0.419 C 
ATOM     33  F   LIG    1        2.518   1.762   3.471  0.00  0.00    -0.166 F 
ATOM     34  F   LIG    1        1.994   3.469   2.242  0.00  0.00    -0.166 F 
ATOM     35  F   LIG    1        3.580   3.624   3.692  0.00  0.00    -0.166 F 
ENDBRANCH  27  32
BRANCH  30  36
ATOM     36  C   LIG    1        6.827   1.007  -1.298  0.00  0.00    +0.417 C 
ATOM     37  F   LIG    1        6.574   1.638  -2.444  0.00  0.00    -0.166 F 
ATOM     38  F   LIG    1        6.700  -0.306  -1.498  0.00  0.00    -0.166 F 
ATOM     39  F   LIG    1        8.094   1.249  -0.954  0.00  0.00    -0.166 F 
ENDBRANCH  30  36
ENDBRANCH  23  26
ENDBRANCH   9  22
TORSDOF 4
