REMARK  Name = DB01057
REMARK                            x       y       z     vdW  Elec       q    Type
REMARK                         _______ _______ _______ _____ _____    ______ ____
ROOT
ATOM      1  P   LIG    1        2.769   0.029   0.154  0.00  0.00    +0.391 P 
ATOM      2  O   LIG    1        3.377   0.668   1.353  0.00  0.00    -0.246 OA
ENDROOT
BRANCH   1   3
ATOM      3  S   LIG    1        0.710  -0.491   0.401  0.00  0.00    -0.043 S 
BRANCH   3   4
ATOM      4  C   LIG    1        0.114   1.063   1.126  0.00  0.00    +0.063 C 
BRANCH   4   5
ATOM      5  C   LIG    1       -1.354   1.383   0.767  0.00  0.00    -0.065 C 
BRANCH   5   6
ATOM      6  N   LIG    1       -1.751   2.874   0.978  0.00  0.00    +0.375 N 
ATOM      7  C   LIG    1       -1.025   3.806  -0.025  0.00  0.00    -0.093 C 
ATOM      8  C   LIG    1       -1.452   3.338   2.424  0.00  0.00    -0.093 C 
ATOM      9  C   LIG    1       -3.274   3.005   0.731  0.00  0.00    -0.093 C 
ENDBRANCH   5   6
ENDBRANCH   4   5
ENDBRANCH   3   4
ENDBRANCH   1   3
BRANCH   1  10
ATOM     10  O   LIG    1        2.808   0.965  -1.184  0.00  0.00    -0.300 OA
BRANCH  10  11
ATOM     11  C   LIG    1        2.207   0.558  -2.404  0.00  0.00    +0.167 C 
ATOM     12  C   LIG    1        1.028   1.481  -2.730  0.00  0.00    +0.035 C 
ENDBRANCH  10  11
ENDBRANCH   1  10
BRANCH   1  13
ATOM     13  O   LIG    1        3.497  -1.347  -0.336  0.00  0.00    -0.300 OA
BRANCH  13  14
ATOM     14  C   LIG    1        3.551  -2.487   0.505  0.00  0.00    +0.167 C 
ATOM     15  C   LIG    1        2.725  -3.621  -0.113  0.00  0.00    +0.035 C 
ENDBRANCH  13  14
ENDBRANCH   1  13
TORSDOF 8
