REMARK  Name = DB01364
REMARK                            x       y       z     vdW  Elec       q    Type
REMARK                         _______ _______ _______ _____ _____    ______ ____
ROOT
ATOM      1  C   LIG    1        0.050  -0.207  -0.053  0.00  0.00    +0.161 C 
ENDROOT
BRANCH   1   2
ATOM      2  C   LIG    1       -0.464  -0.809   1.256  0.00  0.00    -0.018 A 
ATOM      3  C   LIG    1       -0.339  -0.100   2.456  0.00  0.00    +0.006 A 
ATOM      4  C   LIG    1       -0.810  -0.651   3.645  0.00  0.00    +0.000 A 
ATOM      5  C   LIG    1       -1.411  -1.908   3.632  0.00  0.00    +0.000 A 
ATOM      6  C   LIG    1       -1.546  -2.618   2.442  0.00  0.00    +0.000 A 
ATOM      7  C   LIG    1       -1.075  -2.068   1.252  0.00  0.00    +0.006 A 
ENDBRANCH   1   2
BRANCH   1   8
ATOM      8  O   LIG    1       -0.714   0.936  -0.398  0.00  0.00    -0.386 OA
ATOM      9  H   LIG    1       -1.619   0.659  -0.557  0.00  0.00    +0.210 HD
ENDBRANCH   1   8
BRANCH   1  10
ATOM     10  C   LIG    1        1.581   0.134  -0.056  0.00  0.00    +0.083 C 
ATOM     11  C   LIG    1        2.012   0.967  -1.285  0.00  0.00    +0.027 C 
BRANCH  10  12
ATOM     12  N   LIG    1        2.442  -1.052  -0.084  0.00  0.00    -0.314 NA
ATOM     13  H   LIG    1        3.354  -0.822  -0.453  0.00  0.00    +0.122 HD
ATOM     14  C   LIG    1        2.562  -1.767   1.178  0.00  0.00    +0.101 C 
ENDBRANCH  10  12
ENDBRANCH   1  10
TORSDOF 4
