REMARK  Name = DB01602
REMARK                            x       y       z     vdW  Elec       q    Type
REMARK                         _______ _______ _______ _____ _____    ______ ____
ROOT
ATOM      1  S   LIG    1       -2.145  -0.277   1.376  0.00  0.00    -0.127 S 
ATOM      2  C   LIG    1       -0.427  -0.807   1.079  0.00  0.00    +0.042 C 
ATOM      3  C   LIG    1       -0.464  -2.164   0.344  0.00  0.00    +0.025 C 
ATOM      4  C   LIG    1        0.262  -0.979   2.458  0.00  0.00    +0.025 C 
ATOM      5  C   LIG    1        0.157   0.373   0.233  0.00  0.00    +0.201 C 
ATOM      6  N   LIG    1       -0.488   1.598   0.725  0.00  0.00    -0.271 N 
ATOM      7  C   LIG    1       -1.119   2.536  -0.101  0.00  0.00    +0.240 C 
ATOM      8  C   LIG    1       -2.303   2.642   0.885  0.00  0.00    +0.190 C 
ATOM      9  O   LIG    1       -0.859   2.988  -1.215  0.00  0.00    -0.273 OA
ATOM     10  C   LIG    1       -1.658   1.450   1.628  0.00  0.00    +0.165 C 
ENDROOT
BRANCH   8  11
ATOM     11  N   LIG    1       -3.617   2.426   0.274  0.00  0.00    -0.300 N 
ATOM     12  H   LIG    1       -3.761   1.521  -0.149  0.00  0.00    +0.150 HD
ATOM     13  C   LIG    1       -4.621   3.319   0.227  0.00  0.00    +0.235 C 
ATOM     14  O   LIG    1       -4.562   4.454   0.705  0.00  0.00    -0.274 OA
BRANCH  13  15
ATOM     15  C   LIG    1       -5.915   2.847  -0.476  0.00  0.00    +0.168 C 
BRANCH  15  16
ATOM     16  C   LIG    1       -7.127   2.951   0.430  0.00  0.00    -0.022 A 
ATOM     17  C   LIG    1       -8.204   3.793   0.118  0.00  0.00    +0.005 A 
ATOM     18  C   LIG    1       -9.312   3.861   0.960  0.00  0.00    +0.000 A 
ATOM     19  C   LIG    1       -9.351   3.086   2.115  0.00  0.00    +0.000 A 
ATOM     20  C   LIG    1       -8.292   2.241   2.437  0.00  0.00    +0.000 A 
ATOM     21  C   LIG    1       -7.185   2.173   1.595  0.00  0.00    +0.005 A 
ENDBRANCH  15  16
BRANCH  15  22
ATOM     22  N   LIG    1       -5.934   3.549  -1.774  0.00  0.00    -0.316 NA
ATOM     23  H   LIG    1       -6.754   3.294  -2.306  0.00  0.00    +0.119 HD
ATOM     24  H   LIG    1       -5.137   3.282  -2.336  0.00  0.00    +0.119 HD
ENDBRANCH  15  22
ENDBRANCH  13  15
ENDBRANCH   8  11
BRANCH   5  25
ATOM     25  C   LIG    1        1.693   0.436   0.105  0.00  0.00    +0.332 C 
ATOM     26  O   LIG    1        2.339   1.410   0.502  0.00  0.00    -0.249 OA
BRANCH  25  27
ATOM     27  O   LIG    1        2.200  -0.678  -0.494  0.00  0.00    -0.424 OA
BRANCH  27  28
ATOM     28  C   LIG    1        3.579  -0.694  -0.775  0.00  0.00    +0.370 C 
ATOM     29  C   LIG    1        4.009  -2.147  -1.000  0.00  0.00    +0.101 C 
BRANCH  28  30
ATOM     30  O   LIG    1        3.991   0.129  -1.853  0.00  0.00    -0.394 OA
BRANCH  30  31
ATOM     31  C   LIG    1        3.391   0.003  -3.078  0.00  0.00    +0.513 C 
ATOM     32  O   LIG    1        2.460  -0.751  -3.378  0.00  0.00    -0.203 OA
BRANCH  31  33
ATOM     33  O   LIG    1        3.997   0.874  -3.908  0.00  0.00    -0.434 OA
BRANCH  33  34
ATOM     34  C   LIG    1        3.581   0.993  -5.262  0.00  0.00    +0.232 C 
ATOM     35  C   LIG    1        4.432   2.055  -5.965  0.00  0.00    +0.048 C 
ENDBRANCH  33  34
ENDBRANCH  31  33
ENDBRANCH  30  31
ENDBRANCH  28  30
ENDBRANCH  27  28
ENDBRANCH  25  27
ENDBRANCH   5  25
TORSDOF 11
