REMARK  Name = DB01577
REMARK                            x       y       z     vdW  Elec       q    Type
REMARK                         _______ _______ _______ _____ _____    ______ ____
ROOT
ATOM      1  C   LIG    1        1.608  -0.794  -1.199  0.00  0.00    +0.053 C 
ENDROOT
BRANCH   1   2
ATOM      2  C   LIG    1        1.275  -0.004  -2.461  0.00  0.00    -0.046 A 
ATOM      3  C   LIG    1        2.004   1.147  -2.780  0.00  0.00    +0.004 A 
ATOM      4  C   LIG    1        1.702   1.865  -3.934  0.00  0.00    +0.000 A 
ATOM      5  C   LIG    1        0.677   1.427  -4.771  0.00  0.00    +0.000 A 
ATOM      6  C   LIG    1       -0.047   0.278  -4.465  0.00  0.00    +0.000 A 
ATOM      7  C   LIG    1        0.254  -0.441  -3.310  0.00  0.00    +0.004 A 
ENDBRANCH   1   2
BRANCH   1   8
ATOM      8  C   LIG    1        1.516  -0.002   0.135  0.00  0.00    +0.055 C 
ATOM      9  C   LIG    1        2.203  -0.787   1.269  0.00  0.00    +0.024 C 
BRANCH   8  10
ATOM     10  N   LIG    1        0.141   0.215   0.587  0.00  0.00    -0.316 NA
ATOM     11  H   LIG    1        0.118   0.422   1.575  0.00  0.00    +0.122 HD
ATOM     12  C   LIG    1       -0.599   1.216  -0.166  0.00  0.00    +0.101 C 
ENDBRANCH   8  10
ENDBRANCH   1   8
TORSDOF 3
