REMARK  Name = DB01582
REMARK                            x       y       z     vdW  Elec       q    Type
REMARK                         _______ _______ _______ _____ _____    ______ ____
ROOT
ATOM      1  S   LIG    1       -0.082  -0.005   0.000  0.00  0.00    +0.075 S 
ATOM      2  O   LIG    1       -0.539  -0.573   1.274  0.00  0.00    -0.150 OA
ATOM      3  O   LIG    1       -0.539  -0.573  -1.274  0.00  0.00    -0.150 OA
ENDROOT
BRANCH   1   4
ATOM      4  C   LIG    1       -0.448   1.746  -0.000  0.00  0.00    +0.109 A 
ATOM      5  C   LIG    1       -0.580   2.427  -1.212  0.00  0.00    +0.030 A 
ATOM      6  C   LIG    1       -0.854   3.793  -1.211  0.00  0.00    +0.024 A 
ATOM      7  C   LIG    1       -0.991   4.471   0.000  0.00  0.00    +0.025 A 
ATOM      8  C   LIG    1       -0.854   3.793   1.211  0.00  0.00    +0.024 A 
ATOM      9  C   LIG    1       -0.580   2.427   1.212  0.00  0.00    +0.030 A 
BRANCH   7  10
ATOM     10  N   LIG    1       -1.266   5.838   0.000  0.00  0.00    -0.358 N 
ATOM     11  H   LIG    1       -1.363   6.325   0.879  0.00  0.00    +0.142 HD
ATOM     12  H   LIG    1       -1.363   6.325  -0.879  0.00  0.00    +0.142 HD
ENDBRANCH   7  10
ENDBRANCH   1   4
BRANCH   1  13
ATOM     13  N   LIG    1        1.690  -0.101   0.000  0.00  0.00    -0.184 N 
ATOM     14  H   LIG    1        2.218   0.759   0.000  0.00  0.00    +0.177 HD
BRANCH  13  15
ATOM     15  C   LIG    1        2.397  -1.308   0.000  0.00  0.00    +0.235 A 
ATOM     16  N   LIG    1        1.710  -2.484   0.000  0.00  0.00    -0.219 NA
ATOM     17  C   LIG    1        2.447  -3.626   0.000  0.00  0.00    +0.044 A 
ATOM     18  C   LIG    1        1.661  -4.923   0.000  0.00  0.00    +0.066 C 
ATOM     19  C   LIG    1        3.845  -3.614   0.000  0.00  0.00    +0.046 A 
ATOM     20  C   LIG    1        4.461  -2.358   0.000  0.00  0.00    +0.044 A 
ATOM     21  C   LIG    1        5.971  -2.212  -0.000  0.00  0.00    +0.066 C 
ATOM     22  N   LIG    1        3.751  -1.198   0.000  0.00  0.00    -0.219 NA
ENDBRANCH  13  15
ENDBRANCH   1  13
TORSDOF 4
