REMARK  Name = DB01256
REMARK                            x       y       z     vdW  Elec       q    Type
REMARK                         _______ _______ _______ _____ _____    ______ ____
ROOT
ATOM      1  C   LIG    1       -3.049  -0.128  -1.423  0.00  0.00    -0.014 C 
ATOM      2  C   LIG    1       -2.648   0.804  -2.625  0.00  0.00    +0.008 C 
ATOM      3  C   LIG    1       -1.171   1.235  -2.618  0.00  0.00    +0.004 C 
ATOM      4  C   LIG    1       -0.232   0.006  -2.556  0.00  0.00    -0.004 C 
ATOM      5  C   LIG    1        1.227   0.427  -2.856  0.00  0.00    +0.008 C 
ATOM      6  C   LIG    1       -0.470  -0.840  -1.239  0.00  0.00    +0.018 C 
ATOM      7  C   LIG    1        0.482  -2.082  -1.279  0.00  0.00    +0.016 C 
ATOM      8  C   LIG    1       -0.168   0.023   0.054  0.00  0.00    +0.184 C 
ATOM      9  C   LIG    1       -0.673  -0.619   1.388  0.00  0.00    +0.058 C 
ATOM     10  C   LIG    1       -1.931  -0.016   2.107  0.00  0.00    +0.015 C 
ATOM     11  C   LIG    1       -2.115  -0.928   3.366  0.00  0.00    +0.018 C 
ATOM     12  C   LIG    1       -3.256  -0.099   1.242  0.00  0.00    +0.128 C 
ATOM     13  C   LIG    1       -4.321  -0.916  -1.798  0.00  0.00    +0.015 C 
ATOM     14  C   LIG    1       -3.914  -2.088  -2.681  0.00  0.00    +0.075 C 
ATOM     15  C   LIG    1       -2.447  -2.340  -2.346  0.00  0.00    +0.138 C 
ATOM     16  O   LIG    1       -1.766  -3.230  -2.851  0.00  0.00    -0.297 OA
ATOM     17  C   LIG    1       -3.304   0.726  -0.113  0.00  0.00    +0.022 C 
ATOM     18  C   LIG    1       -4.555   1.649  -0.239  0.00  0.00    +0.011 C 
ATOM     19  C   LIG    1       -1.994  -1.289  -1.295  0.00  0.00    +0.071 C 
ENDROOT
BRANCH  10  20
ATOM     20  C   LIG    1       -1.649   1.442   2.513  0.00  0.00    -0.025 C 
ATOM     21  C   LIG    1       -1.589   1.956   3.755  0.00  0.00    +0.004 C 
ENDBRANCH  10  20
BRANCH  12  22
ATOM     22  O   LIG    1       -4.368   0.216   2.074  0.00  0.00    -0.391 OA
ATOM     23  H   LIG    1       -4.281   1.127   2.363  0.00  0.00    +0.210 HD
ENDBRANCH  12  22
BRANCH   8  24
ATOM     24  O   LIG    1        1.243   0.262   0.157  0.00  0.00    -0.460 OA
BRANCH  24  25
ATOM     25  C   LIG    1        1.777   1.359   0.759  0.00  0.00    +0.317 C 
ATOM     26  O   LIG    1        1.131   2.274   1.268  0.00  0.00    -0.250 OA
BRANCH  25  27
ATOM     27  C   LIG    1        3.315   1.398   0.811  0.00  0.00    +0.189 C 
BRANCH  27  28
ATOM     28  S   LIG    1        4.099   0.128  -0.246  0.00  0.00    -0.146 S 
BRANCH  28  29
ATOM     29  C   LIG    1        5.848   0.313   0.219  0.00  0.00    +0.050 C 
ATOM     30  C   LIG    1        6.727  -0.795  -0.422  0.00  0.00    +0.033 C 
ATOM     31  C   LIG    1        8.241  -0.445  -0.412  0.00  0.00    +0.058 C 
ATOM     32  C   LIG    1        8.786  -0.214   1.013  0.00  0.00    +0.020 C 
ATOM     33  C   LIG    1        8.596   1.292   1.244  0.00  0.00    +0.020 C 
ATOM     34  C   LIG    1        7.954   1.793  -0.067  0.00  0.00    +0.058 C 
ATOM     35  N   LIG    1        8.386   0.843  -1.097  0.00  0.00    -0.299 NA
ATOM     36  C   LIG    1        9.748   1.089  -1.571  0.00  0.00    +0.105 C 
ATOM     37  C   LIG    1        6.401   1.745  -0.027  0.00  0.00    +0.033 C 
ENDBRANCH  28  29
ENDBRANCH  27  28
ENDBRANCH  25  27
ENDBRANCH  24  25
ENDBRANCH   8  24
TORSDOF 7
