REMARK  Name = DB01367
REMARK                            x       y       z     vdW  Elec       q    Type
REMARK                         _______ _______ _______ _____ _____    ______ ____
ROOT
ATOM      1  C   LIG    1       -0.417   1.423   0.094  0.00  0.00    +0.085 C 
ATOM      2  C   LIG    1       -1.936   1.471   0.168  0.00  0.00    -0.027 A 
ATOM      3  C   LIG    1       -2.890   0.686  -0.489  0.00  0.00    +0.005 A 
ATOM      4  C   LIG    1       -4.249   0.952  -0.319  0.00  0.00    +0.000 A 
ATOM      5  C   LIG    1       -4.659   2.002   0.503  0.00  0.00    +0.000 A 
ATOM      6  C   LIG    1       -3.712   2.778   1.172  0.00  0.00    +0.004 A 
ATOM      7  C   LIG    1       -2.353   2.491   1.030  0.00  0.00    -0.043 A 
ATOM      8  C   LIG    1       -1.162   3.189   1.644  0.00  0.00    +0.037 C 
ATOM      9  C   LIG    1        0.009   2.265   1.307  0.00  0.00    +0.028 C 
ENDROOT
BRANCH   1  10
ATOM     10  N   LIG    1        0.048   0.038   0.108  0.00  0.00    -0.299 NA
ATOM     11  H   LIG    1       -0.424  -0.469  -0.627  0.00  0.00    +0.123 HD
BRANCH  10  12
ATOM     12  C   LIG    1        1.483  -0.043  -0.128  0.00  0.00    +0.171 C 
BRANCH  12  13
ATOM     13  C   LIG    1        1.882  -1.458  -0.088  0.00  0.00    -0.090 C 
ATOM     14  C   LIG    1        2.229  -2.629  -0.063  0.00  0.00    +0.005 C 
ENDBRANCH  12  13
ENDBRANCH  10  12
ENDBRANCH   1  10
TORSDOF 3
