REMARK  Name = DB01426
REMARK                            x       y       z     vdW  Elec       q    Type
REMARK                         _______ _______ _______ _____ _____    ______ ____
ROOT
ATOM      1  C   LIG    1       -2.666   1.612   7.764  0.00  0.00    +0.000 A 
ATOM      2  C   LIG    1       -1.845   1.156   6.732  0.00  0.00    +0.006 A 
ATOM      3  C   LIG    1       -2.227   1.342   5.400  0.00  0.00    -0.016 A 
ATOM      4  C   LIG    1       -1.506   1.005   4.110  0.00  0.00    +0.045 C 
ATOM      5  C   LIG    1       -0.686  -0.313   3.922  0.00  0.00    +0.132 C 
ATOM      6  C   LIG    1        0.086  -0.063   2.576  0.00  0.00    +0.039 C 
ATOM      7  C   LIG    1       -0.506  -0.757   1.291  0.00  0.00    +0.004 C 
ATOM      8  C   LIG    1        0.024  -0.006   0.023  0.00  0.00    +0.036 C 
ATOM      9  C   LIG    1       -0.481   1.490   0.056  0.00  0.00    +0.189 C 
ATOM     10  N   LIG    1       -1.061   1.822   1.377  0.00  0.00    -0.269 NA
ATOM     11  C   LIG    1       -2.299   1.013   1.647  0.00  0.00    +0.081 C 
ATOM     12  C   LIG    1       -2.033  -0.498   1.302  0.00  0.00    +0.025 C 
ATOM     13  C   LIG    1       -0.008   1.496   2.381  0.00  0.00    +0.066 C 
ATOM     14  C   LIG    1       -0.446   2.043   3.730  0.00  0.00    +0.035 C 
ATOM     15  C   LIG    1       -2.722   1.071   3.166  0.00  0.00    +0.103 C 
ATOM     16  N   LIG    1       -3.525   2.156   3.718  0.00  0.00    -0.327 N 
ATOM     17  C   LIG    1       -4.790   2.276   3.000  0.00  0.00    +0.129 C 
ATOM     18  C   LIG    1       -3.438   1.998   5.110  0.00  0.00    +0.034 A 
ATOM     19  C   LIG    1       -4.236   2.487   6.146  0.00  0.00    +0.023 A 
ATOM     20  C   LIG    1       -3.858   2.277   7.472  0.00  0.00    +0.002 A 
ENDROOT
BRANCH   5  21
ATOM     21  O   LIG    1        0.196  -0.609   4.990  0.00  0.00    -0.391 OA
ATOM     22  H   LIG    1       -0.325  -0.908   5.739  0.00  0.00    +0.210 HD
ENDBRANCH   5  21
BRANCH   8  23
ATOM     23  C   LIG    1        1.555  -0.106  -0.198  0.00  0.00    +0.004 C 
ATOM     24  C   LIG    1        2.088  -1.541  -0.331  0.00  0.00    +0.004 C 
ENDBRANCH   8  23
BRANCH   9  25
ATOM     25  O   LIG    1       -1.308   1.796  -1.052  0.00  0.00    -0.377 OA
ATOM     26  H   LIG    1       -0.746   1.981  -1.808  0.00  0.00    +0.211 HD
ENDBRANCH   9  25
TORSDOF 3
