REMARK  Name = DB01217
REMARK                            x       y       z     vdW  Elec       q    Type
REMARK                         _______ _______ _______ _____ _____    ______ ____
ROOT
ATOM      1  C   LIG    1       -0.696  -1.199   0.022  0.00  0.00    +0.010 A 
ATOM      2  C   LIG    1       -2.091  -1.218   0.036  0.00  0.00    -0.025 A 
ATOM      3  C   LIG    1       -2.796  -0.013   0.015  0.00  0.00    +0.010 A 
ATOM      4  C   LIG    1       -2.123   1.217  -0.009  0.00  0.00    -0.027 A 
ATOM      5  C   LIG    1       -0.721   1.207  -0.017  0.00  0.00    +0.010 A 
ATOM      6  C   LIG    1        0.012   0.010  -0.003  0.00  0.00    -0.027 A 
ENDROOT
BRANCH   4   7
ATOM      7  C   LIG    1       -2.880   2.564  -0.019  0.00  0.00    +0.077 C 
ATOM      8  C   LIG    1       -2.516   3.375  -1.285  0.00  0.00    +0.032 C 
ATOM      9  C   LIG    1       -2.529   3.382   1.244  0.00  0.00    +0.032 C 
BRANCH   7  10
ATOM     10  C   LIG    1       -4.346   2.372  -0.028  0.00  0.00    +0.073 C 
ATOM     11  N   LIG    1       -5.495   2.225  -0.034  0.00  0.00    -0.196 NA
ENDBRANCH   7  10
ENDBRANCH   4   7
BRANCH   6  12
ATOM     12  C   LIG    1        1.557  -0.006  -0.012  0.00  0.00    +0.077 C 
ATOM     13  C   LIG    1        2.077  -0.730  -1.275  0.00  0.00    +0.032 C 
ATOM     14  C   LIG    1        2.092  -0.712   1.254  0.00  0.00    +0.032 C 
BRANCH  12  15
ATOM     15  C   LIG    1        2.123   1.361  -0.025  0.00  0.00    +0.073 C 
ATOM     16  N   LIG    1        2.569   2.429  -0.035  0.00  0.00    -0.196 NA
ENDBRANCH  12  15
ENDBRANCH   6  12
BRANCH   2  17
ATOM     17  C   LIG    1       -2.842  -2.546   0.069  0.00  0.00    +0.180 C 
BRANCH  17  18
ATOM     18  N   LIG    1       -3.741  -2.690   1.208  0.00  0.00    -0.248 N 
ATOM     19  C   LIG    1       -5.108  -2.730   1.233  0.00  0.00    +0.219 A 
ATOM     20  N   LIG    1       -5.532  -2.814   2.468  0.00  0.00    -0.223 NA
ATOM     21  C   LIG    1       -4.395  -2.808   3.148  0.00  0.00    +0.245 A 
ATOM     22  N   LIG    1       -3.275  -2.726   2.460  0.00  0.00    -0.158 NA
ENDBRANCH  17  18
ENDBRANCH   2  17
TORSDOF 6
