REMARK  Name = DB01340
REMARK                            x       y       z     vdW  Elec       q    Type
REMARK                         _______ _______ _______ _____ _____    ______ ____
ROOT
ATOM      1  O   LIG    1        1.044   3.112   1.252  0.00  0.00    -0.273 OA
ATOM      2  C   LIG    1        0.319   2.120   1.368  0.00  0.00    +0.247 C 
ATOM      3  C   LIG    1       -0.328   1.494   0.090  0.00  0.00    +0.143 C 
ATOM      4  C   LIG    1       -1.887   1.411   0.034  0.00  0.00    +0.029 C 
ATOM      5  C   LIG    1       -2.645   1.561   1.369  0.00  0.00    +0.019 C 
ATOM      6  C   LIG    1       -2.236   0.546   2.450  0.00  0.00    +0.106 C 
ATOM      7  N   LIG    1       -0.795   0.328   2.633  0.00  0.00    -0.224 NA
ATOM      8  C   LIG    1       -0.453  -0.513   3.788  0.00  0.00    +0.106 C 
ATOM      9  C   LIG    1       -0.612   0.227   5.136  0.00  0.00    +0.019 C 
ATOM     10  C   LIG    1       -0.312   1.736   5.024  0.00  0.00    +0.037 C 
ATOM     11  C   LIG    1        0.622   2.085   3.833  0.00  0.00    +0.202 C 
ATOM     12  N   LIG    1        0.016   1.535   2.574  0.00  0.00    -0.219 N 
ENDROOT
BRANCH  11  13
ATOM     13  C   LIG    1        2.070   1.576   4.068  0.00  0.00    +0.327 C 
ATOM     14  O   LIG    1        2.637   0.762   3.366  0.00  0.00    -0.249 OA
BRANCH  13  15
ATOM     15  O   LIG    1        2.622   2.196   5.152  0.00  0.00    -0.479 OA
ATOM     16  H   LIG    1        3.525   1.912   5.312  0.00  0.00    +0.295 HD
ENDBRANCH  13  15
ENDBRANCH  11  13
BRANCH   3  17
ATOM     17  N   LIG    1        0.256   0.167  -0.176  0.00  0.00    -0.293 NA
ATOM     18  H   LIG    1       -0.261  -0.326  -0.890  0.00  0.00    +0.123 HD
BRANCH  17  19
ATOM     19  C   LIG    1        1.725  -0.000  -0.336  0.00  0.00    +0.164 C 
BRANCH  19  20
ATOM     20  C   LIG    1        2.214   0.739  -1.574  0.00  0.00    +0.324 C 
ATOM     21  O   LIG    1        2.199   0.254  -2.708  0.00  0.00    -0.249 OA
BRANCH  20  22
ATOM     22  O   LIG    1        2.640   1.982  -1.262  0.00  0.00    -0.464 OA
BRANCH  22  23
ATOM     23  C   LIG    1        3.110   2.867  -2.270  0.00  0.00    +0.229 C 
ATOM     24  C   LIG    1        3.431   4.224  -1.635  0.00  0.00    +0.048 C 
ENDBRANCH  22  23
ENDBRANCH  20  22
ENDBRANCH  19  20
BRANCH  19  25
ATOM     25  C   LIG    1        2.105  -1.502  -0.373  0.00  0.00    +0.035 C 
BRANCH  25  26
ATOM     26  C   LIG    1        3.620  -1.780  -0.218  0.00  0.00    +0.037 C 
BRANCH  26  27
ATOM     27  C   LIG    1        4.034  -3.245  -0.066  0.00  0.00    -0.047 A 
ATOM     28  C   LIG    1        3.174  -4.304  -0.389  0.00  0.00    +0.003 A 
ATOM     29  C   LIG    1        3.599  -5.621  -0.241  0.00  0.00    +0.000 A 
ATOM     30  C   LIG    1        4.884  -5.884   0.229  0.00  0.00    +0.000 A 
ATOM     31  C   LIG    1        5.748  -4.841   0.549  0.00  0.00    +0.000 A 
ATOM     32  C   LIG    1        5.323  -3.523   0.400  0.00  0.00    +0.003 A 
ENDBRANCH  26  27
ENDBRANCH  25  26
ENDBRANCH  19  25
ENDBRANCH  17  19
ENDBRANCH   3  17
TORSDOF 10
