REMARK  Name = DB01267
REMARK                            x       y       z     vdW  Elec       q    Type
REMARK                         _______ _______ _______ _____ _____    ______ ____
ROOT
ATOM      1  C   LIG    1       -2.346   3.745  -0.467  0.00  0.00    +0.044 C 
ATOM      2  C   LIG    1       -0.898   3.638  -1.004  0.00  0.00    +0.025 C 
ATOM      3  C   LIG    1       -0.408   2.177  -1.108  0.00  0.00    +0.085 C 
ATOM      4  N   LIG    1       -0.557   1.446   0.160  0.00  0.00    -0.302 NA
ATOM      5  C   LIG    1       -1.947   1.463   0.633  0.00  0.00    +0.085 C 
ATOM      6  C   LIG    1       -2.490   2.896   0.814  0.00  0.00    +0.025 C 
ENDROOT
BRANCH   1  15
ATOM      7  F   LIG    1       -7.686   7.800   0.543  0.00  0.00    -0.205 F 
ATOM      8  C   LIG    1       -6.562   7.079   0.333  0.00  0.00    +0.127 A 
ATOM      9  C   LIG    1       -6.640   5.684   0.285  0.00  0.00    +0.039 A 
ATOM     10  C   LIG    1       -5.505   4.896   0.070  0.00  0.00    +0.016 A 
ATOM     11  C   LIG    1       -4.266   5.537  -0.098  0.00  0.00    +0.045 A 
ATOM     12  C   LIG    1       -4.216   6.939  -0.047  0.00  0.00    +0.170 A 
ATOM     13  O   LIG    1       -2.936   7.361  -0.234  0.00  0.00    -0.354 OA
ATOM     14  N   LIG    1       -2.134   6.226  -0.407  0.00  0.00    -0.082 NA
ATOM     15  C   LIG    1       -2.905   5.157  -0.329  0.00  0.00    +0.094 A 
ATOM     16  C   LIG    1       -5.344   7.740   0.166  0.00  0.00    +0.088 A 
ENDBRANCH   1  15
BRANCH   4  17
ATOM     17  C   LIG    1       -0.072   0.063   0.076  0.00  0.00    +0.089 C 
BRANCH  17  18
ATOM     18  C   LIG    1        1.461  -0.038  -0.082  0.00  0.00    +0.058 C 
BRANCH  18  19
ATOM     19  C   LIG    1        1.981  -1.479  -0.004  0.00  0.00    +0.039 A 
ATOM     20  C   LIG    1        2.495  -2.051   1.122  0.00  0.00    +0.049 A 
ATOM     21  C   LIG    1        2.555  -1.409   2.502  0.00  0.00    +0.066 C 
ATOM     22  N   LIG    1        2.978  -3.327   1.152  0.00  0.00    -0.236 NA
ATOM     23  C   LIG    1        3.006  -4.033   0.073  0.00  0.00    +0.141 A 
ATOM     24  C   LIG    1        3.527  -5.480   0.076  0.00  0.00    +0.180 C 
ATOM     25  C   LIG    1        2.642  -6.415  -0.794  0.00  0.00    +0.041 C 
ATOM     26  C   LIG    1        1.934  -5.734  -1.990  0.00  0.00    +0.025 C 
ATOM     27  C   LIG    1        2.553  -4.367  -2.360  0.00  0.00    +0.127 C 
ATOM     28  N   LIG    1        2.552  -3.511  -1.142  0.00  0.00    -0.294 N 
ATOM     29  C   LIG    1        1.980  -2.259  -1.250  0.00  0.00    +0.258 A 
ATOM     30  O   LIG    1        1.507  -1.810  -2.298  0.00  0.00    -0.267 OA
BRANCH  24  31
ATOM     31  O   LIG    1        4.857  -5.388  -0.404  0.00  0.00    -0.384 OA
ATOM     32  H   LIG    1        5.313  -4.706   0.095  0.00  0.00    +0.210 HD
ENDBRANCH  24  31
ENDBRANCH  18  19
ENDBRANCH  17  18
ENDBRANCH   4  17
TORSDOF 5
