REMARK  Name = DB01215
REMARK                            x       y       z     vdW  Elec       q    Type
REMARK                         _______ _______ _______ _____ _____    ______ ____
ROOT
ATOM      1 CL   LIG    1        0.269  -4.631  -2.348  0.00  0.00    -0.084 Cl
ATOM      2  C   LIG    1       -0.522  -3.535  -1.275  0.00  0.00    +0.042 A 
ATOM      3  C   LIG    1       -1.675  -3.927  -0.605  0.00  0.00    +0.022 A 
ATOM      4  C   LIG    1       -2.314  -3.037   0.251  0.00  0.00    +0.028 A 
ATOM      5  C   LIG    1       -1.804  -1.747   0.452  0.00  0.00    +0.058 A 
ATOM      6  C   LIG    1       -0.617  -1.333  -0.207  0.00  0.00    +0.026 A 
ATOM      7  C   LIG    1        0.030   0.011  -0.029  0.00  0.00    +0.075 C 
ATOM      8  N   LIG    1       -0.577   1.144   0.055  0.00  0.00    -0.275 NA
ATOM      9  C   LIG    1       -2.026   1.223   0.001  0.00  0.00    +0.218 C 
ATOM     10  C   LIG    1       -2.682   0.480   1.152  0.00  0.00    +0.159 A 
ATOM     11  N   LIG    1       -3.418   0.980   2.116  0.00  0.00    -0.132 NA
ATOM     12  N   LIG    1       -3.781  -0.073   2.950  0.00  0.00    -0.137 NA
ATOM     13  C   LIG    1       -3.240  -1.152   2.444  0.00  0.00    +0.230 A 
ATOM     14  N   LIG    1       -2.523  -0.878   1.301  0.00  0.00    -0.283 N 
ATOM     15  C   LIG    1       -0.006  -2.256  -1.078  0.00  0.00    +0.032 A 
ENDROOT
BRANCH   7  16
ATOM     16  C   LIG    1        1.510   0.023   0.062  0.00  0.00    +0.001 A 
ATOM     17  C   LIG    1        2.260   0.979  -0.639  0.00  0.00    +0.010 A 
ATOM     18  C   LIG    1        3.649   0.987  -0.549  0.00  0.00    +0.001 A 
ATOM     19  C   LIG    1        4.295   0.043   0.245  0.00  0.00    +0.000 A 
ATOM     20  C   LIG    1        3.565  -0.908   0.952  0.00  0.00    +0.001 A 
ATOM     21  C   LIG    1        2.175  -0.918   0.863  0.00  0.00    +0.010 A 
ENDBRANCH   7  16
TORSDOF 1
