REMARK  Name = DB01609
REMARK                            x       y       z     vdW  Elec       q    Type
REMARK                         _______ _______ _______ _____ _____    ______ ____
ROOT
ATOM      1  N   LIG    1       -0.805  -1.165   0.035  0.00  0.00    -0.206 NA
ATOM      2  C   LIG    1       -2.052  -0.760   0.043  0.00  0.00    +0.168 A 
ATOM      3  N   LIG    1       -2.080   0.618  -0.000  0.00  0.00    -0.212 N 
ATOM      4  N   LIG    1       -0.820   1.069  -0.025  0.00  0.00    -0.144 NA
ATOM      5  C   LIG    1       -0.105  -0.039  -0.012  0.00  0.00    +0.186 A 
ENDROOT
BRANCH   2   6
ATOM      6  C   LIG    1       -3.234  -1.677   0.114  0.00  0.00    +0.061 A 
ATOM      7  C   LIG    1       -3.374  -2.791  -0.732  0.00  0.00    +0.128 A 
ATOM      8  C   LIG    1       -4.492  -3.620  -0.620  0.00  0.00    +0.046 A 
ATOM      9  C   LIG    1       -5.476  -3.350   0.331  0.00  0.00    +0.004 A 
ATOM     10  C   LIG    1       -5.343  -2.249   1.175  0.00  0.00    +0.001 A 
ATOM     11  C   LIG    1       -4.228  -1.420   1.068  0.00  0.00    +0.015 A 
BRANCH   7  12
ATOM     12  O   LIG    1       -2.437  -3.082  -1.691  0.00  0.00    -0.506 OA
ATOM     13  H   LIG    1       -2.648  -3.871  -2.195  0.00  0.00    +0.292 HD
ENDBRANCH   7  12
ENDBRANCH   2   6
BRANCH   3  14
ATOM     14  C   LIG    1       -3.171   1.513  -0.051  0.00  0.00    +0.068 A 
ATOM     15  C   LIG    1       -3.181   2.651   0.759  0.00  0.00    +0.028 A 
ATOM     16  C   LIG    1       -4.260   3.529   0.711  0.00  0.00    +0.017 A 
ATOM     17  C   LIG    1       -5.340   3.284  -0.149  0.00  0.00    +0.059 A 
ATOM     18  C   LIG    1       -5.318   2.141  -0.963  0.00  0.00    +0.017 A 
ATOM     19  C   LIG    1       -4.239   1.262  -0.916  0.00  0.00    +0.028 A 
BRANCH  17  20
ATOM     20  C   LIG    1       -6.503   4.250  -0.187  0.00  0.00    +0.337 C 
ATOM     21  O   LIG    1       -6.542   5.259   0.516  0.00  0.00    -0.245 OA
BRANCH  20  22
ATOM     22  O   LIG    1       -7.504   3.920  -1.056  0.00  0.00    -0.477 OA
ATOM     23  H   LIG    1       -8.217   4.562  -1.045  0.00  0.00    +0.295 HD
ENDBRANCH  20  22
ENDBRANCH  17  20
ENDBRANCH   3  14
BRANCH   5  24
ATOM     24  C   LIG    1        1.399  -0.018  -0.032  0.00  0.00    +0.062 A 
ATOM     25  C   LIG    1        2.180  -1.009  -0.662  0.00  0.00    +0.128 A 
ATOM     26  C   LIG    1        3.575  -0.929  -0.637  0.00  0.00    +0.046 A 
ATOM     27  C   LIG    1        4.209   0.131   0.006  0.00  0.00    +0.004 A 
ATOM     28  C   LIG    1        3.450   1.119   0.627  0.00  0.00    +0.001 A 
ATOM     29  C   LIG    1        2.058   1.044   0.607  0.00  0.00    +0.015 A 
BRANCH  25  30
ATOM     30  O   LIG    1        1.612  -2.064  -1.330  0.00  0.00    -0.506 OA
ATOM     31  H   LIG    1        2.261  -2.664  -1.705  0.00  0.00    +0.292 HD
ENDBRANCH  25  30
ENDBRANCH   5  24
TORSDOF 7
