REMARK  Name = DB01392
REMARK                            x       y       z     vdW  Elec       q    Type
REMARK                         _______ _______ _______ _____ _____    ______ ____
ROOT
ATOM      1  C   LIG    1       -0.585  -0.691  -1.344  0.00  0.00    +0.129 C 
ATOM      2  C   LIG    1       -2.128  -0.630  -1.264  0.00  0.00    +0.032 C 
ATOM      3  C   LIG    1       -2.662  -1.345  -0.008  0.00  0.00    +0.007 C 
ATOM      4  C   LIG    1       -2.042  -0.753   1.275  0.00  0.00    +0.007 C 
ATOM      5  C   LIG    1       -2.567  -1.456   2.548  0.00  0.00    +0.089 C 
ATOM      6  N   LIG    1       -2.095  -0.773   3.755  0.00  0.00    -0.293 NA
ATOM      7  C   LIG    1       -2.724  -1.277   4.984  0.00  0.00    +0.090 C 
ATOM      8  C   LIG    1       -2.445  -0.366   6.213  0.00  0.00    +0.053 C 
ATOM      9  C   LIG    1       -0.977   0.029   6.250  0.00  0.00    -0.016 A 
ATOM     10  C   LIG    1       -0.172   0.640   7.269  0.00  0.00    +0.003 A 
ATOM     11  C   LIG    1       -0.415   1.071   8.583  0.00  0.00    +0.010 A 
ATOM     12  C   LIG    1        0.628   1.637   9.313  0.00  0.00    +0.001 A 
ATOM     13  C   LIG    1        1.899   1.780   8.762  0.00  0.00    +0.002 A 
ATOM     14  C   LIG    1        2.188   1.368   7.461  0.00  0.00    +0.026 A 
ATOM     15  C   LIG    1        1.141   0.800   6.727  0.00  0.00    +0.047 A 
ATOM     16  N   LIG    1        1.101   0.306   5.440  0.00  0.00    -0.356 N 
ATOM     17  H   LIG    1        1.858   0.265   4.773  0.00  0.00    +0.166 HD
ATOM     18  C   LIG    1       -0.161  -0.148   5.148  0.00  0.00    +0.038 A 
ATOM     19  C   LIG    1       -0.614  -0.773   3.832  0.00  0.00    +0.104 C 
ATOM     20  C   LIG    1        0.036  -0.168   2.563  0.00  0.00    +0.030 C 
ATOM     21  C   LIG    1       -0.490  -0.806   1.250  0.00  0.00    +0.011 C 
ATOM     22  C   LIG    1        0.056  -0.113  -0.044  0.00  0.00    +0.130 C 
ENDROOT
BRANCH   1  23
ATOM     23  O   LIG    1       -0.179  -2.024  -1.615  0.00  0.00    -0.391 OA
ATOM     24  H   LIG    1        0.753  -2.110  -1.399  0.00  0.00    +0.210 HD
ENDBRANCH   1  23
BRANCH  22  25
ATOM     25  C   LIG    1        1.598  -0.128  -0.146  0.00  0.00    +0.313 C 
ATOM     26  O   LIG    1        2.271  -1.077   0.266  0.00  0.00    -0.250 OA
BRANCH  25  27
ATOM     27  O   LIG    1        2.084   1.006  -0.694  0.00  0.00    -0.468 OA
ATOM     28  C   LIG    1        3.483   1.186  -0.857  0.00  0.00    +0.280 C 
ENDBRANCH  25  27
ENDBRANCH  22  25
TORSDOF 3
