REMARK  Name = DB01095
REMARK                            x       y       z     vdW  Elec       q    Type
REMARK                         _______ _______ _______ _____ _____    ______ ____
ROOT
ATOM      1  C   LIG    1       -2.300   1.459   0.200  0.00  0.00    +0.051 A 
ATOM      2  C   LIG    1       -3.120   0.338   0.305  0.00  0.00    +0.015 A 
ATOM      3  C   LIG    1       -4.460   0.773   0.044  0.00  0.00    +0.008 A 
ATOM      4  C   LIG    1       -5.702   0.115   0.017  0.00  0.00    +0.010 A 
ATOM      5  C   LIG    1       -6.853   0.842  -0.270  0.00  0.00    +0.001 A 
ATOM      6  C   LIG    1       -6.789   2.205  -0.526  0.00  0.00    +0.002 A 
ATOM      7  C   LIG    1       -5.581   2.901  -0.507  0.00  0.00    +0.026 A 
ATOM      8  C   LIG    1       -4.412   2.174  -0.219  0.00  0.00    +0.050 A 
ATOM      9  N   LIG    1       -3.077   2.568  -0.131  0.00  0.00    -0.337 N 
ENDROOT
BRANCH   2  10
ATOM     10  C   LIG    1       -2.711  -1.062   0.625  0.00  0.00    -0.015 A 
ATOM     11  C   LIG    1       -1.920  -1.327   1.747  0.00  0.00    +0.011 A 
ATOM     12  C   LIG    1       -1.540  -2.634   2.040  0.00  0.00    +0.039 A 
ATOM     13  C   LIG    1       -1.960  -3.677   1.218  0.00  0.00    +0.123 A 
ATOM     14  F   LIG    1       -1.589  -4.946   1.502  0.00  0.00    -0.205 F 
ATOM     15  C   LIG    1       -2.762  -3.423   0.108  0.00  0.00    +0.039 A 
ATOM     16  C   LIG    1       -3.141  -2.116  -0.186  0.00  0.00    +0.011 A 
ENDBRANCH   2  10
BRANCH   9  17
ATOM     17  C   LIG    1       -2.574   3.942  -0.367  0.00  0.00    +0.082 C 
ATOM     18  C   LIG    1       -2.851   4.401  -1.814  0.00  0.00    +0.030 C 
ATOM     19  C   LIG    1       -3.097   4.916   0.707  0.00  0.00    +0.030 C 
ENDBRANCH   9  17
BRANCH   1  20
ATOM     20  C   LIG    1       -0.854   1.571   0.370  0.00  0.00    +0.025 C 
ATOM     21  C   LIG    1        0.067   0.683  -0.055  0.00  0.00    +0.006 C 
BRANCH  21  22
ATOM     22  C   LIG    1        1.585   0.766   0.092  0.00  0.00    +0.140 C 
BRANCH  22  23
ATOM     23  O   LIG    1        1.979   2.019   0.623  0.00  0.00    -0.388 OA
ATOM     24  H   LIG    1        1.674   2.709   0.029  0.00  0.00    +0.210 HD
ENDBRANCH  22  23
BRANCH  22  25
ATOM     25  C   LIG    1        2.189  -0.407   0.903  0.00  0.00    +0.067 C 
BRANCH  25  26
ATOM     26  C   LIG    1        1.834  -0.459   2.413  0.00  0.00    +0.128 C 
BRANCH  26  27
ATOM     27  O   LIG    1        2.522   0.575   3.096  0.00  0.00    -0.391 OA
ATOM     28  H   LIG    1        2.358   1.401   2.635  0.00  0.00    +0.210 HD
ENDBRANCH  26  27
BRANCH  26  29
ATOM     29  C   LIG    1        2.180  -1.831   3.046  0.00  0.00    +0.151 C 
BRANCH  29  30
ATOM     30  C   LIG    1        1.802  -1.992   4.528  0.00  0.00    +0.307 C 
ATOM     31  O   LIG    1        2.573  -2.451   5.367  0.00  0.00    -0.251 OA
BRANCH  30  32
ATOM     32  O   LIG    1        0.520  -1.601   4.785  0.00  0.00    -0.481 OA
ATOM     33  H   LIG    1        0.287  -1.709   5.709  0.00  0.00    +0.295 HD
ENDBRANCH  30  32
ENDBRANCH  29  30
ENDBRANCH  26  29
ENDBRANCH  25  26
ENDBRANCH  22  25
ENDBRANCH  21  22
ENDBRANCH   1  20
TORSDOF 11
