REMARK  Name = DB01152
REMARK                            x       y       z     vdW  Elec       q    Type
REMARK                         _______ _______ _______ _____ _____    ______ ____
ROOT
ATOM      1  C   LIG    1       -0.612   7.018  17.732  0.00  0.00    +0.147 C 
ATOM      2  C   LIG    1       -1.137   5.980  16.757  0.00  0.00    +0.004 C 
ATOM      3  C   LIG    1       -0.367   5.181  15.998  0.00  0.00    -0.002 C 
ATOM      4  C   LIG    1       -0.916   4.346  14.948  0.00  0.00    -0.000 C 
ATOM      5  C   LIG    1       -0.164   3.837  13.957  0.00  0.00    -0.000 C 
ATOM      6  C   LIG    1       -0.728   3.137  12.820  0.00  0.00    -0.000 C 
ATOM      7  C   LIG    1        0.001   2.791  11.745  0.00  0.00    -0.000 C 
ATOM      8  C   LIG    1       -0.569   2.158  10.572  0.00  0.00    +0.000 C 
ATOM      9  C   LIG    1        0.150   1.889   9.468  0.00  0.00    +0.000 C 
ATOM     10  C   LIG    1       -0.423   1.292   8.277  0.00  0.00    -0.000 C 
ATOM     11  C   LIG    1        0.281   1.086   7.150  0.00  0.00    -0.000 C 
ATOM     12  C   LIG    1       -0.300   0.526   5.945  0.00  0.00    -0.000 C 
ATOM     13  C   LIG    1        0.407   0.328   4.819  0.00  0.00    -0.000 C 
ATOM     14  C   LIG    1       -0.167  -0.213   3.603  0.00  0.00    -0.004 C 
ATOM     15  C   LIG    1        0.571  -0.457   2.506  0.00  0.00    -0.020 C 
ATOM     16  C   LIG    1        0.056  -1.040   1.198  0.00  0.00    +0.050 C 
ATOM     17  C   LIG    1        0.669  -2.428   0.929  0.00  0.00    +0.015 C 
ATOM     18  C   LIG    1        0.195  -0.098  -0.041  0.00  0.00    +0.186 C 
ATOM     19  O   LIG    1       -0.726   0.999  -0.005  0.00  0.00    -0.460 OA
ATOM     20  C   LIG    1       -2.025   0.860  -0.368  0.00  0.00    +0.315 C 
ATOM     21  O   LIG    1       -2.565  -0.183  -0.741  0.00  0.00    -0.250 OA
ATOM     22  C   LIG    1       -2.809   2.175  -0.307  0.00  0.00    +0.194 C 
ATOM     23  C   LIG    1       -2.975   2.757   1.104  0.00  0.00    +0.144 C 
ATOM     24  O   LIG    1       -2.921   3.975   1.273  0.00  0.00    -0.297 OA
ATOM     25  C   LIG    1       -3.364   1.796   2.244  0.00  0.00    +0.075 C 
ATOM     26  C   LIG    1       -3.728   2.454   3.594  0.00  0.00    +0.015 C 
ATOM     27  C   LIG    1       -2.542   3.141   4.303  0.00  0.00    +0.075 C 
ATOM     28  C   LIG    1       -2.894   3.582   5.724  0.00  0.00    +0.136 C 
ATOM     29  O   LIG    1       -2.744   2.807   6.667  0.00  0.00    -0.297 OA
ATOM     30  C   LIG    1       -3.460   5.004   5.900  0.00  0.00    +0.105 C 
ATOM     31  C   LIG    1       -3.736   5.481   7.353  0.00  0.00    +0.124 C 
ATOM     32  C   LIG    1       -2.451   5.662   8.206  0.00  0.00    +0.063 C 
ATOM     33  C   LIG    1       -2.675   6.130   9.667  0.00  0.00    +0.119 C 
ATOM     34  C   LIG    1       -1.395   6.659  10.355  0.00  0.00    +0.063 C 
ATOM     35  C   LIG    1       -0.899   8.052   9.880  0.00  0.00    +0.124 C 
ATOM     36  C   LIG    1       -1.901   9.231  10.029  0.00  0.00    +0.105 C 
ATOM     37  C   LIG    1       -2.470   9.455  11.438  0.00  0.00    +0.138 C 
ATOM     38  O   LIG    1       -3.512   8.897  11.780  0.00  0.00    -0.297 OA
ATOM     39  C   LIG    1       -1.689  10.385  12.387  0.00  0.00    +0.106 C 
ATOM     40  C   LIG    1       -1.985  10.223  13.912  0.00  0.00    +0.138 C 
ATOM     41  C   LIG    1       -1.049   9.223  14.675  0.00  0.00    +0.155 C 
ATOM     42  C   LIG    1       -1.265   9.176  16.230  0.00  0.00    +0.133 C 
ATOM     43  C   LIG    1       -0.203   8.354  17.041  0.00  0.00    +0.068 C 
ENDROOT
BRANCH  18  44
ATOM     44  C   LIG    1        1.630   0.445  -0.329  0.00  0.00    +0.028 C 
ATOM     45  C   LIG    1        1.848   0.610  -1.848  0.00  0.00    +0.011 C 
BRANCH  44  46
ATOM     46  C   LIG    1        1.986   1.763   0.428  0.00  0.00    +0.012 C 
BRANCH  46  47
ATOM     47  C   LIG    1        3.503   2.023   0.628  0.00  0.00    +0.015 C 
ATOM     48  C   LIG    1        3.789   3.525   0.851  0.00  0.00    +0.010 C 
BRANCH  47  49
ATOM     49  C   LIG    1        4.123   1.111   1.733  0.00  0.00    +0.125 C 
BRANCH  49  50
ATOM     50  O   LIG    1        3.742   1.548   3.025  0.00  0.00    -0.391 OA
ATOM     51  H   LIG    1        2.786   1.638   3.045  0.00  0.00    +0.210 HD
ENDBRANCH  49  50
BRANCH  49  52
ATOM     52  C   LIG    1        5.666   0.993   1.708  0.00  0.00    +0.111 C 
BRANCH  52  53
ATOM     53  C   LIG    1        6.210   0.281   0.456  0.00  0.00    +0.166 C 
ATOM     54  O   LIG    1        6.800   0.963  -0.383  0.00  0.00    -0.292 OA
BRANCH  53  55
ATOM     55  C   LIG    1        5.938  -1.185   0.280  0.00  0.00    +0.018 A 
ATOM     56  C   LIG    1        6.182  -1.781  -0.965  0.00  0.00    +0.013 A 
ATOM     57  C   LIG    1        5.929  -3.136  -1.163  0.00  0.00    +0.023 A 
ATOM     58  C   LIG    1        5.436  -3.909  -0.114  0.00  0.00    +0.025 A 
ATOM     59  C   LIG    1        5.201  -3.334   1.133  0.00  0.00    +0.023 A 
ATOM     60  C   LIG    1        5.455  -1.980   1.331  0.00  0.00    +0.013 A 
BRANCH  58  61
ATOM     61  N   LIG    1        5.179  -5.265  -0.313  0.00  0.00    -0.358 N 
ATOM     62  H   LIG    1        5.351  -5.675  -1.219  0.00  0.00    +0.142 HD
ATOM     63  H   LIG    1        4.819  -5.820   0.450  0.00  0.00    +0.142 HD
ENDBRANCH  58  61
ENDBRANCH  53  55
ENDBRANCH  52  53
ENDBRANCH  49  52
ENDBRANCH  47  49
ENDBRANCH  46  47
ENDBRANCH  44  46
ENDBRANCH  18  44
BRANCH  31  64
ATOM     64  O   LIG    1       -4.681   4.630   7.978  0.00  0.00    -0.391 OA
ATOM     65  H   LIG    1       -4.793   4.918   8.888  0.00  0.00    +0.210 HD
ENDBRANCH  31  64
BRANCH  33  66
ATOM     66  O   LIG    1       -3.159   5.045  10.438  0.00  0.00    -0.392 OA
ATOM     67  H   LIG    1       -2.500   4.347  10.430  0.00  0.00    +0.210 HD
ENDBRANCH  33  66
BRANCH  35  68
ATOM     68  O   LIG    1        0.302   8.358  10.562  0.00  0.00    -0.391 OA
ATOM     69  H   LIG    1        0.925   7.642  10.419  0.00  0.00    +0.210 HD
ENDBRANCH  35  68
BRANCH  40  70
ATOM     70  O   LIG    1       -1.861  11.513  14.481  0.00  0.00    -0.390 OA
ATOM     71  H   LIG    1       -2.109  11.460  15.407  0.00  0.00    +0.210 HD
ENDBRANCH  40  70
BRANCH  41  72
ATOM     72  C   LIG    1       -1.110   7.819  14.042  0.00  0.00    +0.313 C 
ATOM     73  O   LIG    1       -2.151   7.172  13.940  0.00  0.00    -0.251 OA
BRANCH  72  74
ATOM     74  O   LIG    1        0.114   7.390  13.615  0.00  0.00    -0.480 OA
ATOM     75  H   LIG    1        0.071   6.517  13.220  0.00  0.00    +0.295 HD
ENDBRANCH  72  74
ENDBRANCH  41  72
BRANCH  42  76
ATOM     76  O   LIG    1       -2.599   8.832  16.565  0.00  0.00    -0.391 OA
ATOM     77  H   LIG    1       -2.673   8.791  17.521  0.00  0.00    +0.210 HD
ENDBRANCH  42  76
BRANCH   1  78
ATOM     78  O   LIG    1       -1.589   7.222  18.757  0.00  0.00    -0.341 OA
BRANCH  78  79
ATOM     79  C   LIG    1       -1.122   7.495  20.051  0.00  0.00    +0.281 C 
ATOM     80  O   LIG    1       -0.590   8.794  20.181  0.00  0.00    -0.343 OA
ATOM     81  C   LIG    1       -1.526   9.869  20.008  0.00  0.00    +0.148 C 
ATOM     82  C   LIG    1       -0.740  11.185  20.139  0.00  0.00    +0.041 C 
ATOM     83  C   LIG    1       -2.714   9.766  20.996  0.00  0.00    +0.162 C 
ATOM     84  C   LIG    1       -3.356   8.368  20.879  0.00  0.00    +0.116 C 
ATOM     85  C   LIG    1       -2.280   7.269  21.041  0.00  0.00    +0.189 C 
BRANCH  84  86
ATOM     86  N   LIG    1       -4.547   8.156  21.690  0.00  0.00    -0.323 NA
ATOM     87  H   LIG    1       -4.929   7.240  21.504  0.00  0.00    +0.119 HD
ATOM     88  H   LIG    1       -5.259   8.825  21.433  0.00  0.00    +0.119 HD
ENDBRANCH  84  86
BRANCH  83  89
ATOM     89  O   LIG    1       -3.665  10.792  20.763  0.00  0.00    -0.388 OA
ATOM     90  H   LIG    1       -4.309  10.772  21.475  0.00  0.00    +0.210 HD
ENDBRANCH  83  89
BRANCH  85  91
ATOM     91  O   LIG    1       -1.775   7.200  22.364  0.00  0.00    -0.385 OA
ATOM     92  H   LIG    1       -1.236   6.409  22.444  0.00  0.00    +0.210 HD
ENDBRANCH  85  91
ENDBRANCH  78  79
ENDBRANCH   1  78
TORSDOF 21
