REMARK  Name = DB01430
REMARK                            x       y       z     vdW  Elec       q    Type
REMARK                         _______ _______ _______ _____ _____    ______ ____
ROOT
ATOM      1  N   LIG    1       -2.352   0.727   1.418  0.00  0.00    -0.289 NA
ATOM      2  C   LIG    1       -1.874   0.462   0.054  0.00  0.00    +0.104 C 
ATOM      3  C   LIG    1       -0.396   0.877  -0.115  0.00  0.00    +0.123 C 
ATOM      4  N   LIG    1        0.524   0.260   0.862  0.00  0.00    -0.297 N 
ATOM      5  C   LIG    1       -0.036   0.327   2.227  0.00  0.00    +0.123 C 
ATOM      6  C   LIG    1       -1.522  -0.084   2.318  0.00  0.00    +0.104 C 
ENDROOT
BRANCH   4   7
ATOM      7  C   LIG    1        1.887   0.084   0.610  0.00  0.00    +0.224 A 
ATOM      8  N   LIG    1        2.693  -0.277   1.647  0.00  0.00    -0.181 NA
ATOM      9  C   LIG    1        4.002  -0.488   1.341  0.00  0.00    +0.221 A 
ATOM     10  N   LIG    1        4.527  -0.369   0.095  0.00  0.00    -0.181 NA
ATOM     11  C   LIG    1        3.650  -0.015  -0.880  0.00  0.00    +0.221 A 
ATOM     12  N   LIG    1        2.326   0.222  -0.672  0.00  0.00    -0.181 NA
BRANCH   9  13
ATOM     13  N   LIG    1        4.910  -0.851   2.349  0.00  0.00    -0.310 N 
ATOM     14  H   LIG    1        5.889  -0.908   2.109  0.00  0.00    +0.149 HD
BRANCH  13  15
ATOM     15  C   LIG    1        4.539  -0.919   3.759  0.00  0.00    +0.131 C 
BRANCH  15  16
ATOM     16  C   LIG    1        3.578  -2.022   4.161  0.00  0.00    -0.016 C 
ATOM     17  C   LIG    1        2.411  -1.825   4.794  0.00  0.00    +0.005 C 
ENDBRANCH  15  16
ENDBRANCH  13  15
ENDBRANCH   9  13
BRANCH  11  18
ATOM     18  N   LIG    1        4.191   0.103  -2.170  0.00  0.00    -0.310 N 
ATOM     19  H   LIG    1        5.191   0.012  -2.278  0.00  0.00    +0.149 HD
BRANCH  18  20
ATOM     20  C   LIG    1        3.411   0.566  -3.314  0.00  0.00    +0.131 C 
BRANCH  20  21
ATOM     21  C   LIG    1        2.300  -0.347  -3.798  0.00  0.00    -0.016 C 
ATOM     22  C   LIG    1        1.012   0.014  -3.916  0.00  0.00    +0.005 C 
ENDBRANCH  20  21
ENDBRANCH  18  20
ENDBRANCH  11  18
ENDBRANCH   4   7
BRANCH   1  23
ATOM     23  C   LIG    1       -3.800   0.441   1.571  0.00  0.00    +0.117 C 
BRANCH  23  28
ATOM     24  F   LIG    1       -7.075   3.300  -2.077  0.00  0.00    -0.205 F 
ATOM     25  C   LIG    1       -6.294   2.625  -1.203  0.00  0.00    +0.123 A 
ATOM     26  C   LIG    1       -5.295   3.300  -0.505  0.00  0.00    +0.038 A 
ATOM     27  C   LIG    1       -4.491   2.604   0.393  0.00  0.00    +0.008 A 
ATOM     28  C   LIG    1       -4.685   1.231   0.595  0.00  0.00    -0.026 A 
ATOM     29  C   LIG    1       -5.690   0.563  -0.112  0.00  0.00    +0.008 A 
ATOM     30  C   LIG    1       -6.495   1.260  -1.010  0.00  0.00    +0.038 A 
ENDBRANCH  23  28
BRANCH  23  31
ATOM     31  C   LIG    1       -4.318   0.630   3.005  0.00  0.00    -0.026 A 
ATOM     32  C   LIG    1       -3.946   1.745   3.769  0.00  0.00    +0.008 A 
ATOM     33  C   LIG    1       -4.417   1.889   5.071  0.00  0.00    +0.038 A 
ATOM     34  C   LIG    1       -5.260   0.920   5.612  0.00  0.00    +0.123 A 
ATOM     35  C   LIG    1       -5.636  -0.191   4.861  0.00  0.00    +0.038 A 
ATOM     36  F   LIG    1       -5.716   1.060   6.878  0.00  0.00    -0.205 F 
ATOM     37  C   LIG    1       -5.164  -0.336   3.558  0.00  0.00    +0.008 A 
ENDBRANCH  23  31
ENDBRANCH   1  23
TORSDOF 10
