REMARK  Name = DB01395
REMARK                            x       y       z     vdW  Elec       q    Type
REMARK                         _______ _______ _______ _____ _____    ______ ____
ROOT
ATOM      1  O   LIG    1        0.377  -1.508   2.109  0.00  0.00    -0.457 OA
ATOM      2  C   LIG    1       -0.354  -2.414   2.796  0.00  0.00    +0.308 C 
ATOM      3  C   LIG    1       -1.832  -2.170   2.552  0.00  0.00    +0.124 C 
ATOM      4  C   LIG    1       -1.748  -1.326   1.298  0.00  0.00    +0.060 C 
ATOM      5  O   LIG    1        0.168  -3.286   3.486  0.00  0.00    -0.251 OA
ATOM      6  C   LIG    1       -0.424  -0.542   1.412  0.00  0.00    +0.123 C 
ATOM      7  C   LIG    1        0.262  -0.056   0.073  0.00  0.00    +0.011 C 
ATOM      8  C   LIG    1        1.820  -0.259   0.122  0.00  0.00    +0.015 C 
ATOM      9  C   LIG    1       -0.244  -0.678  -1.264  0.00  0.00    +0.011 C 
ATOM     10  C   LIG    1        0.351   0.055  -2.495  0.00  0.00    +0.005 C 
ATOM     11  C   LIG    1        0.069   1.598  -2.496  0.00  0.00    +0.003 C 
ATOM     12  C   LIG    1        0.715   2.370  -3.700  0.00  0.00    -0.007 C 
ATOM     13  C   LIG    1        2.270   2.368  -3.648  0.00  0.00    +0.016 C 
ATOM     14  C   LIG    1        0.279   1.708  -5.052  0.00  0.00    +0.019 C 
ATOM     15  C   LIG    1        0.582   2.547  -6.309  0.00  0.00    +0.080 C 
ATOM     16  C   LIG    1        0.005   3.959  -6.190  0.00  0.00    +0.156 C 
ATOM     17  C   LIG    1       -0.104   4.501  -4.843  0.00  0.00    +0.046 C 
ATOM     18  O   LIG    1       -0.287   4.630  -7.178  0.00  0.00    -0.293 OA
ATOM     19  C   LIG    1        0.199   3.844  -3.696  0.00  0.00    -0.057 C 
ATOM     20  C   LIG    1       -0.057   4.574  -2.365  0.00  0.00    +0.019 C 
ATOM     21  C   LIG    1        1.039   4.756  -1.342  0.00  0.00    +0.012 C 
ATOM     22  C   LIG    1       -0.056   3.735  -1.096  0.00  0.00    +0.000 C 
ATOM     23  C   LIG    1        0.393   2.256  -1.116  0.00  0.00    +0.001 C 
ATOM     24  C   LIG    1       -0.249   1.414   0.023  0.00  0.00    +0.006 C 
ATOM     25  C   LIG    1       -0.404   1.969   1.450  0.00  0.00    +0.000 C 
ATOM     26  C   LIG    1        0.624   1.669   2.520  0.00  0.00    +0.012 C 
ATOM     27  C   LIG    1       -0.564   0.740   2.302  0.00  0.00    +0.037 C 
ENDROOT
TORSDOF 0
