REMARK  Name = DB01410
REMARK                            x       y       z     vdW  Elec       q    Type
REMARK                         _______ _______ _______ _____ _____    ______ ____
ROOT
ATOM      1  C   LIG    1       -0.351   1.362  -1.322  0.00  0.00    +0.255 C 
ATOM      2  O   LIG    1       -0.285   0.975   0.010  0.00  0.00    -0.334 OA
ATOM      3  C   LIG    1        0.375  -0.281   0.079  0.00  0.00    +0.165 C 
ATOM      4  C   LIG    1       -0.092  -0.912  -1.265  0.00  0.00    +0.162 C 
ATOM      5  C   LIG    1       -1.241  -1.887  -0.920  0.00  0.00    +0.039 C 
ATOM      6  C   LIG    1       -1.575  -1.558   0.542  0.00  0.00    +0.004 C 
ATOM      7  C   LIG    1       -2.443  -2.530   1.388  0.00  0.00    -0.000 C 
ATOM      8  C   LIG    1       -2.714  -1.900   2.802  0.00  0.00    +0.035 C 
ATOM      9  C   LIG    1       -1.403  -1.380   3.504  0.00  0.00    +0.120 C 
ATOM     10  C   LIG    1       -0.530  -0.521   2.546  0.00  0.00    +0.042 C 
ATOM     11  C   LIG    1       -3.662  -2.801   3.692  0.00  0.00    +0.013 C 
ATOM     12  C   LIG    1       -3.057  -4.168   4.117  0.00  0.00    +0.020 C 
ATOM     13  C   LIG    1       -4.948  -3.082   2.863  0.00  0.00    -0.056 C 
ATOM     14  C   LIG    1       -4.700  -3.741   1.507  0.00  0.00    +0.032 C 
ATOM     15  C   LIG    1       -6.194  -2.753   3.282  0.00  0.00    +0.051 C 
ATOM     16  C   LIG    1       -6.510  -2.093   4.549  0.00  0.00    +0.179 C 
ATOM     17  O   LIG    1       -7.657  -1.826   4.902  0.00  0.00    -0.288 OA
ATOM     18  C   LIG    1       -5.332  -1.774   5.350  0.00  0.00    +0.047 C 
ATOM     19  C   LIG    1       -4.071  -2.077   4.985  0.00  0.00    -0.012 C 
ATOM     20  C   LIG    1       -3.784  -2.829   0.677  0.00  0.00    +0.008 C 
ATOM     21  C   LIG    1       -0.212  -1.222   1.192  0.00  0.00    +0.012 C 
ATOM     22  C   LIG    1        0.684  -2.493   1.393  0.00  0.00    +0.015 C 
ATOM     23  O   LIG    1       -0.567   0.187  -2.025  0.00  0.00    -0.344 OA
ENDROOT
BRANCH   1  29
ATOM     24  C   LIG    1       -1.464   3.577  -0.620  0.00  0.00    +0.008 C 
ATOM     25  C   LIG    1       -0.337   4.546  -1.035  0.00  0.00    +0.000 C 
ATOM     26  C   LIG    1       -0.453   4.953  -2.519  0.00  0.00    +0.000 C 
ATOM     27  C   LIG    1       -0.578   3.735  -3.458  0.00  0.00    +0.000 C 
ATOM     28  C   LIG    1       -1.696   2.771  -3.004  0.00  0.00    +0.008 C 
ATOM     29  C   LIG    1       -1.527   2.325  -1.531  0.00  0.00    +0.045 C 
ENDBRANCH   1  29
BRANCH   3  30
ATOM     30  C   LIG    1        1.912  -0.055   0.192  0.00  0.00    +0.205 C 
ATOM     31  O   LIG    1        2.717  -0.776  -0.403  0.00  0.00    -0.291 OA
BRANCH  30  32
ATOM     32  C   LIG    1        2.380   1.133   1.045  0.00  0.00    +0.309 C 
BRANCH  32  33
ATOM     33  O   LIG    1        3.791   1.103   1.234  0.00  0.00    -0.457 OA
BRANCH  33  34
ATOM     34  C   LIG    1        4.403   2.019   2.014  0.00  0.00    +0.310 C 
ATOM     35  O   LIG    1        3.845   2.950   2.601  0.00  0.00    -0.251 OA
BRANCH  34  36
ATOM     36  C   LIG    1        5.924   1.789   2.090  0.00  0.00    +0.092 C 
ATOM     37  C   LIG    1        6.703   3.055   2.506  0.00  0.00    +0.019 C 
ATOM     38  C   LIG    1        6.250   0.605   3.022  0.00  0.00    +0.019 C 
ENDBRANCH  34  36
ENDBRANCH  33  34
ENDBRANCH  32  33
ENDBRANCH  30  32
ENDBRANCH   3  30
BRANCH   9  39
ATOM     39  O   LIG    1       -0.620  -2.387   4.114  0.00  0.00    -0.391 OA
ATOM     40  H   LIG    1       -1.160  -2.838   4.766  0.00  0.00    +0.210 HD
ENDBRANCH   9  39
TORSDOF 7
