REMARK  Name = DB01247
REMARK                            x       y       z     vdW  Elec       q    Type
REMARK                         _______ _______ _______ _____ _____    ______ ____
ROOT
ATOM      1  C   LIG    1        2.773   0.210  -1.378  0.00  0.00    +0.279 C 
ATOM      2  N   LIG    1        1.665   0.132  -0.608  0.00  0.00    -0.245 N 
ATOM      3  H   LIG    1        1.678   0.087   0.401  0.00  0.00    +0.169 HD
ATOM      4  O   LIG    1        2.758   0.335  -2.607  0.00  0.00    -0.267 OA
ENDROOT
BRANCH   1   9
ATOM      5  O   LIG    1        5.521   0.014   0.937  0.00  0.00    -0.359 OA
ATOM      6  C   LIG    1        6.201   0.022  -0.235  0.00  0.00    +0.135 A 
ATOM      7  C   LIG    1        7.705  -0.044  -0.156  0.00  0.00    +0.089 C 
ATOM      8  C   LIG    1        5.288   0.095  -1.262  0.00  0.00    +0.080 A 
ATOM      9  C   LIG    1        4.026   0.123  -0.655  0.00  0.00    +0.169 A 
ATOM     10  N   LIG    1        4.155   0.083   0.661  0.00  0.00    -0.073 NA
ENDBRANCH   1   9
BRANCH   2  11
ATOM     11  N   LIG    1        0.386   0.270  -1.164  0.00  0.00    -0.236 NA
ATOM     12  H   LIG    1       -0.210  -0.447  -0.776  0.00  0.00    +0.145 HD
BRANCH  11  13
ATOM     13  C   LIG    1       -0.126   1.621  -0.979  0.00  0.00    +0.137 C 
BRANCH  13  14
ATOM     14  C   LIG    1       -1.485   1.750  -1.646  0.00  0.00    -0.032 A 
ATOM     15  C   LIG    1       -1.567   2.129  -2.989  0.00  0.00    +0.005 A 
ATOM     16  C   LIG    1       -2.812   2.261  -3.599  0.00  0.00    +0.000 A 
ATOM     17  C   LIG    1       -3.970   2.018  -2.863  0.00  0.00    +0.000 A 
ATOM     18  C   LIG    1       -3.895   1.645  -1.522  0.00  0.00    +0.000 A 
ATOM     19  C   LIG    1       -2.650   1.513  -0.912  0.00  0.00    +0.005 A 
ENDBRANCH  13  14
ENDBRANCH  11  13
ENDBRANCH   2  11
TORSDOF 4
