REMARK  Name = DB01014
REMARK                            x       y       z     vdW  Elec       q    Type
REMARK                         _______ _______ _______ _____ _____    ______ ____
ROOT
ATOM      1  C   LIG    1        4.294   0.036   0.343  0.00  0.00    +0.086 A 
ATOM      2  C   LIG    1        3.534   1.198   0.110  0.00  0.00    +0.030 A 
ATOM      3  C   LIG    1        2.145   1.152   0.047  0.00  0.00    +0.015 A 
ATOM      4  C   LIG    1        1.463  -0.059   0.210  0.00  0.00    +0.037 A 
ATOM      5  C   LIG    1        2.211  -1.221   0.450  0.00  0.00    +0.015 A 
ATOM      6  C   LIG    1        3.601  -1.166   0.514  0.00  0.00    +0.030 A 
ENDROOT
BRANCH   4   7
ATOM      7  C   LIG    1       -0.049  -0.088   0.136  0.00  0.00    +0.244 C 
ATOM      8  N   LIG    1       -0.620  -1.294  -0.047  0.00  0.00    -0.311 N 
ATOM      9  H   LIG    1       -0.028  -2.106  -0.140  0.00  0.00    +0.149 HD
ATOM     10  O   LIG    1       -0.705   0.953   0.218  0.00  0.00    -0.270 OA
BRANCH   8  11
ATOM     11  C   LIG    1       -2.058  -1.510  -0.160  0.00  0.00    +0.115 C 
BRANCH  11  12
ATOM     12  C   LIG    1       -2.878  -1.499   1.153  0.00  0.00    +0.139 C 
BRANCH  12  13
ATOM     13  C   LIG    1       -4.065  -2.467   1.242  0.00  0.00    +0.306 C 
ATOM     14  O   LIG    1       -4.451  -3.172   0.312  0.00  0.00    -0.251 OA
BRANCH  13  15
ATOM     15  O   LIG    1       -4.635  -2.432   2.480  0.00  0.00    -0.481 OA
ATOM     16  H   LIG    1       -5.384  -3.029   2.554  0.00  0.00    +0.295 HD
ENDBRANCH  13  15
ENDBRANCH  12  13
ENDBRANCH  11  12
ENDBRANCH   8  11
ENDBRANCH   4   7
BRANCH   1  18
ATOM     17  N   LIG    1        6.311   1.075   0.191  0.00  0.00    -0.149 NA
ATOM     18  N   LIG    1        5.697  -0.016   0.421  0.00  0.00    -0.149 NA
BRANCH  17  21
ATOM     19  C   LIG    1        9.822   2.278   0.000  0.00  0.00    +0.102 A 
ATOM     20  C   LIG    1        8.417   2.196  -0.037  0.00  0.00    +0.048 A 
ATOM     21  C   LIG    1        7.715   1.025   0.268  0.00  0.00    +0.087 A 
ATOM     22  C   LIG    1        8.472  -0.104   0.629  0.00  0.00    +0.033 A 
ATOM     23  C   LIG    1        9.861  -0.056   0.676  0.00  0.00    +0.048 A 
ATOM     24  C   LIG    1       10.541   1.120   0.366  0.00  0.00    +0.131 A 
BRANCH  24  25
ATOM     25  O   LIG    1       11.911   1.080   0.437  0.00  0.00    -0.506 OA
ATOM     26  H   LIG    1       12.248   0.220   0.700  0.00  0.00    +0.292 HD
ENDBRANCH  24  25
BRANCH  19  27
ATOM     27  C   LIG    1       10.513   3.587  -0.349  0.00  0.00    +0.340 C 
ATOM     28  O   LIG    1       11.735   3.728  -0.335  0.00  0.00    -0.245 OA
BRANCH  27  29
ATOM     29  O   LIG    1        9.674   4.612  -0.686  0.00  0.00    -0.477 OA
ATOM     30  H   LIG    1       10.154   5.415  -0.899  0.00  0.00    +0.295 HD
ENDBRANCH  27  29
ENDBRANCH  19  27
ENDBRANCH  17  21
ENDBRANCH   1  18
TORSDOF 10
