REMARK  Name = DB01987
REMARK                            x       y       z     vdW  Elec       q    Type
REMARK                         _______ _______ _______ _____ _____    ______ ____
ROOT
ATOM      1  N   LIG    1       -0.780   3.263  -0.491  0.00  0.00    -0.340 N 
ATOM      2  C   LIG    1       -0.597   1.931  -0.890  0.00  0.00    +0.026 A 
ATOM      3  C   LIG    1       -0.613   1.585  -2.370  0.00  0.00    +0.064 C 
ATOM      4  C   LIG    1       -0.399   1.051   0.185  0.00  0.00    +0.012 A 
ATOM      5  S   LIG    1       -0.435   1.937   1.700  0.00  0.00    -0.082 S 
ATOM      6  C   LIG    1       -0.702   3.432   0.880  0.00  0.00    +0.132 A 
ENDROOT
BRANCH   1   7
ATOM      7  C   LIG    1       -0.967   4.375  -1.439  0.00  0.00    +0.162 C 
BRANCH   7  12
ATOM      8  C   LIG    1       -2.673   9.441   0.707  0.00  0.00    +0.088 C 
ATOM      9  C   LIG    1       -2.235   8.099   0.151  0.00  0.00    +0.128 A 
ATOM     10  N   LIG    1       -3.146   7.092   0.173  0.00  0.00    -0.218 NA
ATOM     11  C   LIG    1       -2.742   5.898  -0.335  0.00  0.00    +0.125 A 
ATOM     12  C   LIG    1       -1.445   5.704  -0.848  0.00  0.00    +0.030 A 
ATOM     13  C   LIG    1       -0.594   6.817  -0.830  0.00  0.00    +0.121 A 
ATOM     14  N   LIG    1       -0.968   8.023  -0.331  0.00  0.00    -0.240 NA
BRANCH  11  15
ATOM     15  N   LIG    1       -3.686   4.871  -0.322  0.00  0.00    -0.343 N 
ATOM     16  H   LIG    1       -4.607   5.056   0.049  0.00  0.00    +0.144 HD
ATOM     17  H   LIG    1       -3.450   3.967  -0.704  0.00  0.00    +0.144 HD
ENDBRANCH  11  15
ENDBRANCH   7  12
ENDBRANCH   1   7
BRANCH   4  18
ATOM     18  C   LIG    1       -0.143  -0.443   0.169  0.00  0.00    +0.073 C 
BRANCH  18  19
ATOM     19  C   LIG    1        1.334  -0.782  -0.093  0.00  0.00    +0.177 C 
BRANCH  19  20
ATOM     20  O   LIG    1        2.145  -0.216   0.925  0.00  0.00    -0.286 OA
BRANCH  20  21
ATOM     21  P   LIG    1        3.346   0.823   0.556  0.00  0.00    +0.483 P 
ATOM     22  O   LIG    1        4.453   0.263  -0.265  0.00  0.00    -0.227 OA
BRANCH  21  23
ATOM     23  O   LIG    1        2.572   2.081  -0.121  0.00  0.00    -0.302 OA
ATOM     24  H   LIG    1        3.093   2.588  -0.773  0.00  0.00    +0.222 HD
ENDBRANCH  21  23
BRANCH  21  25
ATOM     25  O   LIG    1        3.779   1.407   2.005  0.00  0.00    -0.186 OA
BRANCH  25  26
ATOM     26  P   LIG    1        4.609   2.721   2.716  0.00  0.00    +0.481 P 
ATOM     27  O   LIG    1        5.305   2.224   3.963  0.00  0.00    -0.227 OA
BRANCH  26  28
ATOM     28  O   LIG    1        5.305   3.499   1.622  0.00  0.00    -0.302 OA
ATOM     29  H   LIG    1        4.669   3.714   0.923  0.00  0.00    +0.222 HD
ENDBRANCH  26  28
BRANCH  26  30
ATOM     30  O   LIG    1        3.216   3.599   3.187  0.00  0.00    -0.302 OA
ATOM     31  H   LIG    1        2.957   4.449   2.784  0.00  0.00    +0.222 HD
ENDBRANCH  26  30
ENDBRANCH  25  26
ENDBRANCH  21  25
ENDBRANCH  20  21
ENDBRANCH  19  20
ENDBRANCH  18  19
ENDBRANCH   4  18
TORSDOF 12
