REMARK  Name = DB01700
REMARK                            x       y       z     vdW  Elec       q    Type
REMARK                         _______ _______ _______ _____ _____    ______ ____
ROOT
ATOM      1  C   LIG    1        1.734  -0.038   0.108  0.00  0.00    +0.253 C 
ATOM      2  C   LIG    1        2.065  -1.086   1.164  0.00  0.00    +0.195 C 
ATOM      3  C   LIG    1        3.541  -1.309   0.831  0.00  0.00    +0.178 C 
ATOM      4  C   LIG    1        3.583  -1.197  -0.702  0.00  0.00    +0.178 C 
ATOM      5  O   LIG    1        2.433  -0.422  -1.037  0.00  0.00    -0.346 OA
ENDROOT
BRANCH   1   6
ATOM      6  N   LIG    1        0.319   0.080  -0.191  0.00  0.00    -0.289 N 
ATOM      7  C   LIG    1       -0.449  -0.805  -0.906  0.00  0.00    +0.203 A 
ATOM      8  N   LIG    1       -1.705  -0.461  -1.010  0.00  0.00    -0.229 NA
ATOM      9  C   LIG    1       -1.828   0.684  -0.346  0.00  0.00    +0.164 A 
ATOM     10  C   LIG    1       -0.584   1.055   0.192  0.00  0.00    +0.131 A 
BRANCH   9  11
ATOM     11  C   LIG    1       -3.071   1.423  -0.197  0.00  0.00    +0.263 C 
ATOM     12  O   LIG    1       -3.145   2.464   0.453  0.00  0.00    -0.269 OA
ATOM     13  N   LIG    1       -4.138   0.899  -0.813  0.00  0.00    -0.324 N 
ATOM     14  H   LIG    1       -5.036   1.356  -0.750  0.00  0.00    +0.145 HD
ATOM     15  H   LIG    1       -4.048   0.044  -1.343  0.00  0.00    +0.145 HD
ENDBRANCH   9  11
BRANCH  10  16
ATOM     16  N   LIG    1       -0.199   2.125   0.959  0.00  0.00    -0.343 N 
ATOM     17  H   LIG    1        0.753   2.237   1.275  0.00  0.00    +0.144 HD
ATOM     18  H   LIG    1       -0.862   2.834   1.242  0.00  0.00    +0.144 HD
ENDBRANCH  10  16
ENDBRANCH   1   6
BRANCH   2  19
ATOM     19  O   LIG    1        1.761  -0.616   2.466  0.00  0.00    -0.385 OA
ATOM     20  H   LIG    1        1.927  -1.325   3.092  0.00  0.00    +0.210 HD
ENDBRANCH   2  19
BRANCH   3  21
ATOM     21  O   LIG    1        4.419  -0.382   1.454  0.00  0.00    -0.386 OA
ATOM     22  H   LIG    1        5.270  -0.427   1.012  0.00  0.00    +0.210 HD
ENDBRANCH   3  21
BRANCH   4  23
ATOM     23  C   LIG    1        3.480  -2.548  -1.440  0.00  0.00    +0.206 C 
BRANCH  23  24
ATOM     24  O   LIG    1        3.446  -2.411  -2.850  0.00  0.00    -0.284 OA
BRANCH  24  25
ATOM     25  P   LIG    1        4.850  -1.890  -3.782  0.00  0.00    +0.472 P 
ATOM     26  O   LIG    1        4.510  -2.205  -5.250  0.00  0.00    -0.228 OA
BRANCH  25  27
ATOM     27  O   LIG    1        6.037  -2.716  -3.253  0.00  0.00    -0.303 OA
ATOM     28  H   LIG    1        6.209  -2.480  -2.328  0.00  0.00    +0.222 HD
ENDBRANCH  25  27
BRANCH  25  29
ATOM     29  O   LIG    1        5.006  -0.381  -3.518  0.00  0.00    -0.303 OA
ATOM     30  H   LIG    1        5.219  -0.236  -2.582  0.00  0.00    +0.222 HD
ENDBRANCH  25  29
ENDBRANCH  24  25
ENDBRANCH  23  24
ENDBRANCH   4  23
TORSDOF 10
