REMARK  Name = DB01338
REMARK                            x       y       z     vdW  Elec       q    Type
REMARK                         _______ _______ _______ _____ _____    ______ ____
ROOT
ATOM      1  C   LIG    1        2.160   0.637  -1.079  0.00  0.00    +0.200 C 
ATOM      2  C   LIG    1        1.465  -0.012   0.171  0.00  0.00    +0.098 C 
ATOM      3  C   LIG    1        2.007  -1.477   0.110  0.00  0.00    +0.027 C 
ATOM      4  C   LIG    1        2.938  -1.543  -1.113  0.00  0.00    +0.003 C 
ATOM      5  C   LIG    1        3.204  -2.902  -1.813  0.00  0.00    -0.004 C 
ATOM      6  C   LIG    1        3.691  -3.984  -0.816  0.00  0.00    +0.004 C 
ATOM      7  C   LIG    1        4.065  -5.297  -1.529  0.00  0.00    +0.004 C 
ATOM      8  C   LIG    1        5.124  -5.043  -2.628  0.00  0.00    -0.001 C 
ATOM      9  C   LIG    1        5.682  -6.351  -3.247  0.00  0.00    +0.050 C 
ATOM     10  C   LIG    1        6.812  -6.073  -4.266  0.00  0.00    +0.194 C 
ATOM     11  C   LIG    1        6.285  -5.165  -5.432  0.00  0.00    +0.098 C 
ATOM     12  C   LIG    1        5.742  -3.860  -4.753  0.00  0.00    +0.029 C 
ATOM     13  C   LIG    1        4.570  -4.065  -3.731  0.00  0.00    -0.024 C 
ATOM     14  C   LIG    1        3.294  -4.615  -4.447  0.00  0.00    +0.012 C 
ATOM     15  C   LIG    1        4.249  -2.713  -2.976  0.00  0.00    -0.001 C 
ATOM     16  C   LIG    1        3.894  -1.508  -3.911  0.00  0.00    +0.005 C 
ATOM     17  C   LIG    1        3.508  -0.223  -3.135  0.00  0.00    +0.011 C 
ATOM     18  C   LIG    1        2.387  -0.494  -2.101  0.00  0.00    +0.010 C 
ATOM     19  C   LIG    1        1.050  -0.887  -2.805  0.00  0.00    +0.015 C 
ENDROOT
BRANCH  11  20
ATOM     20  N   LIG    1        5.396  -5.822  -6.420  0.00  0.00    -0.299 NA
ATOM     21  C   LIG    1        5.878  -7.133  -6.883  0.00  0.00    +0.067 C 
ATOM     22  C   LIG    1        4.843  -7.845  -7.783  0.00  0.00    -0.060 C 
ATOM     23  N   LIG    1        4.453  -6.962  -8.997  0.00  0.00    +0.378 N 
ATOM     24  C   LIG    1        5.626  -6.861 -10.006  0.00  0.00    -0.092 C 
ATOM     25  C   LIG    1        3.237  -7.612  -9.702  0.00  0.00    -0.092 C 
ATOM     26  C   LIG    1        4.030  -5.557  -8.494  0.00  0.00    -0.060 C 
ATOM     27  C   LIG    1        5.113  -4.951  -7.573  0.00  0.00    +0.067 C 
ENDBRANCH  11  20
BRANCH   2  28
ATOM     28  N   LIG    1       -0.017  -0.005   0.299  0.00  0.00    -0.299 NA
ATOM     29  C   LIG    1       -0.522  -0.687   1.507  0.00  0.00    +0.067 C 
ATOM     30  C   LIG    1       -0.229   0.099   2.813  0.00  0.00    -0.060 C 
ATOM     31  N   LIG    1       -0.810   1.540   2.737  0.00  0.00    +0.378 N 
ATOM     32  C   LIG    1       -2.353   1.512   2.889  0.00  0.00    -0.092 C 
ATOM     33  C   LIG    1       -0.211   2.370   3.899  0.00  0.00    -0.092 C 
ATOM     34  C   LIG    1       -0.402   2.215   1.397  0.00  0.00    -0.060 C 
ATOM     35  C   LIG    1       -0.724   1.280   0.205  0.00  0.00    +0.067 C 
ENDBRANCH   2  28
BRANCH   1  36
ATOM     36  O   LIG    1        1.590   1.802  -1.678  0.00  0.00    -0.459 OA
BRANCH  36  37
ATOM     37  C   LIG    1        1.896   3.049  -1.248  0.00  0.00    +0.304 C 
ATOM     38  C   LIG    1        1.201   4.127  -2.067  0.00  0.00    +0.136 C 
ATOM     39  O   LIG    1        2.631   3.336  -0.301  0.00  0.00    -0.251 OA
ENDBRANCH  36  37
ENDBRANCH   1  36
BRANCH  10  40
ATOM     40  O   LIG    1        7.931  -5.488  -3.587  0.00  0.00    -0.460 OA
BRANCH  40  41
ATOM     41  C   LIG    1        9.178  -5.511  -4.112  0.00  0.00    +0.304 C 
ATOM     42  C   LIG    1       10.195  -4.822  -3.212  0.00  0.00    +0.136 C 
ATOM     43  O   LIG    1        9.508  -6.015  -5.186  0.00  0.00    -0.251 OA
ENDBRANCH  40  41
ENDBRANCH  10  40
TORSDOF 6
