REMARK  Name = DB01425
REMARK                            x       y       z     vdW  Elec       q    Type
REMARK                         _______ _______ _______ _____ _____    ______ ____
ROOT
ATOM      1  O   LIG    1       -0.387   1.553  -1.104  0.00  0.00    -0.270 OA
ATOM      2  C   LIG    1       -0.850   0.686  -0.360  0.00  0.00    +0.248 C 
ATOM      3  N   LIG    1       -0.082  -0.142   0.375  0.00  0.00    -0.313 N 
ATOM      4  H   LIG    1       -0.542  -0.792   0.996  0.00  0.00    +0.149 HD
ENDROOT
BRANCH   2   5
ATOM      5  C   LIG    1       -2.345   0.495  -0.219  0.00  0.00    +0.080 A 
ATOM      6  C   LIG    1       -2.854  -0.814  -0.156  0.00  0.00    +0.048 A 
ATOM      7  C   LIG    1       -4.233  -0.997  -0.041  0.00  0.00    +0.113 A 
ATOM      8  C   LIG    1       -5.092   0.118   0.009  0.00  0.00    +0.089 A 
ATOM      9  C   LIG    1       -4.612   1.426  -0.051  0.00  0.00    +0.075 A 
ATOM     10  N   LIG    1       -6.359  -0.424   0.120  0.00  0.00    -0.257 N 
ATOM     11  H   LIG    1       -7.247   0.052   0.183  0.00  0.00    +0.191 HD
ATOM     12  N   LIG    1       -6.293  -1.768   0.138  0.00  0.00    -0.067 NA
ATOM     13  N   LIG    1       -4.971  -2.140   0.037  0.00  0.00    -0.130 NA
ATOM     14  C   LIG    1       -3.218   1.608  -0.167  0.00  0.00    +0.134 A 
BRANCH  14  15
ATOM     15  O   LIG    1       -2.654   2.874  -0.215  0.00  0.00    -0.494 OA
ATOM     16  C   LIG    1       -3.481   4.033  -0.185  0.00  0.00    +0.277 C 
ENDBRANCH  14  15
ENDBRANCH   2   5
BRANCH   3  17
ATOM     17  C   LIG    1        1.382  -0.146   0.401  0.00  0.00    +0.089 C 
BRANCH  17  18
ATOM     18  C   LIG    1        2.022  -1.162  -0.574  0.00  0.00    -0.051 C 
ATOM     19  C   LIG    1        1.646  -0.969  -2.050  0.00  0.00    -0.016 C 
ATOM     20  C   LIG    1        2.715  -1.675  -2.880  0.00  0.00    -0.020 C 
ATOM     21  C   LIG    1        3.902  -1.927  -1.947  0.00  0.00    -0.078 C 
ATOM     22  N   LIG    1        3.563  -1.200  -0.628  0.00  0.00    +0.385 N 
ATOM     23  H   LIG    1        3.885  -0.245  -0.703  0.00  0.00    -0.081 HD
BRANCH  22  24
ATOM     24  C   LIG    1        4.220  -1.833   0.617  0.00  0.00    -0.051 C 
BRANCH  24  25
ATOM     25  C   LIG    1        5.736  -1.835   0.556  0.00  0.00    -0.053 C 
ATOM     26  C   LIG    1        6.533  -1.077   1.326  0.00  0.00    +0.002 C 
ENDBRANCH  24  25
ENDBRANCH  22  24
ENDBRANCH  17  18
ENDBRANCH   3  17
TORSDOF 6
