REMARK  Name = DB01244
REMARK                            x       y       z     vdW  Elec       q    Type
REMARK                         _______ _______ _______ _____ _____    ______ ____
ROOT
ATOM      1  N   LIG    1        0.070   1.951   1.862  0.00  0.00    -0.324 N 
ENDROOT
BRANCH   1   2
ATOM      2  C   LIG    1       -0.365   1.359   3.082  0.00  0.00    +0.030 A 
ATOM      3  C   LIG    1       -1.401   0.407   3.110  0.00  0.00    +0.023 A 
ATOM      4  C   LIG    1       -1.811  -0.172   4.308  0.00  0.00    +0.002 A 
ATOM      5  C   LIG    1       -1.189   0.188   5.498  0.00  0.00    +0.000 A 
ATOM      6  C   LIG    1       -0.158   1.120   5.498  0.00  0.00    +0.002 A 
ATOM      7  C   LIG    1        0.251   1.699   4.299  0.00  0.00    +0.023 A 
ENDBRANCH   1   2
BRANCH   1   8
ATOM      8  C   LIG    1       -0.355   1.398   0.566  0.00  0.00    +0.126 C 
BRANCH   8   9
ATOM      9  C   LIG    1        0.207  -0.021   0.240  0.00  0.00    +0.099 C 
BRANCH   9  10
ATOM     10  N   LIG    1       -0.406  -0.529  -1.007  0.00  0.00    -0.296 NA
ATOM     11  C   LIG    1        0.027  -1.863  -1.419  0.00  0.00    +0.085 C 
ATOM     12  C   LIG    1       -0.975  -2.337  -2.471  0.00  0.00    +0.017 C 
ATOM     13  C   LIG    1       -2.244  -1.551  -2.153  0.00  0.00    +0.017 C 
ATOM     14  C   LIG    1       -1.857  -0.694  -0.947  0.00  0.00    +0.085 C 
ENDBRANCH   9  10
BRANCH   9  15
ATOM     15  C   LIG    1        1.760   0.035   0.148  0.00  0.00    +0.180 C 
BRANCH  15  16
ATOM     16  O   LIG    1        2.338  -1.264   0.165  0.00  0.00    -0.378 OA
BRANCH  16  17
ATOM     17  C   LIG    1        3.755  -1.264   0.044  0.00  0.00    +0.162 C 
BRANCH  17  18
ATOM     18  C   LIG    1        4.276  -2.715   0.028  0.00  0.00    +0.009 C 
ATOM     19  C   LIG    1        5.796  -2.758  -0.214  0.00  0.00    +0.009 C 
ATOM     20  C   LIG    1        3.896  -3.484   1.308  0.00  0.00    +0.009 C 
ENDBRANCH  17  18
ENDBRANCH  16  17
ENDBRANCH  15  16
ENDBRANCH   9  15
ENDBRANCH   8   9
ENDBRANCH   1   8
BRANCH   1  21
ATOM     21  C   LIG    1        0.539   3.346   1.865  0.00  0.00    +0.140 C 
BRANCH  21  22
ATOM     22  C   LIG    1        1.943   3.455   1.281  0.00  0.00    -0.030 A 
ATOM     23  C   LIG    1        2.118   3.789  -0.065  0.00  0.00    +0.005 A 
ATOM     24  C   LIG    1        3.400   3.849  -0.607  0.00  0.00    +0.000 A 
ATOM     25  C   LIG    1        4.502   3.571   0.198  0.00  0.00    +0.000 A 
ATOM     26  C   LIG    1        4.336   3.236   1.540  0.00  0.00    +0.000 A 
ATOM     27  C   LIG    1        3.055   3.176   2.082  0.00  0.00    +0.005 A 
ENDBRANCH  21  22
ENDBRANCH   1  21
TORSDOF 10
