REMARK  Name = DB01289
REMARK                            x       y       z     vdW  Elec       q    Type
REMARK                         _______ _______ _______ _____ _____    ______ ____
ROOT
ATOM      1  C   LIG    1       -2.539   0.524   0.227  0.00  0.00    +0.109 A 
ATOM      2  C   LIG    1       -1.515   1.458   0.051  0.00  0.00    +0.029 A 
ATOM      3  C   LIG    1       -0.186   1.052   0.121  0.00  0.00    +0.005 A 
ATOM      4  C   LIG    1        0.121  -0.291   0.348  0.00  0.00    -0.046 A 
ATOM      5  C   LIG    1       -0.903  -1.221   0.547  0.00  0.00    +0.005 A 
ATOM      6  C   LIG    1       -2.232  -0.815   0.481  0.00  0.00    +0.029 A 
ENDROOT
BRANCH   1   7
ATOM      7  S   LIG    1       -4.255   1.014   0.022  0.00  0.00    +0.076 S 
ATOM      8  O   LIG    1       -5.004   0.145   0.939  0.00  0.00    -0.150 OA
ATOM      9  O   LIG    1       -4.273   2.459   0.281  0.00  0.00    -0.150 OA
BRANCH   7  10
ATOM     10  N   LIG    1       -4.416   0.633  -1.496  0.00  0.00    -0.168 N 
ATOM     11  H   LIG    1       -3.654   0.241  -1.980  0.00  0.00    +0.178 HD
ATOM     12  C   LIG    1       -5.546   0.829  -2.129  0.00  0.00    +0.333 C 
ATOM     13  N   LIG    1       -5.580   0.412  -3.414  0.00  0.00    -0.231 N 
ATOM     14  H   LIG    1       -4.843   0.715  -4.034  0.00  0.00    +0.171 HD
ATOM     15  O   LIG    1       -6.563   1.303  -1.604  0.00  0.00    -0.250 OA
BRANCH  13  16
ATOM     16  N   LIG    1       -6.798   0.348  -4.128  0.00  0.00    -0.226 NA
ATOM     17  C   LIG    1       -7.285   1.612  -4.690  0.00  0.00    +0.105 C 
ATOM     18  C   LIG    1       -8.793   1.897  -4.550  0.00  0.00    +0.017 C 
ATOM     19  C   LIG    1       -9.774   0.747  -4.851  0.00  0.00    +0.001 C 
ATOM     20  C   LIG    1       -9.325  -0.253  -5.930  0.00  0.00    +0.001 C 
ATOM     21  C   LIG    1       -8.308  -1.289  -5.417  0.00  0.00    +0.017 C 
ATOM     22  C   LIG    1       -6.899  -0.774  -5.062  0.00  0.00    +0.105 C 
ENDBRANCH  13  16
ENDBRANCH   7  10
ENDBRANCH   1   7
BRANCH   4  23
ATOM     23  C   LIG    1        1.572  -0.758   0.296  0.00  0.00    +0.054 C 
BRANCH  23  24
ATOM     24  C   LIG    1        2.145  -0.917  -1.137  0.00  0.00    +0.109 C 
BRANCH  24  25
ATOM     25  N   LIG    1        1.211  -1.547  -2.078  0.00  0.00    -0.310 N 
ATOM     26  H   LIG    1        1.212  -2.556  -2.102  0.00  0.00    +0.149 HD
ATOM     27  C   LIG    1        0.390  -0.887  -2.923  0.00  0.00    +0.266 C 
ATOM     28  O   LIG    1        0.385   0.339  -3.056  0.00  0.00    -0.268 OA
BRANCH  27  29
ATOM     29  C   LIG    1       -0.559  -1.717  -3.628  0.00  0.00    +0.168 A 
ATOM     30  C   LIG    1       -1.725  -1.235  -4.236  0.00  0.00    +0.080 A 
ATOM     31  C   LIG    1       -2.330  -2.330  -4.807  0.00  0.00    +0.135 A 
ATOM     32  C   LIG    1       -3.599  -2.548  -5.592  0.00  0.00    +0.089 C 
ATOM     33  O   LIG    1       -1.555  -3.416  -4.572  0.00  0.00    -0.359 OA
ATOM     34  N   LIG    1       -0.434  -3.016  -3.841  0.00  0.00    -0.073 NA
ENDBRANCH  27  29
ENDBRANCH  24  25
ENDBRANCH  23  24
ENDBRANCH   4  23
TORSDOF 7
