REMARK  Name = DB01698
REMARK                            x       y       z     vdW  Elec       q    Type
REMARK                         _______ _______ _______ _____ _____    ______ ____
ROOT
ATOM      1  O   LIG    1        1.975   0.420  -1.182  0.00  0.00    -0.331 OA
ATOM      2  C   LIG    1        1.301   0.266   0.038  0.00  0.00    +0.340 C 
ATOM      3  C   LIG    1        1.799  -1.022   0.712  0.00  0.00    +0.214 C 
ATOM      4  C   LIG    1        3.336  -0.960   0.897  0.00  0.00    +0.180 C 
ATOM      5  C   LIG    1        4.064  -0.543  -0.404  0.00  0.00    +0.177 C 
ATOM      6  C   LIG    1        3.373   0.684  -1.052  0.00  0.00    +0.179 C 
ENDROOT
BRANCH   5   7
ATOM      7  O   LIG    1        5.436  -0.292  -0.154  0.00  0.00    -0.386 OA
ATOM      8  H   LIG    1        5.887  -0.196  -0.996  0.00  0.00    +0.210 HD
ENDBRANCH   5   7
BRANCH   4   9
ATOM      9  O   LIG    1        3.841  -2.185   1.404  0.00  0.00    -0.386 OA
ATOM     10  H   LIG    1        3.680  -2.874   0.755  0.00  0.00    +0.210 HD
ENDBRANCH   4   9
BRANCH   3  11
ATOM     11  O   LIG    1        1.144  -1.246   1.947  0.00  0.00    -0.383 OA
ATOM     12  H   LIG    1        1.674  -1.857   2.466  0.00  0.00    +0.210 HD
ENDBRANCH   3  11
BRANCH   2  13
ATOM     13  O   LIG    1       -0.069   0.108  -0.226  0.00  0.00    -0.453 OA
BRANCH  13  14
ATOM     14  C   LIG    1       -0.832   1.219  -0.043  0.00  0.00    +0.214 A 
ATOM     15  C   LIG    1       -1.573   1.251   1.226  0.00  0.00    +0.238 A 
ATOM     16  C   LIG    1       -2.381   2.513   1.417  0.00  0.00    +0.109 A 
ATOM     17  C   LIG    1       -3.151   2.775   2.572  0.00  0.00    +0.135 A 
ATOM     18  C   LIG    1       -3.876   3.963   2.686  0.00  0.00    +0.091 A 
ATOM     19  C   LIG    1       -3.853   4.908   1.664  0.00  0.00    +0.124 A 
ATOM     20  C   LIG    1       -3.103   4.670   0.518  0.00  0.00    +0.092 A 
ATOM     21  C   LIG    1       -2.378   3.488   0.399  0.00  0.00    +0.147 A 
ATOM     22  O   LIG    1       -1.667   3.338  -0.774  0.00  0.00    -0.451 OA
ATOM     23  O   LIG    1       -1.542   0.344   2.058  0.00  0.00    -0.283 OA
ATOM     24  C   LIG    1       -0.897   2.232  -0.943  0.00  0.00    +0.181 A 
BRANCH  24  25
ATOM     25  C   LIG    1       -0.249   2.263  -2.273  0.00  0.00    +0.025 A 
ATOM     26  C   LIG    1        0.395   3.426  -2.712  0.00  0.00    +0.015 A 
ATOM     27  C   LIG    1        1.042   3.460  -3.947  0.00  0.00    +0.050 A 
ATOM     28  C   LIG    1        1.058   2.327  -4.762  0.00  0.00    +0.158 A 
ATOM     29  C   LIG    1        0.413   1.159  -4.338  0.00  0.00    +0.159 A 
ATOM     30  C   LIG    1       -0.239   1.134  -3.103  0.00  0.00    +0.060 A 
BRANCH  29  31
ATOM     31  O   LIG    1        0.413   0.027  -5.114  0.00  0.00    -0.503 OA
ATOM     32  H   LIG    1       -0.068  -0.702  -4.716  0.00  0.00    +0.292 HD
ENDBRANCH  29  31
BRANCH  28  33
ATOM     33  O   LIG    1        1.712   2.381  -5.967  0.00  0.00    -0.503 OA
ATOM     34  H   LIG    1        2.097   3.241  -6.148  0.00  0.00    +0.292 HD
ENDBRANCH  28  33
ENDBRANCH  24  25
BRANCH  19  35
ATOM     35  O   LIG    1       -4.568   6.068   1.785  0.00  0.00    -0.507 OA
ATOM     36  H   LIG    1       -5.048   6.123   2.615  0.00  0.00    +0.292 HD
ENDBRANCH  19  35
BRANCH  17  37
ATOM     37  O   LIG    1       -3.227   1.899   3.626  0.00  0.00    -0.506 OA
ATOM     38  H   LIG    1       -3.788   2.218   4.337  0.00  0.00    +0.292 HD
ENDBRANCH  17  37
ENDBRANCH  13  14
ENDBRANCH   2  13
BRANCH   6  39
ATOM     39  C   LIG    1        3.874   1.008  -2.477  0.00  0.00    +0.197 C 
BRANCH  39  40
ATOM     40  O   LIG    1        5.269   1.299  -2.538  0.00  0.00    -0.346 OA
BRANCH  40  41
ATOM     41  C   LIG    1        5.641   2.610  -2.213  0.00  0.00    +0.282 C 
ATOM     42  C   LIG    1        7.176   2.672  -2.159  0.00  0.00    +0.201 C 
ATOM     43  C   LIG    1        7.776   2.481  -3.573  0.00  0.00    +0.179 C 
ATOM     44  C   LIG    1        7.124   3.442  -4.590  0.00  0.00    +0.174 C 
ATOM     45  C   LIG    1        5.579   3.373  -4.485  0.00  0.00    +0.149 C 
ATOM     46  C   LIG    1        4.871   4.435  -5.343  0.00  0.00    +0.041 C 
ATOM     47  O   LIG    1        5.141   3.556  -3.131  0.00  0.00    -0.343 OA
BRANCH  44  48
ATOM     48  O   LIG    1        7.565   3.175  -5.911  0.00  0.00    -0.387 OA
ATOM     49  H   LIG    1        7.364   2.261  -6.123  0.00  0.00    +0.210 HD
ENDBRANCH  44  48
BRANCH  43  50
ATOM     50  O   LIG    1        9.191   2.577  -3.565  0.00  0.00    -0.386 OA
ATOM     51  H   LIG    1        9.558   1.720  -3.794  0.00  0.00    +0.210 HD
ENDBRANCH  43  50
BRANCH  42  52
ATOM     52  O   LIG    1        7.601   3.873  -1.536  0.00  0.00    -0.384 OA
ATOM     53  H   LIG    1        7.644   4.562  -2.203  0.00  0.00    +0.210 HD
ENDBRANCH  42  52
ENDBRANCH  40  41
ENDBRANCH  39  40
ENDBRANCH   6  39
TORSDOF 16
