REMARK  Name = DB01053
REMARK                            x       y       z     vdW  Elec       q    Type
REMARK                         _______ _______ _______ _____ _____    ______ ____
ROOT
ATOM      1  S   LIG    1        1.100  -1.550   2.353  0.00  0.00    -0.127 S 
ATOM      2  C   LIG    1        2.483  -2.725   2.467  0.00  0.00    +0.042 C 
ATOM      3  C   LIG    1        2.073  -4.045   3.152  0.00  0.00    +0.025 C 
ATOM      4  C   LIG    1        3.537  -2.033   3.382  0.00  0.00    +0.025 C 
ATOM      5  CA  LIG    1        2.964  -2.891   0.981  0.00  0.00    +0.201 C 
ATOM      6  N   LIG    1        2.705  -1.602   0.323  0.00  0.00    -0.271 N 
ATOM      7  C   LIG    1        1.947  -1.462  -0.845  0.00  0.00    +0.240 C 
ATOM      8  CA  LIG    1        1.269  -0.193  -0.284  0.00  0.00    +0.190 C 
ATOM      9  O   LIG    1        1.820  -2.151  -1.856  0.00  0.00    -0.273 OA
ATOM     10  C   LIG    1        1.928  -0.576   1.066  0.00  0.00    +0.165 C 
ENDROOT
BRANCH   8  11
ATOM     11  N   LIG    1       -0.191  -0.193  -0.385  0.00  0.00    -0.301 N 
ATOM     12  H   LIG    1       -0.590  -0.779  -1.104  0.00  0.00    +0.150 HD
ATOM     13  C   LIG    1       -1.005   0.637   0.291  0.00  0.00    +0.218 C 
ATOM     14  O   LIG    1       -0.600   1.482   1.091  0.00  0.00    -0.275 OA
BRANCH  13  15
ATOM     15  C   LIG    1       -2.509   0.497   0.019  0.00  0.00    +0.130 C 
BRANCH  15  16
ATOM     16  C   LIG    1       -3.075   1.739  -0.660  0.00  0.00    -0.039 A 
ATOM     17  C   LIG    1       -3.556   2.802   0.111  0.00  0.00    +0.004 A 
ATOM     18  C   LIG    1       -4.049   3.946  -0.511  0.00  0.00    +0.000 A 
ATOM     19  C   LIG    1       -4.054   4.027  -1.902  0.00  0.00    +0.000 A 
ATOM     20  C   LIG    1       -3.568   2.976  -2.677  0.00  0.00    +0.000 A 
ATOM     21  C   LIG    1       -3.075   1.832  -2.055  0.00  0.00    +0.004 A 
ENDBRANCH  15  16
ENDBRANCH  13  15
ENDBRANCH   8  11
BRANCH   5  22
ATOM     22  C   LIG    1        4.418  -3.386   0.819  0.00  0.00    +0.327 C 
ATOM     23  OXT LIG    1        5.335  -2.694   0.425  0.00  0.00    -0.249 OA
BRANCH  22  24
ATOM     24  O   LIG    1        4.508  -4.707   1.145  0.00  0.00    -0.479 OA
ATOM     25  H   LIG    1        5.399  -5.048   1.037  0.00  0.00    +0.295 HD
ENDBRANCH  22  24
ENDBRANCH   5  22
TORSDOF 5
