REMARK  Name = DB01194
REMARK                            x       y       z     vdW  Elec       q    Type
REMARK                         _______ _______ _______ _____ _____    ______ ____
ROOT
ATOM      1  S   LIG    1       -0.712   1.800  -0.096  0.00  0.00    +0.068 S 
ATOM      2  C   LIG    1       -0.581   1.948  -1.879  0.00  0.00    +0.149 A 
ATOM      3  C   LIG    1       -0.923   0.870  -2.683  0.00  0.00    +0.006 A 
ATOM      4  C   LIG    1       -0.755   1.192  -4.040  0.00  0.00    +0.043 A 
ATOM      5  C   LIG    1       -0.261   2.479  -4.242  0.00  0.00    +0.144 A 
ATOM      6  C   LIG    1       -1.445  -0.434  -2.070  0.00  0.00    +0.102 C 
ATOM      7  C   LIG    1       -0.504  -0.868  -0.895  0.00  0.00    +0.133 C 
ATOM      8  S   LIG    1       -0.026   3.336  -2.748  0.00  0.00    -0.048 S 
ATOM      9  N   LIG    1        0.072   0.209  -0.021  0.00  0.00    -0.174 NA
ATOM     10  O   LIG    1        0.101   2.826   0.567  0.00  0.00    -0.152 OA
ATOM     11  O   LIG    1       -2.128   1.668   0.266  0.00  0.00    -0.152 OA
ENDROOT
BRANCH   5  12
ATOM     12  S   LIG    1        0.078   3.233  -5.848  0.00  0.00    +0.062 S 
ATOM     13  O   LIG    1       -0.090   2.190  -6.866  0.00  0.00    -0.153 OA
ATOM     14  O   LIG    1       -0.666   4.496  -5.893  0.00  0.00    -0.153 OA
BRANCH  12  15
ATOM     15  N   LIG    1        1.786   3.593  -5.685  0.00  0.00    -0.203 NA
ATOM     16  H   LIG    1        2.399   2.775  -5.646  0.00  0.00    +0.144 HD
ATOM     17  H   LIG    1        2.011   4.316  -4.995  0.00  0.00    +0.144 HD
ENDBRANCH  12  15
ENDBRANCH   5  12
BRANCH   6  18
ATOM     18  N   LIG    1       -1.729  -1.511  -3.017  0.00  0.00    -0.308 NA
ATOM     19  H   LIG    1       -0.863  -1.935  -3.315  0.00  0.00    +0.123 HD
BRANCH  18  20
ATOM     20  C   LIG    1       -2.599  -2.542  -2.465  0.00  0.00    +0.078 C 
ATOM     21  C   LIG    1       -2.868  -3.608  -3.534  0.00  0.00    +0.020 C 
ENDBRANCH  18  20
ENDBRANCH   6  18
BRANCH   9  22
ATOM     22  C   LIG    1        1.548   0.193   0.151  0.00  0.00    +0.112 C 
BRANCH  22  23
ATOM     23  C   LIG    1        2.019  -1.014   0.985  0.00  0.00    +0.045 C 
BRANCH  23  24
ATOM     24  C   LIG    1        3.540  -1.034   1.202  0.00  0.00    +0.161 C 
BRANCH  24  25
ATOM     25  O   LIG    1        4.196  -1.155  -0.053  0.00  0.00    -0.383 OA
ATOM     26  C   LIG    1        5.611  -1.194   0.051  0.00  0.00    +0.193 C 
ENDBRANCH  24  25
ENDBRANCH  23  24
ENDBRANCH  22  23
ENDBRANCH   9  22
TORSDOF 8
