REMARK  Name = DB01149
REMARK                            x       y       z     vdW  Elec       q    Type
REMARK                         _______ _______ _______ _____ _____    ______ ____
ROOT
ATOM      1  N   LIG    1       -0.087  -0.497   0.623  0.00  0.00    -0.213 N 
ATOM      2  C   LIG    1       -0.751  -1.512   1.201  0.00  0.00    +0.347 A 
ATOM      3  N   LIG    1       -2.030  -1.139   0.997  0.00  0.00    -0.276 N 
ATOM      4  C   LIG    1       -2.046   0.118   0.498  0.00  0.00    +0.134 A 
ATOM      5  O   LIG    1       -0.307  -2.536   1.727  0.00  0.00    -0.245 OA
ATOM      6  N   LIG    1       -0.872   0.517   0.274  0.00  0.00    -0.154 NA
ENDROOT
BRANCH   4   7
ATOM      7  C   LIG    1       -3.353   0.880   0.266  0.00  0.00    +0.073 C 
ATOM      8  C   LIG    1       -3.150   2.279  -0.348  0.00  0.00    +0.012 C 
ENDBRANCH   4   7
BRANCH   1   9
ATOM      9  C   LIG    1        1.370  -0.431   0.470  0.00  0.00    +0.150 C 
BRANCH   9  10
ATOM     10  C   LIG    1        1.856  -1.000  -0.876  0.00  0.00    +0.039 C 
BRANCH  10  11
ATOM     11  C   LIG    1        3.381  -0.856  -1.068  0.00  0.00    +0.086 C 
BRANCH  11  15
ATOM     12  N   LIG    1        5.439  -2.286  -4.617  0.00  0.00    -0.327 N 
ATOM     13  C   LIG    1        5.959  -2.533  -3.257  0.00  0.00    +0.120 C 
ATOM     14  C   LIG    1        5.368  -1.598  -2.179  0.00  0.00    +0.103 C 
ATOM     15  N   LIG    1        3.908  -1.685  -2.158  0.00  0.00    -0.299 NA
ATOM     16  C   LIG    1        3.426  -1.250  -3.470  0.00  0.00    +0.103 C 
ATOM     17  C   LIG    1        3.967  -2.171  -4.588  0.00  0.00    +0.120 C 
BRANCH  12  23
ATOM     18 CL   LIG    1        9.921  -3.001  -7.023  0.00  0.00    -0.083 Cl
ATOM     19  C   LIG    1        8.205  -3.164  -6.934  0.00  0.00    +0.043 A 
ATOM     20  C   LIG    1        7.511  -3.785  -7.970  0.00  0.00    +0.020 A 
ATOM     21  C   LIG    1        6.126  -3.906  -7.900  0.00  0.00    +0.003 A 
ATOM     22  C   LIG    1        5.436  -3.412  -6.793  0.00  0.00    +0.023 A 
ATOM     23  C   LIG    1        6.116  -2.792  -5.729  0.00  0.00    +0.031 A 
ATOM     24  C   LIG    1        7.513  -2.672  -5.827  0.00  0.00    +0.043 A 
ENDBRANCH  12  23
ENDBRANCH  11  15
ENDBRANCH  10  11
ENDBRANCH   9  10
ENDBRANCH   1   9
BRANCH   3  25
ATOM     25  C   LIG    1       -3.154  -2.004   1.392  0.00  0.00    +0.169 C 
BRANCH  25  26
ATOM     26  C   LIG    1       -3.334  -3.242   0.481  0.00  0.00    +0.250 C 
BRANCH  26  27
ATOM     27  O   LIG    1       -3.435  -2.903  -0.903  0.00  0.00    -0.490 OA
BRANCH  27  28
ATOM     28  C   LIG    1       -4.564  -2.273  -1.391  0.00  0.00    +0.121 A 
ATOM     29  C   LIG    1       -5.758  -2.112  -0.670  0.00  0.00    +0.045 A 
ATOM     30  C   LIG    1       -6.843  -1.459  -1.248  0.00  0.00    +0.004 A 
ATOM     31  C   LIG    1       -6.741  -0.966  -2.547  0.00  0.00    +0.000 A 
ATOM     32  C   LIG    1       -5.564  -1.125  -3.273  0.00  0.00    +0.004 A 
ATOM     33  C   LIG    1       -4.481  -1.780  -2.695  0.00  0.00    +0.045 A 
ENDBRANCH  27  28
ENDBRANCH  26  27
ENDBRANCH  25  26
ENDBRANCH   3  25
TORSDOF 10
