REMARK  Name = DB01030
REMARK                            x       y       z     vdW  Elec       q    Type
REMARK                         _______ _______ _______ _____ _____    ______ ____
ROOT
ATOM      1  O   LIG    1       -4.830   9.383  -0.348  0.00  0.00    -0.457 OA
ATOM      2  C   LIG    1       -5.942   8.592  -0.429  0.00  0.00    +0.344 C 
ATOM      3  C   LIG    1       -5.812   7.116   0.037  0.00  0.00    +0.188 C 
ATOM      4  C   LIG    1       -4.376   6.576   0.027  0.00  0.00    +0.008 A 
ATOM      5  C   LIG    1       -4.074   5.146  -0.031  0.00  0.00    +0.035 A 
ATOM      6  C   LIG    1       -2.785   4.759  -0.001  0.00  0.00    +0.071 A 
ATOM      7  C   LIG    1       -2.165   3.430  -0.044  0.00  0.00    +0.093 A 
ATOM      8  C   LIG    1       -0.791   3.558   0.010  0.00  0.00    +0.000 A 
ATOM      9  C   LIG    1       -0.005   2.410  -0.020  0.00  0.00    +0.018 A 
ATOM     10  C   LIG    1       -0.630   1.128  -0.106  0.00  0.00    +0.009 A 
ATOM     11  C   LIG    1        0.078  -0.121  -0.140  0.00  0.00    +0.017 A 
ATOM     12  C   LIG    1       -0.643  -1.322  -0.215  0.00  0.00    +0.122 A 
ATOM     13  C   LIG    1       -2.034  -1.318  -0.257  0.00  0.00    +0.048 A 
ATOM     14  C   LIG    1       -2.746  -0.126  -0.228  0.00  0.00    +0.032 A 
ATOM     15  C   LIG    1       -2.065   1.109  -0.152  0.00  0.00    +0.072 A 
ATOM     16  C   LIG    1       -0.420   5.011   0.096  0.00  0.00    +0.162 C 
ATOM     17  N   LIG    1       -2.817   2.247  -0.123  0.00  0.00    -0.245 NA
ATOM     18  N   LIG    1       -1.736   5.646   0.083  0.00  0.00    -0.302 N 
ATOM     19  C   LIG    1       -1.922   7.004   0.151  0.00  0.00    +0.259 A 
ATOM     20  O   LIG    1       -0.976   7.791   0.230  0.00  0.00    -0.267 OA
ATOM     21  C   LIG    1       -3.329   7.443   0.132  0.00  0.00    +0.061 A 
ATOM     22  O   LIG    1       -6.941   9.130  -0.909  0.00  0.00    -0.247 OA
ATOM     23  C   LIG    1       -3.598   8.945   0.246  0.00  0.00    +0.273 C 
ENDROOT
BRANCH   3  24
ATOM     24  C   LIG    1       -6.452   6.941   1.450  0.00  0.00    +0.048 C 
ATOM     25  C   LIG    1       -5.790   7.711   2.611  0.00  0.00    +0.007 C 
ENDBRANCH   3  24
BRANCH  12  26
ATOM     26  O   LIG    1        0.001  -2.533  -0.249  0.00  0.00    -0.506 OA
ATOM     27  H   LIG    1       -0.603  -3.278  -0.285  0.00  0.00    +0.292 HD
ENDBRANCH  12  26
BRANCH   3  28
ATOM     28  O   LIG    1       -6.631   6.335  -0.824  0.00  0.00    -0.373 OA
ATOM     29  H   LIG    1       -6.289   6.407  -1.718  0.00  0.00    +0.211 HD
ENDBRANCH   3  28
BRANCH  11  30
ATOM     30  C   LIG    1        1.613  -0.149  -0.108  0.00  0.00    +0.123 C 
BRANCH  30  31
ATOM     31  N   LIG    1        2.151  -0.489   1.214  0.00  0.00    -0.304 NA
ATOM     32  C   LIG    1        1.940   0.579   2.188  0.00  0.00    +0.104 C 
ATOM     33  C   LIG    1        3.581  -0.764   1.112  0.00  0.00    +0.104 C 
ENDBRANCH  30  31
ENDBRANCH  11  30
TORSDOF 5
