REMARK  Name = DB01611
REMARK                            x       y       z     vdW  Elec       q    Type
REMARK                         _______ _______ _______ _____ _____    ______ ____
ROOT
ATOM      1  N   LIG    1        5.523  -1.359   2.539  0.00  0.00    -0.341 N 
ATOM      2  H   LIG    1        6.092  -0.632   2.950  0.00  0.00    +0.146 HD
ENDROOT
BRANCH   1  12
ATOM      3 CL   LIG    1       12.137  -2.776   1.510  0.00  0.00    -0.083 Cl
ATOM      4  C   LIG    1       10.419  -2.676   1.639  0.00  0.00    +0.043 A 
ATOM      5  C   LIG    1        9.836  -1.569   2.246  0.00  0.00    +0.021 A 
ATOM      6  C   LIG    1        8.452  -1.468   2.359  0.00  0.00    +0.013 A 
ATOM      7  C   LIG    1        7.604  -2.496   1.856  0.00  0.00    +0.021 A 
ATOM      8  C   LIG    1        8.215  -3.632   1.234  0.00  0.00    +0.074 A 
ATOM      9  N   LIG    1        7.485  -4.660   0.725  0.00  0.00    -0.255 NA
ATOM     10  C   LIG    1        6.138  -4.596   0.816  0.00  0.00    +0.113 A 
ATOM     11  C   LIG    1        5.456  -3.535   1.400  0.00  0.00    +0.043 A 
ATOM     12  C   LIG    1        6.173  -2.456   1.936  0.00  0.00    +0.038 A 
ATOM     13  C   LIG    1        9.626  -3.703   1.135  0.00  0.00    +0.048 A 
ENDBRANCH   1  12
BRANCH   1  14
ATOM     14  C   LIG    1        4.072  -1.204   2.630  0.00  0.00    +0.067 C 
ATOM     15  C   LIG    1        3.723  -0.238   3.777  0.00  0.00    +0.028 C 
BRANCH  14  16
ATOM     16  C   LIG    1        3.463  -0.751   1.279  0.00  0.00    +0.023 C 
BRANCH  16  17
ATOM     17  C   LIG    1        1.924  -0.796   1.221  0.00  0.00    +0.017 C 
BRANCH  17  18
ATOM     18  C   LIG    1        1.372  -0.487  -0.189  0.00  0.00    +0.084 C 
BRANCH  18  19
ATOM     19  N   LIG    1       -0.070  -0.211  -0.194  0.00  0.00    -0.300 NA
BRANCH  19  20
ATOM     20  C   LIG    1       -0.574  -0.308  -1.573  0.00  0.00    +0.081 C 
ATOM     21  C   LIG    1       -2.103  -0.202  -1.693  0.00  0.00    +0.020 C 
ENDBRANCH  19  20
BRANCH  19  22
ATOM     22  C   LIG    1       -0.353   1.091   0.440  0.00  0.00    +0.112 C 
BRANCH  22  23
ATOM     23  C   LIG    1       -1.578   1.056   1.376  0.00  0.00    +0.171 C 
BRANCH  23  24
ATOM     24  O   LIG    1       -1.317   0.284   2.531  0.00  0.00    -0.394 OA
ATOM     25  H   LIG    1       -2.104   0.278   3.080  0.00  0.00    +0.209 HD
ENDBRANCH  23  24
ENDBRANCH  22  23
ENDBRANCH  19  22
ENDBRANCH  18  19
ENDBRANCH  17  18
ENDBRANCH  16  17
ENDBRANCH  14  16
ENDBRANCH   1  14
TORSDOF 10
