REMARK  Name = DB01597
REMARK                            x       y       z     vdW  Elec       q    Type
REMARK                         _______ _______ _______ _____ _____    ______ ____
ROOT
ATOM      1  C   UNK A  1       -1.572   1.957  -0.753  0.00  0.00    +0.114 C 
ATOM      2  C   UNK A  1       -0.623   1.525   0.114  0.00  0.00    +0.003 C 
ENDROOT
BRANCH   1   5
ATOM      3  C   UNK A  0       -3.416   0.907  -1.968  0.00  0.00    +0.221 C 
ATOM      4  O   UNK A  0       -4.336   1.532  -1.433  0.00  0.00    -0.275 OA
ATOM      5  N   UNK A  1       -2.107   1.110  -1.695  0.00  0.00    -0.280 N 
ATOM      6  H   UNK A  1       -1.500   0.353  -1.974  0.00  0.00    +0.155 HD
BRANCH   3   7
ATOM      7  C   UNK A  0       -3.691  -0.197  -3.012  0.00  0.00    +0.081 C 
ATOM      8  C   UNK A  0       -5.105  -0.792  -3.028  0.00  0.00    +0.020 C 
ATOM      9  C   UNK A  0       -4.634   0.060  -4.181  0.00  0.00    -0.023 C 
ATOM     10  C   UNK A  0       -4.272  -0.649  -5.498  0.00  0.00    +0.011 C 
ATOM     11  C   UNK A  0       -5.266   1.453  -4.406  0.00  0.00    +0.011 C 
ENDBRANCH   3   7
ENDBRANCH   1   5
BRANCH   1  12
ATOM     12  C   UNK A  1       -1.975   3.361  -0.731  0.00  0.00    +0.351 C 
ATOM     13  O   UNK A  1       -2.239   4.012  -1.741  0.00  0.00    -0.244 OA
BRANCH  12  14
ATOM     14  O   UNK A  1       -2.070   3.878   0.531  0.00  0.00    -0.476 OA
ATOM     15  H   UNK A  1       -2.356   4.794   0.525  0.00  0.00    +0.295 HD
ENDBRANCH  12  14
ENDBRANCH   1  12
BRANCH   2  16
ATOM     16  C   UNK A  1       -0.063   0.113   0.223  0.00  0.00    +0.029 C 
BRANCH  16  17
ATOM     17  C   UNK A  1        1.417   0.024  -0.190  0.00  0.00    +0.005 C 
BRANCH  17  18
ATOM     18  C   UNK A  1        2.024  -1.387  -0.073  0.00  0.00    +0.011 C 
BRANCH  18  19
ATOM     19  C   UNK A  1        1.443  -2.408  -1.066  0.00  0.00    +0.069 C 
BRANCH  19  20
ATOM     20  S   UNK A  1        2.289  -4.012  -1.054  0.00  0.00    -0.159 S 
BRANCH  20  21
ATOM     21  C   UNK A  1        1.341  -4.882  -2.348  0.00  0.00    +0.099 C 
BRANCH  21  22
ATOM     22  C   UNK A  1        1.814  -6.330  -2.638  0.00  0.00    +0.170 C 
BRANCH  22  23
ATOM     23  N   UNK A  1        1.720  -7.208  -1.456  0.00  0.00    -0.318 NA
ATOM     24  H   UNK A  1        1.893  -8.172  -1.703  0.00  0.00    +0.119 HD
ATOM     25  H   UNK A  1        0.799  -7.169  -1.044  0.00  0.00    +0.119 HD
ENDBRANCH  22  23
BRANCH  22  26
ATOM     26  C   UNK A  1        3.253  -6.384  -3.204  0.00  0.00    +0.323 C 
ATOM     27  O   UNK A  1        4.233  -6.781  -2.571  0.00  0.00    -0.249 OA
BRANCH  26  28
ATOM     28  O   UNK A  1        3.285  -5.926  -4.490  0.00  0.00    -0.480 OA
ATOM     29  H   UNK A  1        4.171  -5.946  -4.859  0.00  0.00    +0.295 HD
ENDBRANCH  26  28
ENDBRANCH  22  26
ENDBRANCH  21  22
ENDBRANCH  20  21
ENDBRANCH  19  20
ENDBRANCH  18  19
ENDBRANCH  17  18
ENDBRANCH  16  17
ENDBRANCH   2  16
TORSDOF 14
