REMARK  Name = DB01088
REMARK                            x       y       z     vdW  Elec       q    Type
REMARK                         _______ _______ _______ _____ _____    ______ ____
ROOT
ATOM      1  C   LIG    1       -2.704   2.675   0.546  0.00  0.00    +0.122 C 
ATOM      2  C   LIG    1       -4.116   2.942   0.020  0.00  0.00    +0.036 C 
ATOM      3  C   LIG    1       -4.110   2.484  -1.453  0.00  0.00    -0.001 C 
ATOM      4  C   LIG    1       -5.320   1.634  -1.874  0.00  0.00    +0.034 C 
ATOM      5  C   LIG    1       -4.822   0.200  -1.748  0.00  0.00    -0.073 C 
ATOM      6  C   LIG    1       -5.449  -0.876  -1.235  0.00  0.00    -0.028 C 
ATOM      7  C   LIG    1       -3.385   0.275  -2.237  0.00  0.00    +0.035 C 
ATOM      8  C   LIG    1       -2.878   1.592  -1.633  0.00  0.00    +0.006 C 
ATOM      9  C   LIG    1       -2.228   1.445  -0.238  0.00  0.00    +0.044 C 
ENDROOT
BRANCH   1  10
ATOM     10  O   LIG    1       -2.619   2.578   1.954  0.00  0.00    -0.391 OA
ATOM     11  H   LIG    1       -2.688   1.652   2.199  0.00  0.00    +0.210 HD
ENDBRANCH   1  10
BRANCH   9  12
ATOM     12  C   LIG    1       -0.714   1.310  -0.296  0.00  0.00    -0.022 C 
ATOM     13  C   LIG    1       -0.027   0.240   0.139  0.00  0.00    +0.000 C 
BRANCH  13  14
ATOM     14  C   LIG    1        1.485   0.093   0.070  0.00  0.00    +0.141 C 
BRANCH  14  15
ATOM     15  C   LIG    1        1.970  -1.073  -0.850  0.00  0.00    +0.030 C 
ATOM     16  C   LIG    1        1.343  -0.979  -2.261  0.00  0.00    +0.011 C 
BRANCH  15  17
ATOM     17  C   LIG    1        3.517  -1.171  -0.992  0.00  0.00    +0.095 C 
BRANCH  17  18
ATOM     18  C   LIG    1        4.259  -1.679   0.178  0.00  0.00    -0.102 C 
ATOM     19  C   LIG    1        4.869  -2.110   1.144  0.00  0.00    -0.106 C 
ATOM     20  C   LIG    1        5.587  -2.629   2.316  0.00  0.00    +0.106 C 
ENDBRANCH  17  18
ENDBRANCH  15  17
ENDBRANCH  14  15
BRANCH  14  21
ATOM     21  O   LIG    1        1.917  -0.088   1.404  0.00  0.00    -0.387 OA
ATOM     22  H   LIG    1        1.663   0.685   1.913  0.00  0.00    +0.210 HD
ENDBRANCH  14  21
ENDBRANCH  13  14
ENDBRANCH   9  12
BRANCH   6  23
ATOM     23  C   LIG    1       -6.872  -0.922  -0.707  0.00  0.00    +0.027 C 
BRANCH  23  24
ATOM     24  C   LIG    1       -6.937  -1.043   0.825  0.00  0.00    +0.015 C 
BRANCH  24  25
ATOM     25  C   LIG    1       -8.385  -1.105   1.357  0.00  0.00    +0.121 C 
BRANCH  25  26
ATOM     26  C   LIG    1       -8.486  -1.238   2.882  0.00  0.00    +0.305 C 
ATOM     27  O   LIG    1       -7.518  -1.274   3.640  0.00  0.00    -0.251 OA
BRANCH  26  28
ATOM     28  O   LIG    1       -9.788  -1.309   3.283  0.00  0.00    -0.481 OA
ATOM     29  H   LIG    1       -9.871  -1.394   4.235  0.00  0.00    +0.295 HD
ENDBRANCH  26  28
ENDBRANCH  25  26
ENDBRANCH  24  25
ENDBRANCH  23  24
ENDBRANCH   6  23
TORSDOF 12
