REMARK  Name = DB01406
REMARK                            x       y       z     vdW  Elec       q    Type
REMARK                         _______ _______ _______ _____ _____    ______ ____
ROOT
ATOM      1  C   LIG    1        1.405   0.072   0.072  0.00  0.00    +0.132 C 
ATOM      2  C   LIG    1        2.009  -0.739   1.260  0.00  0.00    +0.049 C 
ATOM      3  C   LIG    1        3.213  -1.537   0.718  0.00  0.00    +0.008 C 
ATOM      4  C   LIG    1        3.322  -1.134  -0.758  0.00  0.00    +0.002 C 
ATOM      5  C   LIG    1        4.028  -2.087  -1.766  0.00  0.00    -0.003 C 
ATOM      6  C   LIG    1        5.459  -2.426  -1.313  0.00  0.00    +0.008 C 
ATOM      7  C   LIG    1        6.107  -3.433  -2.266  0.00  0.00    +0.032 C 
ATOM      8  C   LIG    1        6.162  -2.857  -3.683  0.00  0.00    -0.059 C 
ATOM      9  C   LIG    1        7.293  -2.929  -4.417  0.00  0.00    +0.049 C 
ATOM     10  C   LIG    1        7.303  -2.519  -5.793  0.00  0.00    +0.163 A 
ATOM     11  C   LIG    1        6.283  -1.801  -6.354  0.00  0.00    +0.019 A 
ATOM     12  C   LIG    1        6.670  -1.716  -7.689  0.00  0.00    +0.160 A 
ATOM     13  N   LIG    1        7.838  -2.274  -7.928  0.00  0.00    -0.086 NA
ATOM     14  C   LIG    1        5.071  -1.374  -5.544  0.00  0.00    +0.051 C 
ATOM     15  O   LIG    1        8.262  -2.805  -6.707  0.00  0.00    -0.355 OA
ATOM     16  C   LIG    1        4.824  -2.288  -4.270  0.00  0.00    -0.003 C 
ATOM     17  C   LIG    1        3.975  -3.517  -4.696  0.00  0.00    +0.016 C 
ATOM     18  C   LIG    1        4.097  -1.409  -3.174  0.00  0.00    +0.003 C 
ATOM     19  C   LIG    1        2.696  -0.875  -3.623  0.00  0.00    +0.005 C 
ATOM     20  C   LIG    1        2.015  -0.001  -2.543  0.00  0.00    +0.011 C 
ATOM     21  C   LIG    1        1.877  -0.759  -1.186  0.00  0.00    +0.011 C 
ATOM     22  C   LIG    1        0.950  -2.009  -1.370  0.00  0.00    +0.015 C 
ENDROOT
BRANCH   1  23
ATOM     23  O   LIG    1       -0.004   0.162   0.197  0.00  0.00    -0.376 OA
ATOM     24  H   LIG    1       -0.354   0.557  -0.605  0.00  0.00    +0.211 HD
ENDBRANCH   1  23
BRANCH   1  25
ATOM     25  C   LIG    1        1.884   1.480   0.115  0.00  0.00    -0.070 C 
ATOM     26  C   LIG    1        2.291   2.631   0.155  0.00  0.00    +0.007 C 
ENDBRANCH   1  25
TORSDOF 2
