REMARK  Name = DB01099
REMARK                            x       y       z     vdW  Elec       q    Type
REMARK                         _______ _______ _______ _____ _____    ______ ____
ROOT
ATOM      1  F   LIG    1        1.533   2.418   0.000  0.00  0.00    -0.200 F 
ATOM      2  C   LIG    1        2.164   1.223   0.000  0.00  0.00    +0.179 A 
ATOM      3  C   LIG    1        1.438  -0.027   0.000  0.00  0.00    +0.159 A 
ATOM      4  N   LIG    1        2.057  -1.162   0.000  0.00  0.00    -0.176 NA
ATOM      5  C   LIG    1        3.468  -1.247   0.000  0.00  0.00    +0.348 A 
ATOM      6  N   LIG    1        4.153  -0.065   0.000  0.00  0.00    -0.310 N 
ATOM      7  H   LIG    1        5.161  -0.122   0.000  0.00  0.00    +0.170 HD
ATOM      8  O   LIG    1        4.166  -2.257   0.000  0.00  0.00    -0.245 OA
ATOM      9  C   LIG    1        3.505   1.134   0.000  0.00  0.00    +0.129 A 
ENDROOT
BRANCH   3  10
ATOM     10  N   LIG    1        0.097   0.019   0.000  0.00  0.00    -0.341 N 
ATOM     11  H   LIG    1       -0.442  -0.834   0.000  0.00  0.00    +0.144 HD
ATOM     12  H   LIG    1       -0.386   0.906   0.000  0.00  0.00    +0.144 HD
ENDBRANCH   3  10
TORSDOF 1
