REMARK  Name = DB01656
REMARK                            x       y       z     vdW  Elec       q    Type
REMARK                         _______ _______ _______ _____ _____    ______ ____
ROOT
ATOM      1  C   LIG    1        3.472   1.382  -0.115  0.00  0.00    +0.041 A 
ATOM      2  C   LIG    1        4.156   0.161  -0.082  0.00  0.00    +0.017 A 
ATOM      3  C   LIG    1        3.463  -1.046  -0.046  0.00  0.00    +0.050 A 
ATOM      4  C   LIG    1        2.060  -1.068  -0.035  0.00  0.00    +0.168 A 
ATOM      5  C   LIG    1        1.356   0.144  -0.068  0.00  0.00    +0.163 A 
ATOM      6  C   LIG    1        2.068   1.356  -0.106  0.00  0.00    +0.062 A 
ENDROOT
BRANCH   1   9
ATOM      7  N   LIG    1        3.556   3.787  -0.495  0.00  0.00    -0.279 N 
ATOM      8  H   LIG    1        2.573   3.702  -0.708  0.00  0.00    +0.155 HD
ATOM      9  C   LIG    1        4.250   2.682  -0.150  0.00  0.00    +0.248 C 
ATOM     10  O   LIG    1        5.457   2.698   0.109  0.00  0.00    -0.270 OA
BRANCH   7  18
ATOM     11 CL   LIG    1        3.354   5.446   2.053  0.00  0.00    -0.080 Cl
ATOM     12  C   LIG    1        4.074   5.922   0.552  0.00  0.00    +0.082 A 
ATOM     13  C   LIG    1        4.636   7.195   0.434  0.00  0.00    +0.132 A 
ATOM     14  N   LIG    1        5.213   7.650  -0.706  0.00  0.00    -0.260 NA
ATOM     15  C   LIG    1        5.236   6.819  -1.778  0.00  0.00    +0.132 A 
ATOM     16  C   LIG    1        4.700   5.530  -1.758  0.00  0.00    +0.082 A 
ATOM     17 CL   LIG    1        4.775   4.556  -3.188  0.00  0.00    -0.080 Cl
ATOM     18  C   LIG    1        4.114   5.070  -0.565  0.00  0.00    +0.074 A 
ENDBRANCH   7  18
ENDBRANCH   1   9
BRANCH   5  19
ATOM     19  O   LIG    1       -0.026   0.064  -0.056  0.00  0.00    -0.488 OA
BRANCH  19  20
ATOM     20  C   LIG    1       -0.806   1.256  -0.064  0.00  0.00    +0.232 C 
BRANCH  20  21
ATOM     21  C   LIG    1       -2.288   0.859  -0.031  0.00  0.00    +0.027 C 
ATOM     22  C   LIG    1       -2.907   0.370   1.253  0.00  0.00    +0.007 C 
ATOM     23  C   LIG    1       -3.288   1.728   0.687  0.00  0.00    +0.007 C 
ENDBRANCH  20  21
ENDBRANCH  19  20
ENDBRANCH   5  19
BRANCH   4  24
ATOM     24  O   LIG    1        1.312  -2.232  -0.007  0.00  0.00    -0.431 OA
BRANCH  24  25
ATOM     25  C   LIG    1        1.951  -3.482   0.233  0.00  0.00    +0.541 C 
ATOM     26  F   LIG    1        1.031  -4.371   0.603  0.00  0.00    -0.166 F 
ATOM     27  F   LIG    1        2.561  -3.927  -0.867  0.00  0.00    -0.166 F 
ENDBRANCH  24  25
ENDBRANCH   4  24
TORSDOF 7
