REMARK  Name = DB01438
REMARK                            x       y       z     vdW  Elec       q    Type
REMARK                         _______ _______ _______ _____ _____    ______ ____
ROOT
ATOM      1  N   LIG    1        3.626  -0.933   0.866  0.00  0.00    -0.216 NA
ATOM      2  C   LIG    1        4.290  -0.099   0.034  0.00  0.00    +0.118 A 
ATOM      3  C   LIG    1        3.639   0.861  -0.735  0.00  0.00    +0.045 A 
ATOM      4  C   LIG    1        2.252   0.960  -0.636  0.00  0.00    +0.036 A 
ATOM      5  C   LIG    1        1.516   0.111   0.219  0.00  0.00    +0.126 A 
ATOM      6  C   LIG    1        2.275  -0.828   0.952  0.00  0.00    +0.146 A 
ENDROOT
BRANCH   2   7
ATOM      7  N   LIG    1        5.674  -0.228  -0.033  0.00  0.00    -0.343 N 
ATOM      8  H   LIG    1        6.130  -0.929   0.533  0.00  0.00    +0.144 HD
ATOM      9  H   LIG    1        6.204   0.382  -0.638  0.00  0.00    +0.144 HD
ENDBRANCH   2   7
BRANCH   6  10
ATOM     10  N   LIG    1        1.671  -1.728   1.834  0.00  0.00    -0.341 N 
ATOM     11  H   LIG    1        2.248  -2.384   2.339  0.00  0.00    +0.144 HD
ATOM     12  H   LIG    1        0.669  -1.709   1.952  0.00  0.00    +0.144 HD
ENDBRANCH   6  10
BRANCH   5  13
ATOM     13  N   LIG    1        0.112   0.153   0.373  0.00  0.00    -0.146 NA
ATOM     14  N   LIG    1       -0.506   1.018  -0.327  0.00  0.00    -0.149 NA
BRANCH  14  15
ATOM     15  C   LIG    1       -1.903   1.060  -0.170  0.00  0.00    +0.086 A 
ATOM     16  C   LIG    1       -2.649   0.253   0.713  0.00  0.00    +0.029 A 
ATOM     17  C   LIG    1       -4.034   0.370   0.799  0.00  0.00    +0.002 A 
ATOM     18  C   LIG    1       -4.698   1.298   0.004  0.00  0.00    +0.000 A 
ATOM     19  C   LIG    1       -3.986   2.106  -0.876  0.00  0.00    +0.002 A 
ATOM     20  C   LIG    1       -2.601   1.984  -0.957  0.00  0.00    +0.029 A 
ENDBRANCH  14  15
ENDBRANCH   5  13
TORSDOF 4
