REMARK  Name = DB01201
REMARK                            x       y       z     vdW  Elec       q    Type
REMARK                         _______ _______ _______ _____ _____    ______ ____
ROOT
ATOM      1  C   LIG    1       -2.723  -0.064  -0.273  0.00  0.00    +0.071 A 
ATOM      2  C   LIG    1       -4.166  -0.075  -0.369  0.00  0.00    +0.135 A 
ATOM      3  C   LIG    1       -4.894  -1.261  -0.241  0.00  0.00    +0.034 A 
ATOM      4  C   LIG    1       -6.420  -1.248  -0.328  0.00  0.00    +0.051 C 
ATOM      5  C   LIG    1       -4.204  -2.441  -0.017  0.00  0.00    +0.144 A 
ATOM      6  O   LIG    1       -4.851  -3.635   0.159  0.00  0.00    -0.444 OA
ATOM      7  C   LIG    1       -3.913  -4.644   0.238  0.00  0.00    +0.314 C 
ATOM      8  C   LIG    1       -4.052  -5.491  -1.026  0.00  0.00    +0.114 C 
ATOM      9  O   LIG    1       -4.156  -5.544   1.304  0.00  0.00    -0.453 OA
ATOM     10  C   LIG    1       -3.996  -5.204   2.617  0.00  0.00    +0.190 C 
ATOM     11  C   LIG    1       -3.975  -3.989   3.203  0.00  0.00    +0.042 C 
ATOM     12  C   LIG    1       -3.813  -3.777   4.707  0.00  0.00    +0.150 C 
ATOM     13  C   LIG    1       -2.672  -2.787   5.104  0.00  0.00    +0.060 C 
ATOM     14  C   LIG    1       -2.852  -1.327   4.563  0.00  0.00    +0.187 C 
ATOM     15  C   LIG    1       -1.756  -0.283   4.993  0.00  0.00    +0.056 C 
ATOM     16  C   LIG    1       -1.872   1.054   4.192  0.00  0.00    +0.126 C 
ATOM     17  C   LIG    1       -0.832   2.189   4.491  0.00  0.00    +0.044 C 
ATOM     18  C   LIG    1        0.683   1.767   4.476  0.00  0.00    +0.126 C 
ATOM     19  C   LIG    1        1.743   2.924   4.587  0.00  0.00    +0.037 C 
ATOM     20  C   LIG    1        3.099   2.421   5.118  0.00  0.00    +0.014 C 
ATOM     21  C   LIG    1        1.941   3.848   3.375  0.00  0.00    -0.021 C 
ATOM     22  C   LIG    1        1.813   3.511   2.079  0.00  0.00    -0.003 C 
ATOM     23  C   LIG    1        1.909   4.436   0.956  0.00  0.00    +0.008 C 
ATOM     24  C   LIG    1        1.595   4.184  -0.346  0.00  0.00    +0.012 C 
ATOM     25  C   LIG    1        1.058   2.919  -0.842  0.00  0.00    +0.244 C 
ATOM     26  N   LIG    1        0.080   2.390  -0.075  0.00  0.00    -0.278 N 
ATOM     27  H   LIG    1       -0.307   2.989   0.639  0.00  0.00    +0.155 HD
ATOM     28  C   LIG    1       -0.555   1.129  -0.205  0.00  0.00    +0.089 A 
ATOM     29  C   LIG    1        0.144  -0.089  -0.065  0.00  0.00    +0.061 A 
ATOM     30  C   LIG    1       -0.591  -1.293  -0.016  0.00  0.00    +0.136 A 
ATOM     31  O   LIG    1        1.480   2.384  -1.870  0.00  0.00    -0.270 OA
ATOM     32  C   LIG    1        1.774   5.233  -1.439  0.00  0.00    +0.049 C 
ATOM     33  C   LIG    1       -1.169   3.446   3.650  0.00  0.00    +0.013 C 
ATOM     34  C   LIG    1       -1.751  -0.045   6.523  0.00  0.00    +0.014 C 
ATOM     35  C   LIG    1       -1.296  -3.380   4.723  0.00  0.00    +0.014 C 
ATOM     36  C   LIG    1       -2.506  -3.943   0.335  0.00  0.00    +0.250 C 
ATOM     37  O   LIG    1       -1.491  -4.597   0.571  0.00  0.00    -0.284 OA
ATOM     38  C   LIG    1       -2.821  -2.513   0.061  0.00  0.00    +0.079 A 
ATOM     39  C   LIG    1       -1.952   1.147  -0.333  0.00  0.00    +0.150 A 
ATOM     40  C   LIG    1       -2.029  -1.311  -0.076  0.00  0.00    +0.046 A 
ENDROOT
BRANCH   2  41
ATOM     41  O   LIG    1       -4.887   1.078  -0.574  0.00  0.00    -0.506 OA
ATOM     42  H   LIG    1       -5.834   0.920  -0.595  0.00  0.00    +0.292 HD
ENDBRANCH   2  41
BRANCH  12  43
ATOM     43  O   LIG    1       -5.035  -3.352   5.311  0.00  0.00    -0.375 OA
ATOM     44  C   LIG    1       -6.115  -4.277   5.271  0.00  0.00    +0.194 C 
ENDBRANCH  12  43
BRANCH  16  45
ATOM     45  O   LIG    1       -1.863   0.767   2.805  0.00  0.00    -0.391 OA
ATOM     46  H   LIG    1       -0.975   0.510   2.549  0.00  0.00    +0.210 HD
ENDBRANCH  16  45
BRANCH  29  47
ATOM     47  C   LIG    1        1.621  -0.106   0.102  0.00  0.00    +0.143 C 
ATOM     48  N   LIG    1        2.398  -0.875  -0.546  0.00  0.00    -0.192 NA
BRANCH  48  49
ATOM     49  N   LIG    1        3.769  -0.777  -0.263  0.00  0.00    -0.253 N 
ATOM     50  C   LIG    1        4.216  -1.987   0.439  0.00  0.00    +0.141 C 
ATOM     51  C   LIG    1        5.736  -1.923   0.724  0.00  0.00    +0.105 C 
ATOM     52  N   LIG    1        6.498  -1.849  -0.535  0.00  0.00    -0.296 NA
ATOM     53  C   LIG    1        6.039  -0.632  -1.231  0.00  0.00    +0.105 C 
ATOM     54  C   LIG    1        4.521  -0.706  -1.520  0.00  0.00    +0.141 C 
BRANCH  52  55
ATOM     55  C   LIG    1        7.962  -1.786  -0.328  0.00  0.00    +0.057 C 
ATOM     56  C   LIG    1        8.579  -2.913   0.538  0.00  0.00    +0.019 C 
ATOM     57  C   LIG    1        8.711  -4.142  -0.365  0.00  0.00    +0.002 C 
ATOM     58  C   LIG    1        8.895  -3.578  -1.776  0.00  0.00    +0.002 C 
ATOM     59  C   LIG    1        8.749  -2.055  -1.635  0.00  0.00    +0.019 C 
ENDBRANCH  52  55
ENDBRANCH  48  49
ENDBRANCH  29  47
BRANCH  30  60
ATOM     60  O   LIG    1        0.097  -2.474   0.126  0.00  0.00    -0.505 OA
ATOM     61  H   LIG    1        1.050  -2.354   0.110  0.00  0.00    +0.292 HD
ENDBRANCH  30  60
BRANCH  18  62
ATOM     62  O   LIG    1        1.002   0.844   3.450  0.00  0.00    -0.391 OA
ATOM     63  H   LIG    1        0.447   0.068   3.557  0.00  0.00    +0.210 HD
ENDBRANCH  18  62
BRANCH  39  64
ATOM     64  O   LIG    1       -2.574   2.370  -0.475  0.00  0.00    -0.504 OA
ATOM     65  H   LIG    1       -3.529   2.288  -0.529  0.00  0.00    +0.292 HD
ENDBRANCH  39  64
BRANCH  14  66
ATOM     66  O   LIG    1       -4.134  -0.820   4.956  0.00  0.00    -0.461 OA
BRANCH  66  67
ATOM     67  C   LIG    1       -5.053  -0.396   4.057  0.00  0.00    +0.304 C 
ATOM     68  O   LIG    1       -4.923  -0.366   2.834  0.00  0.00    -0.251 OA
ATOM     69  C   LIG    1       -6.340   0.064   4.727  0.00  0.00    +0.136 C 
ENDBRANCH  66  67
ENDBRANCH  14  66
TORSDOF 11
