REMARK  Name = DB01632
REMARK                            x       y       z     vdW  Elec       q    Type
REMARK                         _______ _______ _______ _____ _____    ______ ____
ROOT
ATOM      1  O   LIG    1       -0.669   1.555  -0.003  0.00  0.00    -0.340 OA
ATOM      2  C   LIG    1       -0.701   2.035  -1.353  0.00  0.00    +0.179 C 
ATOM      3  C   LIG    1       -0.655   0.768  -2.239  0.00  0.00    +0.179 C 
ATOM      4  C   LIG    1       -0.748  -0.355  -1.209  0.00  0.00    +0.202 C 
ATOM      5  C   LIG    1       -0.085   0.255   0.022  0.00  0.00    +0.293 C 
ENDROOT
BRANCH   3   6
ATOM      6  O   LIG    1        0.521   0.724  -3.032  0.00  0.00    -0.386 OA
ATOM      7  H   LIG    1        0.629  -0.169  -3.368  0.00  0.00    +0.210 HD
ENDBRANCH   3   6
BRANCH   4   8
ATOM      8  O   LIG    1       -0.260  -1.623  -1.610  0.00  0.00    -0.384 OA
ATOM      9  H   LIG    1       -0.839  -1.973  -2.291  0.00  0.00    +0.210 HD
ENDBRANCH   4   8
BRANCH   2  10
ATOM     10  C   LIG    1       -1.962   2.904  -1.520  0.00  0.00    +0.206 C 
BRANCH  10  11
ATOM     11  O   LIG    1       -1.988   3.981  -0.594  0.00  0.00    -0.284 OA
BRANCH  11  12
ATOM     12  P   LIG    1       -1.129   5.343  -0.855  0.00  0.00    +0.472 P 
ATOM     13  O   LIG    1       -1.274   5.944  -2.209  0.00  0.00    -0.228 OA
BRANCH  12  14
ATOM     14  O   LIG    1       -1.587   6.302   0.372  0.00  0.00    -0.303 OA
ATOM     15  H   LIG    1       -1.930   7.180   0.118  0.00  0.00    +0.222 HD
ENDBRANCH  12  14
BRANCH  12  16
ATOM     16  O   LIG    1        0.384   4.923  -0.441  0.00  0.00    -0.303 OA
ATOM     17  H   LIG    1        0.488   4.492   0.430  0.00  0.00    +0.222 HD
ENDBRANCH  12  16
ENDBRANCH  11  12
ENDBRANCH  10  11
ENDBRANCH   2  10
BRANCH   5  18
ATOM     18  O   LIG    1        1.328   0.347  -0.130  0.00  0.00    -0.254 OA
BRANCH  18  19
ATOM     19  P   LIG    1        2.223   1.269   0.874  0.00  0.00    +0.486 P 
ATOM     20  O   LIG    1        1.845   2.708   0.949  0.00  0.00    -0.227 OA
BRANCH  19  21
ATOM     21  O   LIG    1        2.148   0.465   2.283  0.00  0.00    -0.302 OA
ATOM     22  H   LIG    1        1.947   1.006   3.071  0.00  0.00    +0.222 HD
ENDBRANCH  19  21
BRANCH  19  23
ATOM     23  O   LIG    1        3.739   0.982   0.367  0.00  0.00    -0.186 OA
BRANCH  23  24
ATOM     24  P   LIG    1        5.133   1.622   0.897  0.00  0.00    +0.481 P 
ATOM     25  O   LIG    1        5.348   1.559   2.369  0.00  0.00    -0.227 OA
BRANCH  24  26
ATOM     26  O   LIG    1        5.117   3.117   0.266  0.00  0.00    -0.302 OA
ATOM     27  H   LIG    1        5.199   3.849   0.907  0.00  0.00    +0.222 HD
ENDBRANCH  24  26
BRANCH  24  28
ATOM     28  O   LIG    1        6.248   0.858  -0.002  0.00  0.00    -0.302 OA
ATOM     29  H   LIG    1        6.113   0.893  -0.969  0.00  0.00    +0.222 HD
ENDBRANCH  24  28
ENDBRANCH  23  24
ENDBRANCH  19  23
ENDBRANCH  18  19
ENDBRANCH   5  18
TORSDOF 14
