REMARK  Name = DB01190
REMARK                            x       y       z     vdW  Elec       q    Type
REMARK                         _______ _______ _______ _____ _____    ______ ____
ROOT
ATOM      1  C   LIG    1        1.168  -0.090   0.441  0.00  0.00    +0.122 C 
ENDROOT
BRANCH   1   2
ATOM      2  C   LIG    1       -0.255   0.021  -0.185  0.00  0.00    +0.172 C 
ATOM      3  C   LIG    1       -0.366  -0.479  -1.656  0.00  0.00    +0.176 C 
ATOM      4  C   LIG    1       -1.808  -0.275  -2.183  0.00  0.00    +0.177 C 
ATOM      5  C   LIG    1       -2.262   1.191  -1.980  0.00  0.00    +0.184 C 
ATOM      6  C   LIG    1       -2.034   1.663  -0.520  0.00  0.00    +0.207 C 
ATOM      7  O   LIG    1       -0.685   1.389  -0.123  0.00  0.00    -0.356 OA
BRANCH   3   8
ATOM      8  O   LIG    1        0.598   0.135  -2.499  0.00  0.00    -0.387 OA
ATOM      9  H   LIG    1        1.464  -0.223  -2.287  0.00  0.00    +0.210 HD
ENDBRANCH   3   8
BRANCH   4  10
ATOM     10  O   LIG    1       -1.949  -0.712  -3.524  0.00  0.00    -0.386 OA
ATOM     11  H   LIG    1       -1.375  -0.177  -4.078  0.00  0.00    +0.210 HD
ENDBRANCH   4  10
BRANCH   6  12
ATOM     12  S   LIG    1       -3.229   0.964   0.676  0.00  0.00    -0.131 S 
ATOM     13  C   LIG    1       -2.821   1.947   2.143  0.00  0.00    +0.087 C 
ENDBRANCH   6  12
BRANCH   5  14
ATOM     14  O   LIG    1       -3.591   1.426  -2.414  0.00  0.00    -0.386 OA
ATOM     15  H   LIG    1       -4.192   1.160  -1.713  0.00  0.00    +0.210 HD
ENDBRANCH   5  14
ENDBRANCH   1   2
BRANCH   1  16
ATOM     16  N   LIG    1        1.696  -1.462   0.371  0.00  0.00    -0.307 N 
ATOM     17  H   LIG    1        1.331  -2.105   1.059  0.00  0.00    +0.149 HD
ATOM     18  C   LIG    1        2.631  -1.915  -0.484  0.00  0.00    +0.231 C 
ATOM     19  O   LIG    1        3.170  -1.200  -1.332  0.00  0.00    -0.274 OA
BRANCH  18  20
ATOM     20  C   LIG    1        3.026  -3.401  -0.328  0.00  0.00    +0.143 C 
ATOM     21  C   LIG    1        4.242  -3.533   0.599  0.00  0.00    +0.033 C 
ATOM     22  C   LIG    1        4.827  -4.888   0.197  0.00  0.00    +0.005 C 
ATOM     23  C   LIG    1        4.561  -4.924  -1.321  0.00  0.00    +0.088 C 
ATOM     24  N   LIG    1        3.450  -4.012  -1.591  0.00  0.00    -0.294 NA
ATOM     25  C   LIG    1        2.362  -4.604  -2.363  0.00  0.00    +0.105 C 
BRANCH  22  26
ATOM     26  C   LIG    1        4.207  -6.079   0.971  0.00  0.00    +0.004 C 
BRANCH  26  27
ATOM     27  C   LIG    1        4.916  -7.424   0.724  0.00  0.00    -0.003 C 
ATOM     28  C   LIG    1        4.306  -8.576   1.534  0.00  0.00    +0.004 C 
ENDBRANCH  26  27
ENDBRANCH  22  26
ENDBRANCH  18  20
ENDBRANCH   1  16
BRANCH   1  29
ATOM     29  C   LIG    1        1.235   0.455   1.897  0.00  0.00    +0.100 C 
ATOM     30  C   LIG    1        2.662   0.520   2.471  0.00  0.00    +0.026 C 
ATOM     31 CL   LIG    1        0.216  -0.515   3.002  0.00  0.00    -0.120 Cl
ENDBRANCH   1  29
TORSDOF 10
