REMARK  Name = DB01612
REMARK                            x       y       z     vdW  Elec       q    Type
REMARK                         _______ _______ _______ _____ _____    ______ ____
ROOT
ATOM      1  C   LIG    1        1.540  -0.031   0.013  0.00  0.00    +0.044 C 
ENDROOT
BRANCH   1   2
ATOM      2  C   LIG    1       -0.001   0.011  -0.020  0.00  0.00    +0.003 C 
BRANCH   2   3
ATOM      3  C   LIG    1       -0.564   1.443   0.012  0.00  0.00    -0.003 C 
ATOM      4  C   LIG    1       -2.098   1.482  -0.008  0.00  0.00    +0.004 C 
ENDBRANCH   2   3
ENDBRANCH   1   2
BRANCH   1   5
ATOM      5  C   LIG    1        2.127  -1.455   0.008  0.00  0.00    +0.266 C 
BRANCH   5   6
ATOM      6  O   LIG    1        1.824  -2.108  -1.219  0.00  0.00    -0.363 OA
BRANCH   6   7
ATOM      7  N   LIG    1        2.346  -3.408  -1.189  0.00  0.00    +0.155 NA
ATOM      8  O   LIG    1        2.055  -3.889  -2.233  0.00  0.00    -0.105 OA
ENDBRANCH   6   7
ENDBRANCH   5   6
ENDBRANCH   1   5
TORSDOF 5
