REMARK  Name = DB01322
REMARK                            x       y       z     vdW  Elec       q    Type
REMARK                         _______ _______ _______ _____ _____    ______ ____
ROOT
ATOM      1  O   LIG    1        4.118   0.617  -0.167  0.00  0.00    -0.454 OA
ATOM      2  C   LIG    1        3.524   0.717  -1.405  0.00  0.00    +0.336 C 
ATOM      3  C   LIG    1        2.110   0.356  -1.489  0.00  0.00    +0.132 C 
ATOM      4  C   LIG    1        1.384   0.067  -0.396  0.00  0.00    +0.108 C 
ATOM      5  C   LIG    1        1.980   0.025   1.008  0.00  0.00    +0.123 C 
ATOM      6  O   LIG    1        4.235   1.132  -2.316  0.00  0.00    -0.245 OA
ATOM      7  C   LIG    1        3.511  -0.177   0.874  0.00  0.00    +0.207 C 
ENDROOT
BRANCH   4   8
ATOM      8  O   LIG    1        0.070  -0.267  -0.491  0.00  0.00    -0.499 OA
ATOM      9  C   LIG    1       -0.823   0.302   0.464  0.00  0.00    +0.276 C 
ENDBRANCH   4   8
BRANCH   7  10
ATOM     10  C   LIG    1        4.187   0.062   2.221  0.00  0.00    +0.018 C 
ATOM     11  C   LIG    1        5.158   0.961   2.486  0.00  0.00    +0.007 C 
BRANCH  11  12
ATOM     12  C   LIG    1        5.798   1.190   3.781  0.00  0.00    -0.029 C 
ATOM     13  C   LIG    1        5.414   0.471   4.989  0.00  0.00    +0.003 C 
ATOM     14  C   LIG    1        6.001   0.653   6.183  0.00  0.00    -0.026 C 
ATOM     15  C   LIG    1        7.143   1.634   6.414  0.00  0.00    +0.031 C 
ATOM     16  C   LIG    1        7.545   2.461   5.152  0.00  0.00    +0.032 C 
ATOM     17  C   LIG    1        6.785   2.108   3.873  0.00  0.00    -0.019 C 
ENDBRANCH  11  12
ENDBRANCH   7  10
TORSDOF 3
