REMARK  Name = DB01204
REMARK                            x       y       z     vdW  Elec       q    Type
REMARK                         _______ _______ _______ _____ _____    ______ ____
ROOT
ATOM      1  C   LIG    1        0.210   4.431   0.393  0.00  0.00    +0.129 A 
ATOM      2  C   LIG    1       -0.580   3.306   0.053  0.00  0.00    +0.078 A 
ATOM      3  C   LIG    1        0.036   2.049  -0.511  0.00  0.00    +0.200 C 
ATOM      4  O   LIG    1        1.161   2.058  -1.017  0.00  0.00    -0.286 OA
ATOM      5  C   LIG    1       -0.725   0.758  -0.245  0.00  0.00    +0.056 A 
ATOM      6  C   LIG    1       -0.059  -0.499  -0.172  0.00  0.00    +0.039 A 
ATOM      7  C   LIG    1       -0.812  -1.653   0.051  0.00  0.00    +0.025 A 
ATOM      8  C   LIG    1       -2.181  -1.597   0.223  0.00  0.00    +0.025 A 
ATOM      9  C   LIG    1       -2.867  -0.382   0.185  0.00  0.00    +0.039 A 
ATOM     10  C   LIG    1       -2.141   0.819  -0.057  0.00  0.00    +0.056 A 
ATOM     11  C   LIG    1       -2.836   2.172  -0.110  0.00  0.00    +0.200 C 
ATOM     12  O   LIG    1       -4.053   2.282  -0.281  0.00  0.00    -0.286 OA
ATOM     13  C   LIG    1       -1.985   3.366   0.251  0.00  0.00    +0.078 A 
ATOM     14  C   LIG    1       -2.553   4.547   0.786  0.00  0.00    +0.129 A 
ATOM     15  C   LIG    1       -1.750   5.638   1.103  0.00  0.00    +0.050 A 
ATOM     16  C   LIG    1       -0.380   5.580   0.907  0.00  0.00    +0.050 A 
ENDROOT
BRANCH   1  17
ATOM     17  O   LIG    1        1.577   4.456   0.255  0.00  0.00    -0.506 OA
ATOM     18  H   LIG    1        1.968   5.287   0.532  0.00  0.00    +0.292 HD
ENDBRANCH   1  17
BRANCH   6  19
ATOM     19  N   LIG    1        1.349  -0.596  -0.295  0.00  0.00    -0.342 N 
ATOM     20  H   LIG    1        1.707   0.147  -0.879  0.00  0.00    +0.146 HD
BRANCH  19  21
ATOM     21  C   LIG    1        2.049  -1.868  -0.477  0.00  0.00    +0.116 C 
BRANCH  21  22
ATOM     22  C   LIG    1        2.331  -2.638   0.831  0.00  0.00    +0.099 C 
BRANCH  22  23
ATOM     23  N   LIG    1        3.279  -1.907   1.662  0.00  0.00    -0.312 NA
ATOM     24  H   LIG    1        4.138  -1.743   1.156  0.00  0.00    +0.122 HD
BRANCH  23  25
ATOM     25  C   LIG    1        3.566  -2.630   2.895  0.00  0.00    +0.108 C 
BRANCH  25  26
ATOM     26  C   LIG    1        4.589  -1.873   3.760  0.00  0.00    +0.171 C 
BRANCH  26  27
ATOM     27  O   LIG    1        5.857  -1.822   3.135  0.00  0.00    -0.394 OA
ATOM     28  H   LIG    1        6.456  -1.327   3.700  0.00  0.00    +0.209 HD
ENDBRANCH  26  27
ENDBRANCH  25  26
ENDBRANCH  23  25
ENDBRANCH  22  23
ENDBRANCH  21  22
ENDBRANCH  19  21
ENDBRANCH   6  19
BRANCH   9  29
ATOM     29  N   LIG    1       -4.263  -0.375   0.409  0.00  0.00    -0.342 N 
ATOM     30  H   LIG    1       -4.745   0.485   0.188  0.00  0.00    +0.146 HD
BRANCH  29  31
ATOM     31  C   LIG    1       -5.081  -1.586   0.455  0.00  0.00    +0.116 C 
BRANCH  31  32
ATOM     32  C   LIG    1       -6.573  -1.309   0.707  0.00  0.00    +0.099 C 
BRANCH  32  33
ATOM     33  N   LIG    1       -6.780  -0.780   2.050  0.00  0.00    -0.312 NA
ATOM     34  H   LIG    1       -6.238   0.066   2.164  0.00  0.00    +0.122 HD
BRANCH  33  35
ATOM     35  C   LIG    1       -8.191  -0.503   2.288  0.00  0.00    +0.108 C 
BRANCH  35  36
ATOM     36  C   LIG    1       -8.420   0.074   3.697  0.00  0.00    +0.171 C 
BRANCH  36  37
ATOM     37  O   LIG    1       -8.121  -0.880   4.696  0.00  0.00    -0.394 OA
ATOM     38  H   LIG    1       -7.183  -1.081   4.649  0.00  0.00    +0.209 HD
ENDBRANCH  36  37
ENDBRANCH  35  36
ENDBRANCH  33  35
ENDBRANCH  32  33
ENDBRANCH  31  32
ENDBRANCH  29  31
ENDBRANCH   9  29
BRANCH  14  39
ATOM     39  O   LIG    1       -3.897   4.687   1.035  0.00  0.00    -0.506 OA
ATOM     40  H   LIG    1       -4.123   5.546   1.400  0.00  0.00    +0.292 HD
ENDBRANCH  14  39
TORSDOF 16
