REMARK  Name = DB01059
REMARK                            x       y       z     vdW  Elec       q    Type
REMARK                         _______ _______ _______ _____ _____    ______ ____
ROOT
ATOM      1  F   LIG    1       -2.453   4.852   0.019  0.00  0.00    -0.204 F 
ATOM      2  C   LIG    1       -1.825   3.652  -0.003  0.00  0.00    +0.145 A 
ATOM      3  C   LIG    1       -2.589   2.487  -0.005  0.00  0.00    +0.054 A 
ATOM      4  C   LIG    1       -1.990   1.218  -0.023  0.00  0.00    +0.049 A 
ATOM      5  C   LIG    1       -2.869  -0.013  -0.010  0.00  0.00    +0.203 A 
ATOM      6  C   LIG    1       -2.125  -1.308  -0.013  0.00  0.00    +0.122 A 
ATOM      7  C   LIG    1       -0.764  -1.279  -0.043  0.00  0.00    +0.105 A 
ATOM      8  N   LIG    1        0.030  -0.143  -0.068  0.00  0.00    -0.346 N 
ATOM      9  O   LIG    1       -4.099   0.098   0.005  0.00  0.00    -0.286 OA
ATOM     10  C   LIG    1       -0.578   1.139  -0.046  0.00  0.00    +0.055 A 
ATOM     11  C   LIG    1        0.181   2.320  -0.045  0.00  0.00    +0.052 A 
ATOM     12  C   LIG    1       -0.430   3.578  -0.023  0.00  0.00    +0.067 A 
ENDROOT
BRANCH  12  13
ATOM     13  N   LIG    1        0.327   4.738  -0.015  0.00  0.00    -0.325 N 
ATOM     14  C   LIG    1        1.115   5.049  -1.220  0.00  0.00    +0.120 C 
ATOM     15  C   LIG    1        1.752   6.457  -1.183  0.00  0.00    +0.100 C 
ATOM     16  N   LIG    1        2.586   6.626  -0.000  0.00  0.00    -0.313 NA
ATOM     17  H   LIG    1        2.982   7.555   0.009  0.00  0.00    +0.122 HD
ATOM     18  C   LIG    1        1.761   6.429   1.184  0.00  0.00    +0.100 C 
ATOM     19  C   LIG    1        1.121   5.022   1.192  0.00  0.00    +0.120 C 
ENDBRANCH  12  13
BRANCH   6  20
ATOM     20  C   LIG    1       -2.839  -2.590   0.013  0.00  0.00    +0.342 C 
ATOM     21  O   LIG    1       -4.064  -2.704   0.040  0.00  0.00    -0.245 OA
BRANCH  20  22
ATOM     22  O   LIG    1       -2.027  -3.692   0.006  0.00  0.00    -0.477 OA
ATOM     23  H   LIG    1       -2.530  -4.509   0.024  0.00  0.00    +0.295 HD
ENDBRANCH  20  22
ENDBRANCH   6  20
BRANCH   8  24
ATOM     24  C   LIG    1        1.484  -0.331   0.021  0.00  0.00    +0.118 C 
ATOM     25  C   LIG    1        2.030  -0.176   1.449  0.00  0.00    +0.027 C 
ENDBRANCH   8  24
TORSDOF 4
