REMARK  Name = DB01183
REMARK                            x       y       z     vdW  Elec       q    Type
REMARK                         _______ _______ _______ _____ _____    ______ ____
ROOT
ATOM      1  C   LIG    1       -2.661   1.525  -1.151  0.00  0.00    -0.038 A 
ATOM      2  C   LIG    1       -2.018   1.542  -2.389  0.00  0.00    +0.014 A 
ATOM      3  C   LIG    1       -2.695   1.547  -3.582  0.00  0.00    +0.167 A 
ATOM      4  O   LIG    1       -1.835   1.766  -4.637  0.00  0.00    -0.476 OA
ATOM      5  C   LIG    1       -0.583   2.216  -4.060  0.00  0.00    +0.252 C 
ATOM      6  C   LIG    1       -0.567   3.771  -4.037  0.00  0.00    +0.175 C 
ATOM      7  O   LIG    1       -1.199   4.448  -4.847  0.00  0.00    -0.293 OA
ATOM      8  C   LIG    1        0.224   4.427  -2.896  0.00  0.00    +0.081 C 
ATOM      9  C   LIG    1       -0.104   3.793  -1.522  0.00  0.00    +0.045 C 
ATOM     10  C   LIG    1        0.180   2.266  -1.471  0.00  0.00    +0.096 C 
ATOM     11  C   LIG    1       -0.287   1.523  -0.152  0.00  0.00    +0.094 C 
ATOM     12  N   LIG    1        0.058   0.076  -0.162  0.00  0.00    -0.293 NA
ATOM     13  C   LIG    1       -0.305  -0.678  -1.381  0.00  0.00    +0.086 C 
ATOM     14  C   LIG    1       -0.015   0.080  -2.698  0.00  0.00    +0.034 C 
ATOM     15  C   LIG    1       -4.078   1.392  -3.611  0.00  0.00    +0.159 A 
ATOM     16  C   LIG    1       -4.758   1.297  -2.388  0.00  0.00    +0.049 A 
ATOM     17  C   LIG    1       -0.537   1.548  -2.654  0.00  0.00    +0.075 C 
ATOM     18  C   LIG    1       -4.057   1.383  -1.172  0.00  0.00    +0.008 A 
ATOM     19  C   LIG    1       -1.819   1.712   0.118  0.00  0.00    +0.057 C 
ENDROOT
BRANCH  10  20
ATOM     20  O   LIG    1        1.589   2.172  -1.667  0.00  0.00    -0.386 OA
ATOM     21  H   LIG    1        2.028   2.602  -0.929  0.00  0.00    +0.210 HD
ENDBRANCH  10  20
BRANCH  15  22
ATOM     22  O   LIG    1       -4.755   1.368  -4.802  0.00  0.00    -0.503 OA
ATOM     23  H   LIG    1       -5.704   1.275  -4.692  0.00  0.00    +0.292 HD
ENDBRANCH  15  22
BRANCH  12  24
ATOM     24  C   LIG    1        1.409  -0.208   0.335  0.00  0.00    +0.111 C 
BRANCH  24  25
ATOM     25  C   LIG    1        1.404  -0.983   1.636  0.00  0.00    -0.019 C 
ATOM     26  C   LIG    1        1.987  -0.569   2.771  0.00  0.00    +0.005 C 
ENDBRANCH  24  25
ENDBRANCH  12  24
TORSDOF 4
