REMARK  Name = DB01133
REMARK                            x       y       z     vdW  Elec       q    Type
REMARK                         _______ _______ _______ _____ _____    ______ ____
ROOT
ATOM      1  C   LIG    1        1.308  -0.194  -0.069  0.00  0.00    +0.278 C 
ENDROOT
BRANCH   1   2
ATOM      2  P   LIG    1        2.627   0.117   1.227  0.00  0.00    +0.353 P 
ATOM      3  O   LIG    1        3.203   1.514   1.260  0.00  0.00    -0.257 OA
BRANCH   2   4
ATOM      4  O   LIG    1        1.824  -0.328   2.675  0.00  0.00    -0.323 OA
ATOM      5  H   LIG    1        2.085  -0.003   3.558  0.00  0.00    +0.220 HD
ENDBRANCH   2   4
BRANCH   2   6
ATOM      6  O   LIG    1        3.780  -1.107   0.888  0.00  0.00    -0.323 OA
ATOM      7  H   LIG    1        4.223  -1.212   0.024  0.00  0.00    +0.220 HD
ENDBRANCH   2   6
ENDBRANCH   1   2
BRANCH   1   8
ATOM      8  P   LIG    1       -0.417   0.508   0.108  0.00  0.00    +0.353 P 
ATOM      9  O   LIG    1       -0.528   2.015   0.065  0.00  0.00    -0.257 OA
BRANCH   8  10
ATOM     10  O   LIG    1       -1.247  -0.292  -1.163  0.00  0.00    -0.323 OA
ATOM     11  H   LIG    1       -2.071   0.043  -1.565  0.00  0.00    +0.220 HD
ENDBRANCH   8  10
BRANCH   8  12
ATOM     12  O   LIG    1       -0.931  -0.196   1.585  0.00  0.00    -0.323 OA
ATOM     13  H   LIG    1       -0.360  -0.749   2.152  0.00  0.00    +0.220 HD
ENDBRANCH   8  12
ENDBRANCH   1   8
BRANCH   1  14
ATOM     14  S   LIG    1        1.938   0.274  -1.712  0.00  0.00    -0.097 S 
BRANCH  14  19
ATOM     15 CL   LIG    1        6.636  -3.657  -3.019  0.00  0.00    -0.084 Cl
ATOM     16  C   LIG    1        5.339  -2.575  -2.665  0.00  0.00    +0.041 A 
ATOM     17  C   LIG    1        4.055  -3.080  -2.462  0.00  0.00    +0.021 A 
ATOM     18  C   LIG    1        3.008  -2.208  -2.174  0.00  0.00    +0.016 A 
ATOM     19  C   LIG    1        3.256  -0.838  -2.089  0.00  0.00    +0.009 A 
ATOM     20  C   LIG    1        4.539  -0.332  -2.297  0.00  0.00    +0.016 A 
ATOM     21  C   LIG    1        5.585  -1.205  -2.584  0.00  0.00    +0.021 A 
ENDBRANCH  14  19
ENDBRANCH   1  14
TORSDOF 8
