REMARK  Name = DB01230
REMARK                            x       y       z     vdW  Elec       q    Type
REMARK                         _______ _______ _______ _____ _____    ______ ____
ROOT
ATOM      1  O   LIG    1        2.158   1.139   0.068  0.00  0.00    -0.450 OA
ATOM      2  C   LIG    1        1.394   0.013   0.079  0.00  0.00    +0.272 C 
ATOM      3  N   LIG    1        1.998  -1.095  -0.067  0.00  0.00    -0.128 NA
ATOM      4  C   LIG    1        3.329  -0.777  -0.201  0.00  0.00    +0.286 C 
ATOM      5  O   LIG    1        4.258  -1.565  -0.377  0.00  0.00    -0.269 OA
ATOM      6  C   LIG    1        3.488   0.733  -0.088  0.00  0.00    +0.294 C 
ENDROOT
BRANCH   6   7
ATOM      7  C   LIG    1        4.185   1.370  -1.294  0.00  0.00    +0.002 A 
ATOM      8  C   LIG    1        3.625   1.281  -2.575  0.00  0.00    +0.008 A 
ATOM      9  C   LIG    1        4.266   1.871  -3.661  0.00  0.00    +0.000 A 
ATOM     10  C   LIG    1        5.465   2.553  -3.467  0.00  0.00    +0.000 A 
ATOM     11  C   LIG    1        6.028   2.651  -2.197  0.00  0.00    +0.000 A 
ATOM     12  C   LIG    1        5.387   2.061  -1.111  0.00  0.00    +0.008 A 
ENDBRANCH   6   7
BRANCH   2  13
ATOM     13  N   LIG    1        0.049   0.236   0.249  0.00  0.00    -0.315 N 
ATOM     14  H   LIG    1       -0.305   1.175   0.354  0.00  0.00    +0.146 HD
ATOM     15  H   LIG    1       -0.598  -0.538   0.270  0.00  0.00    +0.146 HD
ENDBRANCH   2  13
TORSDOF 2
