REMARK  Name = DB01166
REMARK                            x       y       z     vdW  Elec       q    Type
REMARK                         _______ _______ _______ _____ _____    ______ ____
ROOT
ATOM      1  C   LIG    1        2.241  -1.424  -0.028  0.00  0.00    +0.229 C 
ENDROOT
BRANCH   1   2
ATOM      2  O   LIG    1        1.734  -2.224   1.038  0.00  0.00    -0.492 OA
BRANCH   2   3
ATOM      3  C   LIG    1        2.093  -3.557   1.113  0.00  0.00    +0.121 A 
ATOM      4  C   LIG    1        1.548  -4.297   2.164  0.00  0.00    +0.047 A 
ATOM      5  C   LIG    1        1.854  -5.648   2.320  0.00  0.00    +0.027 A 
ATOM      6  C   LIG    1        2.713  -6.274   1.418  0.00  0.00    +0.037 A 
ATOM      7  C   LIG    1        3.260  -5.559   0.345  0.00  0.00    -0.022 A 
ATOM      8  C   LIG    1        4.153  -6.318  -0.627  0.00  0.00    +0.046 C 
ATOM      9  C   LIG    1        4.943  -7.455   0.083  0.00  0.00    +0.101 C 
ATOM     10  C   LIG    1        4.076  -8.302   1.054  0.00  0.00    +0.218 C 
ATOM     11  O   LIG    1        4.316  -9.474   1.334  0.00  0.00    -0.275 OA
ATOM     12  N   LIG    1        3.051  -7.617   1.605  0.00  0.00    -0.285 N 
ATOM     13  H   LIG    1        2.529  -8.142   2.291  0.00  0.00    +0.155 HD
ATOM     14  C   LIG    1        2.954  -4.202   0.208  0.00  0.00    +0.051 A 
ENDBRANCH   2   3
ENDBRANCH   1   2
BRANCH   1  15
ATOM     15  C   LIG    1        1.651  -0.007   0.055  0.00  0.00    +0.041 C 
BRANCH  15  16
ATOM     16  C   LIG    1        0.117   0.030  -0.113  0.00  0.00    +0.011 C 
BRANCH  16  17
ATOM     17  C   LIG    1       -0.492   1.450  -0.121  0.00  0.00    +0.078 C 
BRANCH  17  18
ATOM     18  C   LIG    1       -0.187   2.286  -1.360  0.00  0.00    +0.152 A 
ATOM     19  N   LIG    1        0.460   1.880  -2.429  0.00  0.00    -0.113 NA
ATOM     20  N   LIG    1        0.499   2.969  -3.292  0.00  0.00    -0.023 NA
ATOM     21  N   LIG    1       -0.152   4.044  -2.723  0.00  0.00    -0.044 NA
ATOM     22  N   LIG    1       -0.579   3.600  -1.529  0.00  0.00    -0.226 N 
BRANCH  22  23
ATOM     23  C   LIG    1       -1.334   4.473  -0.611  0.00  0.00    +0.111 C 
ATOM     24  C   LIG    1       -0.412   5.634  -0.156  0.00  0.00    +0.027 C 
ATOM     25  C   LIG    1       -1.173   6.686   0.675  0.00  0.00    +0.002 C 
ATOM     26  C   LIG    1       -2.426   7.203  -0.059  0.00  0.00    +0.000 C 
ATOM     27  C   LIG    1       -3.353   6.050  -0.487  0.00  0.00    +0.002 C 
ATOM     28  C   LIG    1       -2.607   4.997  -1.329  0.00  0.00    +0.027 C 
ENDBRANCH  22  23
ENDBRANCH  17  18
ENDBRANCH  16  17
ENDBRANCH  15  16
ENDBRANCH   1  15
TORSDOF 7
