REMARK  Name = DB01192
REMARK                            x       y       z     vdW  Elec       q    Type
REMARK                         _______ _______ _______ _____ _____    ______ ____
ROOT
ATOM      1  O   LIG    1        2.885  -3.194   1.369  0.00  0.00    -0.476 OA
ATOM      2  C   LIG    1        3.813  -2.577   0.558  0.00  0.00    +0.167 A 
ATOM      3  C   LIG    1        5.156  -2.901   0.379  0.00  0.00    +0.159 A 
ATOM      4  C   LIG    1        5.940  -2.051  -0.415  0.00  0.00    +0.049 A 
ATOM      5  C   LIG    1        5.383  -0.893  -0.987  0.00  0.00    +0.008 A 
ATOM      6  C   LIG    1        4.026  -0.580  -0.813  0.00  0.00    -0.038 A 
ATOM      7  C   LIG    1        3.348   0.698  -1.324  0.00  0.00    +0.057 C 
ATOM      8  C   LIG    1        1.786   0.602  -1.266  0.00  0.00    +0.093 C 
ATOM      9  C   LIG    1        1.285  -0.001   0.112  0.00  0.00    +0.096 C 
ATOM     10  C   LIG    1        1.755   0.748   1.389  0.00  0.00    +0.045 C 
ATOM     11  C   LIG    1        1.372   0.016   2.700  0.00  0.00    +0.081 C 
ATOM     12  C   LIG    1        1.950  -1.405   2.757  0.00  0.00    +0.175 C 
ATOM     13  O   LIG    1        2.576  -1.801   3.740  0.00  0.00    -0.293 OA
ATOM     14  C   LIG    1        1.779  -1.478   0.145  0.00  0.00    +0.075 C 
ATOM     15  C   LIG    1        1.073  -2.234  -1.020  0.00  0.00    +0.034 C 
ATOM     16  C   LIG    1        1.403  -1.616  -2.400  0.00  0.00    +0.085 C 
ATOM     17  N   LIG    1        1.284  -0.145  -2.452  0.00  0.00    -0.299 NA
ATOM     18  C   LIG    1       -0.045   0.281  -2.886  0.00  0.00    +0.105 C 
ATOM     19  C   LIG    1        3.267  -1.492  -0.079  0.00  0.00    +0.014 A 
ATOM     20  C   LIG    1        1.766  -2.277   1.481  0.00  0.00    +0.252 C 
ENDROOT
BRANCH   9  21
ATOM     21  O   LIG    1       -0.136   0.011   0.217  0.00  0.00    -0.386 OA
ATOM     22  H   LIG    1       -0.437   0.921   0.167  0.00  0.00    +0.210 HD
ENDBRANCH   9  21
BRANCH   3  23
ATOM     23  O   LIG    1        5.698  -4.002   0.989  0.00  0.00    -0.503 OA
ATOM     24  H   LIG    1        6.633  -4.112   0.801  0.00  0.00    +0.292 HD
ENDBRANCH   3  23
TORSDOF 2
