REMARK  Name = DB01195
REMARK                            x       y       z     vdW  Elec       q    Type
REMARK                         _______ _______ _______ _____ _____    ______ ____
ROOT
ATOM      1  C   LIG    1        1.509   0.051  -0.061  0.00  0.00    +0.133 A 
ATOM      2  C   LIG    1        2.192   1.260   0.159  0.00  0.00    +0.050 A 
ATOM      3  C   LIG    1        3.581   1.295   0.238  0.00  0.00    +0.049 A 
ATOM      4  C   LIG    1        4.334   0.132   0.099  0.00  0.00    +0.122 A 
ATOM      5  C   LIG    1        3.661  -1.080  -0.117  0.00  0.00    +0.062 A 
ATOM      6  C   LIG    1        2.260  -1.135  -0.197  0.00  0.00    +0.082 A 
ENDROOT
BRANCH   6   7
ATOM      7  C   LIG    1        1.586  -2.463  -0.451  0.00  0.00    +0.248 C 
ATOM      8  N   LIG    1        2.073  -3.502   0.255  0.00  0.00    -0.310 N 
ATOM      9  H   LIG    1        2.790  -3.318   0.942  0.00  0.00    +0.149 HD
ATOM     10  O   LIG    1        0.663  -2.562  -1.262  0.00  0.00    -0.270 OA
BRANCH   8  11
ATOM     11  C   LIG    1        1.633  -4.895   0.143  0.00  0.00    +0.123 C 
BRANCH  11  12
ATOM     12  C   LIG    1        2.603  -5.806  -0.646  0.00  0.00    +0.071 C 
ATOM     13  C   LIG    1        2.705  -5.405  -2.143  0.00  0.00    +0.020 C 
ATOM     14  C   LIG    1        3.658  -6.317  -2.931  0.00  0.00    +0.003 C 
ATOM     15  C   LIG    1        5.018  -6.388  -2.225  0.00  0.00    +0.015 C 
ATOM     16  C   LIG    1        4.872  -6.762  -0.738  0.00  0.00    +0.081 C 
ATOM     17  N   LIG    1        3.938  -5.880  -0.035  0.00  0.00    -0.312 NA
ATOM     18  H   LIG    1        3.852  -6.197   0.921  0.00  0.00    +0.122 HD
ENDBRANCH  11  12
ENDBRANCH   8  11
ENDBRANCH   6   7
BRANCH   1  19
ATOM     19  O   LIG    1        0.127  -0.027  -0.133  0.00  0.00    -0.482 OA
BRANCH  19  20
ATOM     20  C   LIG    1       -0.666   1.151   0.001  0.00  0.00    +0.342 C 
BRANCH  20  22
ATOM     21  F   LIG    1       -2.916   1.872   0.014  0.00  0.00    -0.167 F 
ATOM     22  C   LIG    1       -2.153   0.787  -0.115  0.00  0.00    +0.424 C 
ATOM     23  F   LIG    1       -2.431   0.239  -1.298  0.00  0.00    -0.167 F 
ATOM     24  F   LIG    1       -2.519  -0.075   0.834  0.00  0.00    -0.167 F 
ENDBRANCH  20  22
ENDBRANCH  19  20
ENDBRANCH   1  19
BRANCH   4  25
ATOM     25  O   LIG    1        5.707   0.265   0.182  0.00  0.00    -0.483 OA
BRANCH  25  26
ATOM     26  C   LIG    1        6.534  -0.885   0.013  0.00  0.00    +0.342 C 
BRANCH  26  27
ATOM     27  C   LIG    1        8.011  -0.476   0.104  0.00  0.00    +0.424 C 
ATOM     28  F   LIG    1        8.329   0.413  -0.838  0.00  0.00    -0.167 F 
ATOM     29  F   LIG    1        8.297   0.061   1.290  0.00  0.00    -0.167 F 
ATOM     30  F   LIG    1        8.805  -1.534  -0.060  0.00  0.00    -0.167 F 
ENDBRANCH  26  27
ENDBRANCH  25  26
ENDBRANCH   4  25
TORSDOF 9
