REMARK  Name = DB01023
REMARK                            x       y       z     vdW  Elec       q    Type
REMARK                         _______ _______ _______ _____ _____    ______ ____
ROOT
ATOM      1  C   LIG    1       -0.735  -1.306   0.173  0.00  0.00    +0.097 C 
ATOM      2  C   LIG    1       -2.283  -1.094   0.062  0.00  0.00    +0.065 C 
ATOM      3  C   LIG    1       -2.836   0.152   0.035  0.00  0.00    +0.016 C 
ATOM      4  C   LIG    1       -4.312   0.532  -0.098  0.00  0.00    +0.061 C 
ATOM      5  N   LIG    1       -2.029   1.263   0.023  0.00  0.00    -0.321 N 
ATOM      6  H   LIG    1       -2.482   2.164   0.081  0.00  0.00    +0.152 HD
ATOM      7  C   LIG    1       -0.655   1.250   0.039  0.00  0.00    +0.016 C 
ATOM      8  C   LIG    1       -0.083   2.663  -0.090  0.00  0.00    +0.061 C 
ATOM      9  C   LIG    1        0.019   0.064   0.073  0.00  0.00    +0.065 C 
ENDROOT
BRANCH   1  12
ATOM     10  C   LIG    1       -0.183  -2.212   3.849  0.00  0.00    +0.002 A 
ATOM     11  C   LIG    1       -0.529  -1.542   2.679  0.00  0.00    +0.006 A 
ATOM     12  C   LIG    1       -0.333  -2.131   1.423  0.00  0.00    -0.015 A 
ATOM     13  C   LIG    1        0.235  -3.424   1.356  0.00  0.00    +0.063 A 
ATOM     14 CL   LIG    1        0.522  -4.215  -0.164  0.00  0.00    -0.082 Cl
ATOM     15  C   LIG    1        0.582  -4.093   2.541  0.00  0.00    +0.060 A 
ATOM     16 CL   LIG    1        1.281  -5.676   2.515  0.00  0.00    -0.082 Cl
ATOM     17  C   LIG    1        0.371  -3.486   3.779  0.00  0.00    +0.021 A 
ENDBRANCH   1  12
BRANCH   2  18
ATOM     18  C   LIG    1       -3.136  -2.313   0.109  0.00  0.00    +0.337 C 
ATOM     19  O   LIG    1       -4.297  -2.321   0.529  0.00  0.00    -0.245 OA
BRANCH  18  20
ATOM     20  O   LIG    1       -2.508  -3.426  -0.335  0.00  0.00    -0.465 OA
ATOM     21  C   LIG    1       -3.161  -4.688  -0.340  0.00  0.00    +0.280 C 
ENDBRANCH  18  20
ENDBRANCH   2  18
BRANCH   9  22
ATOM     22  C   LIG    1        1.512   0.022   0.126  0.00  0.00    +0.338 C 
ATOM     23  O   LIG    1        2.215   0.995   0.414  0.00  0.00    -0.245 OA
BRANCH  22  24
ATOM     24  O   LIG    1        2.038  -1.199  -0.148  0.00  0.00    -0.462 OA
BRANCH  24  25
ATOM     25  C   LIG    1        3.446  -1.412  -0.126  0.00  0.00    +0.229 C 
ATOM     26  C   LIG    1        3.757  -2.893  -0.355  0.00  0.00    +0.048 C 
ENDBRANCH  24  25
ENDBRANCH  22  24
ENDBRANCH   9  22
TORSDOF 6
