REMARK  Name = DB01169
REMARK                            x       y       z     vdW  Elec       q    Type
REMARK                         _______ _______ _______ _____ _____    ______ ____
ROOT
ATOM      1  O   LIG    1        1.567   0.928  -0.429  0.00  0.00    +0.000 OA
ENDROOT
BRANCH   1   2
ATOM      2 AS   LIG    1        0.589  -0.165   0.423  0.00  0.00    +0.000 As
ATOM      3  H   LIG    1        0.000   0.000   0.000  0.00  0.00    +0.000 HD
ATOM      4  O   LIG    1       -1.034   0.230   0.447  0.00  0.00    +0.000 OA
ENDBRANCH   1   2
BRANCH   1   5
ATOM      5 AS   LIG    1        2.226   2.180   0.509  0.00  0.00    +0.000 As
ATOM      6  H   LIG    1        0.000   0.000   0.000  0.00  0.00    +0.000 HD
ATOM      7  O   LIG    1        3.404   1.688   1.588  0.00  0.00    +0.000 OA
ENDBRANCH   1   5
TORSDOF 2
