REMARK  Name = DB01586
REMARK                            x       y       z     vdW  Elec       q    Type
REMARK                         _______ _______ _______ _____ _____    ______ ____
ROOT
ATOM      1  C   LIG    1       -4.138  -2.656   1.297  0.00  0.00    +0.118 C 
ATOM      2  C   LIG    1       -4.989  -3.413   2.346  0.00  0.00    +0.035 C 
ATOM      3  C   LIG    1       -5.016  -2.725   3.736  0.00  0.00    +0.000 C 
ATOM      4  C   LIG    1       -5.891  -1.435   3.721  0.00  0.00    +0.035 C 
ATOM      5  C   LIG    1       -5.901  -0.661   5.057  0.00  0.00    +0.115 C 
ATOM      6  C   LIG    1       -4.483  -0.450   5.627  0.00  0.00    +0.032 C 
ATOM      7  C   LIG    1       -3.705  -1.776   5.666  0.00  0.00    +0.010 C 
ATOM      8  C   LIG    1       -3.564  -2.466   4.272  0.00  0.00    -0.026 C 
ATOM      9  C   LIG    1       -2.860  -3.831   4.542  0.00  0.00    +0.012 C 
ATOM     10  C   LIG    1       -2.777  -1.607   3.208  0.00  0.00    +0.001 C 
ATOM     11  C   LIG    1       -1.385  -1.109   3.706  0.00  0.00    +0.005 C 
ATOM     12  C   LIG    1       -0.622  -0.296   2.637  0.00  0.00    +0.007 C 
ATOM     13  C   LIG    1       -0.447  -1.097   1.316  0.00  0.00    -0.026 C 
ATOM     14  C   LIG    1        0.416  -2.381   1.532  0.00  0.00    +0.012 C 
ATOM     15  C   LIG    1        0.092  -0.265   0.102  0.00  0.00    -0.002 C 
ATOM     16  C   LIG    1       -0.522  -0.983  -1.132  0.00  0.00    +0.004 C 
ATOM     17  C   LIG    1       -1.716  -1.813  -0.642  0.00  0.00    +0.005 C 
ATOM     18  C   LIG    1       -1.891  -1.402   0.823  0.00  0.00    +0.001 C 
ATOM     19  C   LIG    1       -2.699  -2.314   1.804  0.00  0.00    +0.025 C 
ENDROOT
BRANCH   1  20
ATOM     20  O   LIG    1       -4.143  -3.391   0.089  0.00  0.00    -0.391 OA
ATOM     21  H   LIG    1       -3.582  -4.162   0.201  0.00  0.00    +0.210 HD
ENDBRANCH   1  20
BRANCH   5  22
ATOM     22  O   LIG    1       -6.570   0.575   4.916  0.00  0.00    -0.392 OA
ATOM     23  H   LIG    1       -6.090   1.110   4.281  0.00  0.00    +0.210 HD
ENDBRANCH   5  22
BRANCH  15  24
ATOM     24  C   LIG    1        1.638  -0.027  -0.034  0.00  0.00    -0.010 C 
ATOM     25  C   LIG    1        2.275   0.605   1.225  0.00  0.00    +0.008 C 
BRANCH  24  26
ATOM     26  C   LIG    1        1.968   0.824  -1.296  0.00  0.00    +0.014 C 
BRANCH  26  27
ATOM     27  C   LIG    1        3.473   0.932  -1.639  0.00  0.00    +0.121 C 
BRANCH  27  28
ATOM     28  C   LIG    1        3.719   1.468  -3.054  0.00  0.00    +0.305 C 
ATOM     29  O   LIG    1        3.435   0.837  -4.071  0.00  0.00    -0.251 OA
BRANCH  28  30
ATOM     30  O   LIG    1        4.279   2.712  -3.040  0.00  0.00    -0.481 OA
ATOM     31  H   LIG    1        4.432   3.052  -3.925  0.00  0.00    +0.295 HD
ENDBRANCH  28  30
ENDBRANCH  27  28
ENDBRANCH  26  27
ENDBRANCH  24  26
ENDBRANCH  15  24
TORSDOF 7
