REMARK  Name = DB01412
REMARK                            x       y       z     vdW  Elec       q    Type
REMARK                         _______ _______ _______ _____ _____    ______ ____
ROOT
ATOM      1  C   LIG    1       -0.004  -0.024   0.000  0.00  0.00    +0.150 C 
ATOM      2  N   LIG    1        1.451   0.016   0.000  0.00  0.00    -0.328 N 
ATOM      3  C   LIG    1        2.300   1.102   0.000  0.00  0.00    +0.151 A 
ATOM      4  C   LIG    1        2.042   2.530   0.000  0.00  0.00    +0.280 A 
ATOM      5  N   LIG    1        3.232   3.203   0.000  0.00  0.00    -0.273 N 
ATOM      6  H   LIG    1        3.133   4.207   0.000  0.00  0.00    +0.173 HD
ATOM      7  C   LIG    1        4.535   2.777   0.000  0.00  0.00    +0.331 A 
ATOM      8  N   LIG    1        4.684   1.409   0.000  0.00  0.00    -0.280 N 
ATOM      9  C   LIG    1        6.033   0.831   0.000  0.00  0.00    +0.155 C 
ATOM     10  O   LIG    1        5.451   3.599   0.000  0.00  0.00    -0.246 OA
ATOM     11  O   LIG    1        0.968   3.126   0.000  0.00  0.00    -0.265 OA
ATOM     12  C   LIG    1        3.580   0.556   0.000  0.00  0.00    +0.168 A 
ATOM     13  N   LIG    1        3.566  -0.767   0.000  0.00  0.00    -0.218 NA
ATOM     14  C   LIG    1        2.290  -1.075   0.000  0.00  0.00    +0.202 A 
ENDROOT
TORSDOF 0
