REMARK  Name = DB01202
REMARK                            x       y       z     vdW  Elec       q    Type
REMARK                         _______ _______ _______ _____ _____    ______ ____
ROOT
ATOM      1  C   LIG    1        0.073  -0.003  -0.042  0.00  0.00    +0.161 C 
ENDROOT
BRANCH   1   2
ATOM      2  N   LIG    1       -0.471   1.375  -0.038  0.00  0.00    -0.290 N 
ATOM      3  C   LIG    1       -0.032   2.404   0.908  0.00  0.00    +0.109 C 
ATOM      4  C   LIG    1       -0.691   3.675   0.413  0.00  0.00    +0.028 C 
ATOM      5  C   LIG    1       -1.833   3.198  -0.460  0.00  0.00    +0.097 C 
ATOM      6  C   LIG    1       -1.504   1.753  -0.833  0.00  0.00    +0.216 C 
ATOM      7  O   LIG    1       -2.096   1.089  -1.684  0.00  0.00    -0.276 OA
ENDBRANCH   1   2
BRANCH   1   8
ATOM      8  C   LIG    1       -0.649  -0.820   1.061  0.00  0.00    +0.231 C 
ATOM      9  O   LIG    1       -0.047  -1.241   2.047  0.00  0.00    -0.274 OA
ATOM     10  N   LIG    1       -1.951  -1.073   0.888  0.00  0.00    -0.328 N 
ATOM     11  H   LIG    1       -2.434  -0.725   0.072  0.00  0.00    +0.145 HD
ATOM     12  H   LIG    1       -2.458  -1.610   1.576  0.00  0.00    +0.145 HD
ENDBRANCH   1   8
BRANCH   1  13
ATOM     13  C   LIG    1        1.622  -0.065   0.073  0.00  0.00    +0.028 C 
ATOM     14  C   LIG    1        2.355   0.658  -1.069  0.00  0.00    +0.006 C 
ENDBRANCH   1  13
TORSDOF 3
