REMARK  Name = DB01274
REMARK                            x       y       z     vdW  Elec       q    Type
REMARK                         _______ _______ _______ _____ _____    ______ ____
ROOT
ATOM      1  C   LIG    1       -2.199   1.030  -0.017  0.00  0.00    +0.158 C 
ENDROOT
BRANCH   1   2
ATOM      2  C   LIG    1       -2.561   0.549   1.389  0.00  0.00    -0.016 A 
ATOM      3  C   LIG    1       -3.093  -0.729   1.576  0.00  0.00    +0.010 A 
ATOM      4  C   LIG    1       -3.404  -1.182   2.857  0.00  0.00    +0.047 A 
ATOM      5  C   LIG    1       -3.189  -0.364   3.966  0.00  0.00    +0.138 A 
ATOM      6  C   LIG    1       -2.661   0.928   3.798  0.00  0.00    +0.075 A 
ATOM      7  C   LIG    1       -2.346   1.371   2.502  0.00  0.00    +0.033 A 
BRANCH   6   8
ATOM      8  N   LIG    1       -2.457   1.724   4.944  0.00  0.00    -0.285 N 
ATOM      9  H   LIG    1       -2.347   1.208   5.805  0.00  0.00    +0.155 HD
ATOM     10  C   LIG    1       -2.505   3.068   5.039  0.00  0.00    +0.330 C 
ATOM     11  O   LIG    1       -2.753   3.853   4.124  0.00  0.00    -0.279 OA
ENDBRANCH   6   8
BRANCH   5  12
ATOM     12  O   LIG    1       -3.506  -0.854   5.210  0.00  0.00    -0.505 OA
ATOM     13  H   LIG    1       -3.867  -1.743   5.179  0.00  0.00    +0.292 HD
ENDBRANCH   5  12
ENDBRANCH   1   2
BRANCH   1  14
ATOM     14  O   LIG    1       -2.807   2.269  -0.327  0.00  0.00    -0.386 OA
ATOM     15  H   LIG    1       -3.760   2.150  -0.323  0.00  0.00    +0.210 HD
ENDBRANCH   1  14
BRANCH   1  16
ATOM     16  C   LIG    1       -0.676   1.186  -0.232  0.00  0.00    +0.117 C 
BRANCH  16  17
ATOM     17  N   LIG    1        0.009  -0.092  -0.048  0.00  0.00    -0.310 NA
ATOM     18  H   LIG    1       -0.317  -0.542   0.795  0.00  0.00    +0.122 HD
BRANCH  17  19
ATOM     19  C   LIG    1        1.468   0.005  -0.036  0.00  0.00    +0.055 C 
ATOM     20  C   LIG    1        2.039   0.445  -1.403  0.00  0.00    +0.024 C 
BRANCH  19  21
ATOM     21  C   LIG    1        2.025  -1.359   0.433  0.00  0.00    +0.053 C 
BRANCH  21  22
ATOM     22  C   LIG    1        3.507  -1.323   0.785  0.00  0.00    -0.046 A 
ATOM     23  C   LIG    1        4.453  -1.834  -0.105  0.00  0.00    +0.007 A 
ATOM     24  C   LIG    1        5.807  -1.798   0.219  0.00  0.00    +0.046 A 
ATOM     25  C   LIG    1        6.227  -1.248   1.441  0.00  0.00    +0.120 A 
ATOM     26  C   LIG    1        5.273  -0.741   2.324  0.00  0.00    +0.046 A 
ATOM     27  C   LIG    1        3.920  -0.777   2.002  0.00  0.00    +0.007 A 
BRANCH  25  28
ATOM     28  O   LIG    1        7.546  -1.168   1.846  0.00  0.00    -0.495 OA
ATOM     29  C   LIG    1        8.567  -1.666   0.989  0.00  0.00    +0.277 C 
ENDBRANCH  25  28
ENDBRANCH  21  22
ENDBRANCH  19  21
ENDBRANCH  17  19
ENDBRANCH  16  17
ENDBRANCH   1  16
TORSDOF 10
