REMARK  Name = DB01136
REMARK                            x       y       z     vdW  Elec       q    Type
REMARK                         _______ _______ _______ _____ _____    ______ ____
ROOT
ATOM      1  C   LIG    1       -0.417   1.504   0.174  0.00  0.00    +0.166 C 
ENDROOT
BRANCH   1   2
ATOM      2  O   LIG    1       -0.034   2.217   1.337  0.00  0.00    -0.387 OA
ATOM      3  H   LIG    1        0.911   2.100   1.464  0.00  0.00    +0.210 HD
ENDBRANCH   1   2
BRANCH   1   4
ATOM      4  C   LIG    1       -1.948   1.592   0.014  0.00  0.00    +0.261 C 
BRANCH   4   5
ATOM      5  O   LIG    1       -2.586   0.899   1.084  0.00  0.00    -0.489 OA
BRANCH   5   6
ATOM      6  C   LIG    1       -3.964   0.844   1.124  0.00  0.00    +0.130 A 
ATOM      7  C   LIG    1       -4.837   1.424   0.192  0.00  0.00    +0.046 A 
ATOM      8  C   LIG    1       -6.216   1.303   0.330  0.00  0.00    +0.006 A 
ATOM      9  C   LIG    1       -6.795   0.606   1.390  0.00  0.00    +0.026 A 
ATOM     10  C   LIG    1       -5.927   0.025   2.321  0.00  0.00    +0.051 A 
ATOM     11  N   LIG    1       -6.193  -0.717   3.455  0.00  0.00    -0.354 N 
ATOM     12  H   LIG    1       -7.117  -0.953   3.785  0.00  0.00    +0.166 HD
ATOM     13  C   LIG    1       -5.017  -1.088   4.075  0.00  0.00    +0.048 A 
ATOM     14  C   LIG    1       -4.792  -1.835   5.237  0.00  0.00    +0.026 A 
ATOM     15  C   LIG    1       -3.464  -2.043   5.613  0.00  0.00    +0.002 A 
ATOM     16  C   LIG    1       -2.402  -1.531   4.871  0.00  0.00    +0.001 A 
ATOM     17  C   LIG    1       -2.625  -0.787   3.714  0.00  0.00    +0.011 A 
ATOM     18  C   LIG    1       -3.949  -0.558   3.301  0.00  0.00    +0.011 A 
ATOM     19  C   LIG    1       -4.515   0.133   2.207  0.00  0.00    +0.049 A 
ENDBRANCH   5   6
ENDBRANCH   4   5
ENDBRANCH   1   4
BRANCH   1  20
ATOM     20  C   LIG    1        0.094   0.046   0.228  0.00  0.00    +0.115 C 
BRANCH  20  21
ATOM     21  N   LIG    1        1.552  -0.004   0.238  0.00  0.00    -0.310 NA
ATOM     22  H   LIG    1        1.921   0.464  -0.578  0.00  0.00    +0.122 HD
BRANCH  21  23
ATOM     23  C   LIG    1        2.024  -1.383   0.256  0.00  0.00    +0.122 C 
BRANCH  23  24
ATOM     24  C   LIG    1        3.561  -1.416   0.273  0.00  0.00    +0.244 C 
BRANCH  24  25
ATOM     25  O   LIG    1        4.062  -0.876  -0.949  0.00  0.00    -0.487 OA
BRANCH  25  26
ATOM     26  C   LIG    1        5.427  -0.749  -1.134  0.00  0.00    +0.162 A 
ATOM     27  C   LIG    1        5.855  -0.135  -2.321  0.00  0.00    +0.161 A 
ATOM     28  C   LIG    1        7.233   0.019  -2.560  0.00  0.00    +0.049 A 
ATOM     29  C   LIG    1        8.169  -0.431  -1.632  0.00  0.00    +0.004 A 
ATOM     30  C   LIG    1        7.745  -1.040  -0.456  0.00  0.00    +0.004 A 
ATOM     31  C   LIG    1        6.384  -1.200  -0.207  0.00  0.00    +0.049 A 
BRANCH  27  32
ATOM     32  O   LIG    1        4.873   0.295  -3.197  0.00  0.00    -0.491 OA
ATOM     33  C   LIG    1        5.249   0.941  -4.409  0.00  0.00    +0.277 C 
ENDBRANCH  27  32
ENDBRANCH  25  26
ENDBRANCH  24  25
ENDBRANCH  23  24
ENDBRANCH  21  23
ENDBRANCH  20  21
ENDBRANCH   1  20
TORSDOF 11
