REMARK  Name = DB01559
REMARK                            x       y       z     vdW  Elec       q    Type
REMARK                         _______ _______ _______ _____ _____    ______ ____
ROOT
ATOM      1  C   LIG    1       -3.491  -1.639  -0.112  0.00  0.00    +0.077 C 
ATOM      2  C   LIG    1       -2.300  -0.777   0.041  0.00  0.00    +0.030 A 
ATOM      3  C   LIG    1       -0.981  -1.247   0.177  0.00  0.00    +0.023 A 
ATOM      4  C   LIG    1       -0.007  -0.267   0.302  0.00  0.00    -0.008 A 
ATOM      5  S   LIG    1       -0.761   1.295   0.221  0.00  0.00    -0.078 S 
ATOM      6  C   LIG    1       -2.364   0.631   0.015  0.00  0.00    +0.084 A 
ATOM      7  N   LIG    1       -3.497   1.437  -0.180  0.00  0.00    -0.267 N 
ATOM      8  C   LIG    1       -3.346   2.729  -0.871  0.00  0.00    +0.139 C 
ATOM      9  C   LIG    1       -4.765   1.149   0.245  0.00  0.00    +0.241 C 
ATOM     10  C   LIG    1       -4.891  -0.152   1.078  0.00  0.00    +0.238 C 
ATOM     11  O   LIG    1       -5.764   1.842   0.034  0.00  0.00    -0.273 OA
ATOM     12  N   LIG    1       -4.668  -1.379   0.322  0.00  0.00    -0.273 NA
ENDROOT
BRANCH   1  19
ATOM     13 CL   LIG    1       -3.011  -4.240   1.561  0.00  0.00    -0.083 Cl
ATOM     14  C   LIG    1       -3.024  -4.116  -0.169  0.00  0.00    +0.050 A 
ATOM     15  C   LIG    1       -2.793  -5.276  -0.912  0.00  0.00    +0.020 A 
ATOM     16  C   LIG    1       -2.786  -5.233  -2.306  0.00  0.00    +0.001 A 
ATOM     17  C   LIG    1       -3.009  -4.027  -2.967  0.00  0.00    +0.001 A 
ATOM     18  C   LIG    1       -3.240  -2.863  -2.236  0.00  0.00    +0.011 A 
ATOM     19  C   LIG    1       -3.250  -2.895  -0.835  0.00  0.00    +0.019 A 
ENDBRANCH   1  19
BRANCH   4  20
ATOM     20  C   LIG    1        1.490  -0.423   0.478  0.00  0.00    +0.039 C 
ATOM     21  C   LIG    1        2.284   0.033  -0.755  0.00  0.00    +0.009 C 
ENDBRANCH   4  20
TORSDOF 2
