REMARK  Name = DB01236
REMARK                            x       y       z     vdW  Elec       q    Type
REMARK                         _______ _______ _______ _____ _____    ______ ____
ROOT
ATOM      1  C   LIG    1        1.381   0.030   0.147  0.00  0.00    +0.328 C 
ENDROOT
BRANCH   1   3
ATOM      2  F   LIG    1        3.068  -1.517  -0.525  0.00  0.00    -0.168 F 
ATOM      3  C   LIG    1        1.764  -1.409  -0.270  0.00  0.00    +0.424 C 
ATOM      4  F   LIG    1        1.468  -2.304   0.674  0.00  0.00    -0.168 F 
ATOM      5  F   LIG    1        1.121  -1.771  -1.381  0.00  0.00    -0.168 F 
ENDBRANCH   1   3
BRANCH   1   6
ATOM      6  C   LIG    1        2.088   0.521   1.436  0.00  0.00    +0.424 C 
ATOM      7  F   LIG    1        3.415   0.474   1.314  0.00  0.00    -0.168 F 
ATOM      8  F   LIG    1        1.773   1.784   1.722  0.00  0.00    -0.168 F 
ATOM      9  F   LIG    1        1.762  -0.220   2.496  0.00  0.00    -0.168 F 
ENDBRANCH   1   6
BRANCH   1  10
ATOM     10  O   LIG    1       -0.038   0.055   0.328  0.00  0.00    -0.329 OA
BRANCH  10  11
ATOM     11  C   LIG    1       -0.700   1.242  -0.096  0.00  0.00    +0.376 C 
ATOM     12  F   LIG    1       -0.739   1.306  -1.427  0.00  0.00    -0.218 F 
ENDBRANCH  10  11
ENDBRANCH   1  10
TORSDOF 4
