REMARK  Name = DB01084
REMARK                            x       y       z     vdW  Elec       q    Type
REMARK                         _______ _______ _______ _____ _____    ______ ____
ROOT
ATOM      1  N   LIG    1       -0.860   1.553   0.246  0.00  0.00    -0.309 N 
ATOM      2  C   LIG    1       -0.521   2.485   1.211  0.00  0.00    +0.070 A 
ATOM      3  C   LIG    1        0.302   2.445   2.343  0.00  0.00    +0.028 A 
ATOM      4  C   LIG    1        0.387   3.617   3.098  0.00  0.00    +0.002 A 
ATOM      5  C   LIG    1       -0.309   4.775   2.748  0.00  0.00    +0.002 A 
ATOM      6  C   LIG    1       -1.125   4.816   1.618  0.00  0.00    +0.030 A 
ATOM      7  C   LIG    1       -1.231   3.656   0.836  0.00  0.00    +0.091 A 
ATOM      8  N   LIG    1       -1.945   3.456  -0.313  0.00  0.00    -0.214 NA
ATOM      9  C   LIG    1       -1.686   2.216  -0.648  0.00  0.00    +0.199 A 
ENDROOT
BRANCH   9  10
ATOM     10  N   LIG    1       -2.175   1.602  -1.774  0.00  0.00    -0.300 N 
ATOM     11  C   LIG    1       -1.475   1.824  -3.039  0.00  0.00    +0.123 C 
ATOM     12  C   LIG    1       -1.159   0.559  -3.857  0.00  0.00    +0.103 C 
ATOM     13  N   LIG    1       -2.244  -0.121  -4.570  0.00  0.00    -0.304 NA
ATOM     14  C   LIG    1       -1.824  -1.402  -5.123  0.00  0.00    +0.104 C 
ATOM     15  C   LIG    1       -3.593  -0.159  -4.006  0.00  0.00    +0.085 C 
ATOM     16  C   LIG    1       -3.766  -0.254  -2.479  0.00  0.00    +0.034 C 
ATOM     17  C   LIG    1       -3.536   1.077  -1.737  0.00  0.00    +0.109 C 
ENDBRANCH   9  10
BRANCH   1  18
ATOM     18  C   LIG    1       -0.322   0.199   0.124  0.00  0.00    +0.153 C 
BRANCH  18  19
ATOM     19  C   LIG    1        1.047   0.223  -0.574  0.00  0.00    +0.181 C 
BRANCH  19  20
ATOM     20  O   LIG    1        1.496  -1.115  -0.732  0.00  0.00    -0.378 OA
BRANCH  20  21
ATOM     21  C   LIG    1        2.748  -1.219  -1.395  0.00  0.00    +0.156 C 
ATOM     22  C   LIG    1        3.124  -2.699  -1.512  0.00  0.00    +0.034 C 
ENDBRANCH  20  21
ENDBRANCH  19  20
ENDBRANCH  18  19
ENDBRANCH   1  18
TORSDOF 5
