REMARK  Name = DB01156
REMARK                            x       y       z     vdW  Elec       q    Type
REMARK                         _______ _______ _______ _____ _____    ______ ____
ROOT
ATOM      1  C   LIG    1        1.994  -0.443   1.228  0.00  0.00    +0.180 C 
ATOM      2  O   LIG    1        1.224  -1.133   1.906  0.00  0.00    -0.290 OA
ENDROOT
BRANCH   1   8
ATOM      3 CL   LIG    1        6.668   1.846   0.549  0.00  0.00    -0.084 Cl
ATOM      4  C   LIG    1        5.554   0.930   1.496  0.00  0.00    +0.042 A 
ATOM      5  C   LIG    1        5.924   0.479   2.762  0.00  0.00    +0.020 A 
ATOM      6  C   LIG    1        5.025  -0.263   3.525  0.00  0.00    +0.002 A 
ATOM      7  C   LIG    1        3.757  -0.555   3.022  0.00  0.00    +0.011 A 
ATOM      8  C   LIG    1        3.365  -0.109   1.749  0.00  0.00    +0.020 A 
ATOM      9  C   LIG    1        4.285   0.638   0.993  0.00  0.00    +0.031 A 
ENDBRANCH   1   8
BRANCH   1  10
ATOM     10  C   LIG    1        1.551   0.050  -0.153  0.00  0.00    +0.123 C 
ATOM     11  C   LIG    1        2.115  -0.911  -1.219  0.00  0.00    +0.032 C 
BRANCH  10  12
ATOM     12  N   LIG    1        0.070   0.132  -0.257  0.00  0.00    -0.302 NA
ATOM     13  H   LIG    1       -0.248  -0.247  -1.138  0.00  0.00    +0.123 HD
BRANCH  12  14
ATOM     14  C   LIG    1       -0.595   1.421  -0.017  0.00  0.00    +0.011 C 
ATOM     15  C   LIG    1       -0.226   2.006   1.367  0.00  0.00    +0.027 C 
ATOM     16  C   LIG    1       -0.226   2.410  -1.147  0.00  0.00    +0.027 C 
ATOM     17  C   LIG    1       -2.109   1.125  -0.066  0.00  0.00    +0.027 C 
ENDBRANCH  12  14
ENDBRANCH  10  12
ENDBRANCH   1  10
TORSDOF 4
