REMARK  Name = DB01184
REMARK                            x       y       z     vdW  Elec       q    Type
REMARK                         _______ _______ _______ _____ _____    ______ ____
ROOT
ATOM      1  C   LIG    1       -2.206   3.754  -0.358  0.00  0.00    +0.095 C 
ATOM      2  C   LIG    1       -0.817   3.511  -0.988  0.00  0.00    +0.040 C 
ATOM      3  C   LIG    1       -0.399   2.027  -0.989  0.00  0.00    +0.086 C 
ATOM      4  N   LIG    1       -0.492   1.421   0.348  0.00  0.00    -0.302 NA
ATOM      5  C   LIG    1       -1.860   1.517   0.873  0.00  0.00    +0.086 C 
ATOM      6  C   LIG    1       -2.352   2.975   0.969  0.00  0.00    +0.040 C 
ENDROOT
BRANCH   1  17
ATOM      7 CL   LIG    1       -6.837   8.319  -2.952  0.00  0.00    -0.083 Cl
ATOM      8  C   LIG    1       -5.636   7.312  -2.228  0.00  0.00    +0.043 A 
ATOM      9  C   LIG    1       -5.565   5.954  -2.569  0.00  0.00    +0.022 A 
ATOM     10  C   LIG    1       -4.596   5.127  -1.988  0.00  0.00    +0.029 A 
ATOM     11  C   LIG    1       -3.708   5.687  -1.067  0.00  0.00    +0.070 A 
ATOM     12  C   LIG    1       -3.780   7.012  -0.739  0.00  0.00    +0.068 A 
ATOM     13  N   LIG    1       -2.781   7.240   0.173  0.00  0.00    -0.306 N 
ATOM     14  H   LIG    1       -2.587   8.135   0.598  0.00  0.00    +0.170 HD
ATOM     15  C   LIG    1       -2.078   6.118   0.434  0.00  0.00    +0.328 A 
ATOM     16  O   LIG    1       -1.122   6.014   1.202  0.00  0.00    -0.247 OA
ATOM     17  N   LIG    1       -2.661   5.154  -0.334  0.00  0.00    -0.289 N 
ATOM     18  C   LIG    1       -4.737   7.855  -1.302  0.00  0.00    +0.047 A 
ENDBRANCH   1  17
BRANCH   4  19
ATOM     19  C   LIG    1       -0.053   0.022   0.358  0.00  0.00    +0.086 C 
BRANCH  19  20
ATOM     20  C   LIG    1        1.474  -0.154   0.200  0.00  0.00    +0.037 C 
BRANCH  20  21
ATOM     21  C   LIG    1        1.915  -1.620   0.014  0.00  0.00    +0.128 C 
BRANCH  21  22
ATOM     22  N   LIG    1        1.393  -2.248  -1.204  0.00  0.00    -0.292 N 
ATOM     23  C   LIG    1        1.931  -2.012  -2.431  0.00  0.00    +0.328 A 
ATOM     24  N   LIG    1        1.177  -2.743  -3.281  0.00  0.00    -0.306 N 
ATOM     25  H   LIG    1        1.328  -2.775  -4.279  0.00  0.00    +0.170 HD
ATOM     26  C   LIG    1        0.184  -3.424  -2.621  0.00  0.00    +0.067 A 
ATOM     27  C   LIG    1       -0.818  -4.282  -3.071  0.00  0.00    +0.028 A 
ATOM     28  C   LIG    1       -1.697  -4.826  -2.127  0.00  0.00    +0.002 A 
ATOM     29  C   LIG    1       -1.565  -4.507  -0.768  0.00  0.00    +0.002 A 
ATOM     30  C   LIG    1       -0.550  -3.643  -0.340  0.00  0.00    +0.028 A 
ATOM     31  O   LIG    1        2.888  -1.295  -2.723  0.00  0.00    -0.247 OA
ATOM     32  C   LIG    1        0.318  -3.111  -1.296  0.00  0.00    +0.070 A 
ENDBRANCH  21  22
ENDBRANCH  20  21
ENDBRANCH  19  20
ENDBRANCH   4  19
TORSDOF 5
