REMARK  Name = DB01495
REMARK                            x       y       z     vdW  Elec       q    Type
REMARK                         _______ _______ _______ _____ _____    ______ ____
ROOT
ATOM      1  C   LIG    1       -0.735  -0.973  -0.529  0.00  0.00    +0.240 C 
ATOM      2  O   LIG    1       -0.441  -2.160  -0.664  0.00  0.00    -0.274 OA
ATOM      3  C   LIG    1       -2.034  -0.369  -0.691  0.00  0.00    +0.114 C 
ATOM      4  C   LIG    1       -1.954   0.956  -0.485  0.00  0.00    +0.069 C 
ATOM      5  C   LIG    1       -3.009   2.045  -0.549  0.00  0.00    +0.032 C 
ATOM      6  N   LIG    1       -0.635   1.255  -0.192  0.00  0.00    -0.214 NA
ATOM      7  C   LIG    1       -0.357   2.030   1.021  0.00  0.00    +0.129 C 
ATOM      8  N   LIG    1        0.083   0.057  -0.222  0.00  0.00    -0.202 N 
ENDROOT
BRANCH   8   9
ATOM      9  C   LIG    1        1.493   0.002  -0.099  0.00  0.00    +0.053 A 
ATOM     10  C   LIG    1        2.285   0.962  -0.745  0.00  0.00    +0.025 A 
ATOM     11  C   LIG    1        3.671   0.918  -0.624  0.00  0.00    +0.002 A 
ATOM     12  C   LIG    1        4.267  -0.081   0.142  0.00  0.00    +0.000 A 
ATOM     13  C   LIG    1        3.490  -1.040   0.788  0.00  0.00    +0.002 A 
ATOM     14  C   LIG    1        2.103  -1.000   0.668  0.00  0.00    +0.025 A 
ENDBRANCH   8   9
TORSDOF 1
