REMARK  Name = DB01873
REMARK                            x       y       z     vdW  Elec       q    Type
REMARK                         _______ _______ _______ _____ _____    ______ ____
ROOT
ATOM      1  C   LIG    1       -0.230  -0.543  -1.717  0.00  0.00    +0.076 C 
ATOM      2  C   LIG    1       -1.679  -1.004  -1.771  0.00  0.00    -0.024 C 
ATOM      3  C   LIG    1       -2.745  -0.334  -2.256  0.00  0.00    -0.076 C 
ATOM      4  C   LIG    1       -4.123  -0.981  -2.285  0.00  0.00    +0.039 C 
ATOM      5  C   LIG    1       -2.687   1.086  -2.814  0.00  0.00    +0.030 C 
ATOM      6  C   LIG    1       -3.479   2.107  -1.977  0.00  0.00    +0.005 C 
ATOM      7  C   LIG    1       -3.287   3.557  -2.459  0.00  0.00    +0.006 C 
ATOM      8  C   LIG    1       -4.006   4.627  -1.595  0.00  0.00    +0.015 C 
ATOM      9  C   LIG    1       -5.540   4.429  -1.573  0.00  0.00    +0.010 C 
ATOM     10  C   LIG    1       -3.632   6.088  -1.996  0.00  0.00    +0.127 C 
ATOM     11  C   LIG    1       -2.136   6.519  -1.799  0.00  0.00    +0.081 C 
ATOM     12  C   LIG    1       -1.935   7.986  -2.270  0.00  0.00    +0.018 C 
ATOM     13  C   LIG    1       -1.632   6.370  -0.337  0.00  0.00    +0.147 C 
ATOM     14  O   LIG    1       -2.426   6.534   0.594  0.00  0.00    -0.296 OA
ATOM     15  C   LIG    1       -0.154   5.934  -0.050  0.00  0.00    +0.050 C 
ATOM     16  C   LIG    1        0.827   6.612  -1.050  0.00  0.00    +0.021 C 
ATOM     17  C   LIG    1        0.251   6.413   1.379  0.00  0.00    +0.021 C 
ATOM     18  C   LIG    1       -0.010   4.364  -0.144  0.00  0.00    +0.138 C 
ATOM     19  C   LIG    1       -0.949   3.530   0.786  0.00  0.00    +0.152 C 
ATOM     20  C   LIG    1       -0.655   2.023   0.886  0.00  0.00    +0.310 C 
ATOM     21  O   LIG    1       -0.636   1.461   1.982  0.00  0.00    -0.251 OA
ATOM     22  O   LIG    1       -0.394   1.435  -0.310  0.00  0.00    -0.457 OA
ATOM     23  C   LIG    1        0.173   0.120  -0.383  0.00  0.00    +0.206 C 
ENDROOT
BRANCH  23  24
ATOM     24  C   LIG    1        1.690   0.176  -0.176  0.00  0.00    -0.030 C 
ATOM     25  C   LIG    1        2.457   0.982  -1.223  0.00  0.00    +0.043 C 
ATOM     26  C   LIG    1        2.253  -0.435   0.894  0.00  0.00    +0.031 C 
BRANCH  26  27
ATOM     27  C   LIG    1        3.639  -0.565   1.341  0.00  0.00    +0.071 A 
ATOM     28  C   LIG    1        4.049  -1.064   2.574  0.00  0.00    +0.074 A 
ATOM     29  S   LIG    1        5.783  -1.055   2.661  0.00  0.00    -0.080 S 
ATOM     30  C   LIG    1        5.817  -0.403   1.054  0.00  0.00    +0.076 A 
ATOM     31  C   LIG    1        7.094  -0.072   0.316  0.00  0.00    +0.073 C 
ATOM     32  N   LIG    1        4.628  -0.223   0.532  0.00  0.00    -0.245 NA
ENDBRANCH  26  27
ENDBRANCH  23  24
BRANCH  10  33
ATOM     33  O   LIG    1       -4.029   6.304  -3.342  0.00  0.00    -0.391 OA
ATOM     34  H   LIG    1       -3.859   7.222  -3.566  0.00  0.00    +0.210 HD
ENDBRANCH  10  33
BRANCH  18  35
ATOM     35  O   LIG    1        1.345   3.994   0.091  0.00  0.00    -0.390 OA
ATOM     36  H   LIG    1        1.905   4.488  -0.511  0.00  0.00    +0.210 HD
ENDBRANCH  18  35
TORSDOF 4
