REMARK  Name = DB01085
REMARK                            x       y       z     vdW  Elec       q    Type
REMARK                         _______ _______ _______ _____ _____    ______ ____
ROOT
ATOM      1  O   LIG    1       -1.945  -0.992  -0.670  0.00  0.00    -0.464 OA
ATOM      2  C   LIG    1       -1.928  -1.059   0.677  0.00  0.00    +0.311 C 
ATOM      3  C   LIG    1       -0.518  -0.769   1.207  0.00  0.00    +0.104 C 
ATOM      4  C   LIG    1        0.084  -0.067  -0.015  0.00  0.00    +0.046 C 
ATOM      5  O   LIG    1       -2.944  -1.307   1.323  0.00  0.00    -0.251 OA
ATOM      6  C   LIG    1       -0.666  -0.675  -1.199  0.00  0.00    +0.236 C 
ENDROOT
BRANCH   3   7
ATOM      7  C   LIG    1        0.172  -2.086   1.662  0.00  0.00    +0.012 C 
ATOM      8  C   LIG    1       -0.445  -2.745   2.909  0.00  0.00    +0.004 C 
ENDBRANCH   3   7
BRANCH   4   9
ATOM      9  C   LIG    1        1.625  -0.110  -0.150  0.00  0.00    +0.062 C 
BRANCH   9  10
ATOM     10  C   LIG    1        2.148   0.726  -1.306  0.00  0.00    +0.038 A 
ATOM     11  C   LIG    1        2.653   0.367  -2.552  0.00  0.00    +0.133 A 
ATOM     12  N   LIG    1        3.004   1.407  -3.286  0.00  0.00    -0.244 NA
ATOM     13  C   LIG    1        2.731   2.440  -2.532  0.00  0.00    +0.199 A 
ATOM     14  N   LIG    1        2.191   2.104  -1.315  0.00  0.00    -0.337 N 
ATOM     15  C   LIG    1        1.816   3.025  -0.254  0.00  0.00    +0.150 C 
ENDBRANCH   9  10
ENDBRANCH   4   9
TORSDOF 3
