REMARK  Name = DB01408
REMARK                            x       y       z     vdW  Elec       q    Type
REMARK                         _______ _______ _______ _____ _____    ______ ____
ROOT
ATOM      1  C   LIG    1        1.640   0.028  -0.072  0.00  0.00    -0.014 A 
ATOM      2  C   LIG    1        2.364   0.487  -1.180  0.00  0.00    +0.052 A 
ATOM      3  C   LIG    1        3.761   0.445  -1.185  0.00  0.00    +0.137 A 
ATOM      4  C   LIG    1        4.441  -0.035  -0.064  0.00  0.00    +0.092 A 
ATOM      5  C   LIG    1        3.732  -0.482   1.057  0.00  0.00    +0.137 A 
ATOM      6  C   LIG    1        2.335  -0.456   1.042  0.00  0.00    +0.052 A 
ENDROOT
BRANCH   1   7
ATOM      7  C   LIG    1        0.114   0.062  -0.075  0.00  0.00    +0.128 C 
BRANCH   7   8
ATOM      8  O   LIG    1       -0.423  -0.588  -1.215  0.00  0.00    -0.389 OA
ATOM      9  H   LIG    1       -0.156  -1.511  -1.195  0.00  0.00    +0.210 HD
ENDBRANCH   7   8
BRANCH   7  10
ATOM     10  C   LIG    1       -0.410   1.515   0.013  0.00  0.00    -0.045 C 
BRANCH  10  11
ATOM     11  N   LIG    1       -1.954   1.540   0.058  0.00  0.00    +0.384 N 
ATOM     12  H   LIG    1       -2.289   1.034  -0.750  0.00  0.00    -0.085 HD
ATOM     13  H   LIG    1       -2.248   1.024   0.875  0.00  0.00    -0.085 HD
BRANCH  11  14
ATOM     14  C   LIG    1       -2.674   2.911   0.081  0.00  0.00    -0.077 C 
ATOM     15  C   LIG    1       -2.240   3.695   1.340  0.00  0.00    -0.011 C 
ATOM     16  C   LIG    1       -2.339   3.684  -1.215  0.00  0.00    -0.011 C 
ATOM     17  C   LIG    1       -4.184   2.598   0.138  0.00  0.00    -0.011 C 
ENDBRANCH  11  14
ENDBRANCH  10  11
ENDBRANCH   7  10
ENDBRANCH   1   7
BRANCH   5  18
ATOM     18  O   LIG    1        4.384  -0.998   2.156  0.00  0.00    -0.411 OA
BRANCH  18  19
ATOM     19  C   LIG    1        5.134  -0.186   2.968  0.00  0.00    +0.408 C 
ATOM     20  N   LIG    1        5.773  -0.918   3.984  0.00  0.00    -0.273 N 
ATOM     21  C   LIG    1        6.643  -0.248   4.950  0.00  0.00    +0.135 C 
ATOM     22  C   LIG    1        5.666  -2.372   4.148  0.00  0.00    +0.135 C 
ATOM     23  O   LIG    1        5.228   1.036   2.815  0.00  0.00    -0.226 OA
ENDBRANCH  18  19
ENDBRANCH   5  18
BRANCH   3  24
ATOM     24  O   LIG    1        4.467   0.908  -2.273  0.00  0.00    -0.411 OA
BRANCH  24  25
ATOM     25  C   LIG    1        4.665   0.091  -3.355  0.00  0.00    +0.408 C 
ATOM     26  N   LIG    1        5.351   0.753  -4.387  0.00  0.00    -0.273 N 
ATOM     27  C   LIG    1        5.679   0.056  -5.630  0.00  0.00    +0.135 C 
ATOM     28  C   LIG    1        5.793   2.151  -4.321  0.00  0.00    +0.135 C 
ATOM     29  O   LIG    1        4.281  -1.083  -3.406  0.00  0.00    -0.226 OA
ENDBRANCH  24  25
ENDBRANCH   3  24
TORSDOF 9
