REMARK  Name = DB01024
REMARK                            x       y       z     vdW  Elec       q    Type
REMARK                         _______ _______ _______ _____ _____    ______ ____
ROOT
ATOM      1  O   LIG    1       -4.550  -1.665  -1.259  0.00  0.00    -0.456 OA
ATOM      2  C   LIG    1       -3.341  -2.236  -1.459  0.00  0.00    +0.343 C 
ATOM      3  C   LIG    1       -2.314  -1.314  -0.920  0.00  0.00    +0.107 A 
ATOM      4  C   LIG    1       -0.922  -1.416  -0.861  0.00  0.00    +0.138 A 
ATOM      5  C   LIG    1       -0.176  -0.372  -0.284  0.00  0.00    +0.040 A 
ATOM      6  C   LIG    1       -0.844   0.763   0.217  0.00  0.00    +0.130 A 
ATOM      7  C   LIG    1       -2.248   0.843   0.168  0.00  0.00    -0.001 A 
ATOM      8  C   LIG    1       -2.978   2.039   0.767  0.00  0.00    +0.048 C 
ATOM      9  C   LIG    1       -2.965  -0.208  -0.411  0.00  0.00    +0.014 A 
ATOM     10  O   LIG    1       -3.209  -3.332  -2.001  0.00  0.00    -0.245 OA
ATOM     11  C   LIG    1       -4.437  -0.408  -0.615  0.00  0.00    +0.269 C 
ENDROOT
BRANCH   6  12
ATOM     12  O   LIG    1       -0.114   1.777   0.793  0.00  0.00    -0.494 OA
ATOM     13  C   LIG    1        0.157   2.874  -0.072  0.00  0.00    +0.277 C 
ENDBRANCH   6  12
BRANCH   4  14
ATOM     14  O   LIG    1       -0.307  -2.539  -1.359  0.00  0.00    -0.506 OA
ATOM     15  H   LIG    1       -0.932  -3.172  -1.722  0.00  0.00    +0.292 HD
ENDBRANCH   4  14
BRANCH   5  16
ATOM     16  C   LIG    1        1.349  -0.462  -0.190  0.00  0.00    +0.069 C 
BRANCH  16  17
ATOM     17  C   LIG    1        1.809  -0.976   1.166  0.00  0.00    -0.023 C 
ATOM     18  C   LIG    1        2.489  -0.315   2.130  0.00  0.00    -0.076 C 
ATOM     19  C   LIG    1        2.951   1.136   2.031  0.00  0.00    +0.039 C 
BRANCH  18  20
ATOM     20  C   LIG    1        2.869  -1.011   3.433  0.00  0.00    +0.041 C 
BRANCH  20  21
ATOM     21  C   LIG    1        2.104  -0.489   4.671  0.00  0.00    +0.125 C 
BRANCH  21  22
ATOM     22  C   LIG    1        2.409  -1.254   5.966  0.00  0.00    +0.305 C 
ATOM     23  O   LIG    1        3.194  -2.198   6.045  0.00  0.00    -0.251 OA
BRANCH  22  24
ATOM     24  O   LIG    1        1.697  -0.747   7.013  0.00  0.00    -0.481 OA
ATOM     25  H   LIG    1        1.876  -1.212   7.833  0.00  0.00    +0.295 HD
ENDBRANCH  22  24
ENDBRANCH  21  22
ENDBRANCH  20  21
ENDBRANCH  18  20
ENDBRANCH  16  17
ENDBRANCH   5  16
TORSDOF 8
