REMARK  Name = DB01238
REMARK                            x       y       z     vdW  Elec       q    Type
REMARK                         _______ _______ _______ _____ _____    ______ ____
ROOT
ATOM      1  C   LIG    1        0.266   0.345  -0.218  0.00  0.00    +0.019 C 
ENDROOT
BRANCH   1   2
ATOM      2  C   LIG    1       -0.034   1.861  -0.247  0.00  0.00    +0.084 C 
BRANCH   2   6
ATOM      3  N   LIG    1        0.320   4.462   3.197  0.00  0.00    -0.326 N 
ATOM      4  C   LIG    1        0.341   2.997   3.363  0.00  0.00    +0.120 C 
ATOM      5  C   LIG    1       -0.239   2.234   2.149  0.00  0.00    +0.103 C 
ATOM      6  N   LIG    1        0.477   2.589   0.920  0.00  0.00    -0.299 NA
ATOM      7  C   LIG    1        0.318   4.029   0.713  0.00  0.00    +0.103 C 
ATOM      8  C   LIG    1        0.915   4.823   1.898  0.00  0.00    +0.120 C 
BRANCH   3  16
ATOM      9 CL   LIG    1       -1.229   7.072   3.091  0.00  0.00    -0.080 Cl
ATOM     10  C   LIG    1       -0.125   6.575   4.338  0.00  0.00    +0.080 A 
ATOM     11  C   LIG    1        0.095   7.424   5.434  0.00  0.00    +0.061 A 
ATOM     12  C   LIG    1        0.942   7.028   6.468  0.00  0.00    +0.021 A 
ATOM     13  C   LIG    1        1.567   5.787   6.423  0.00  0.00    +0.003 A 
ATOM     14  C   LIG    1        1.354   4.940   5.338  0.00  0.00    +0.025 A 
ATOM     15 CL   LIG    1       -0.673   8.971   5.549  0.00  0.00    -0.082 Cl
ATOM     16  C   LIG    1        0.519   5.320   4.274  0.00  0.00    +0.050 A 
ENDBRANCH   3  16
ENDBRANCH   2   6
ENDBRANCH   1   2
BRANCH   1  17
ATOM     17  C   LIG    1        1.765  -0.009  -0.146  0.00  0.00    +0.042 C 
BRANCH  17  18
ATOM     18  C   LIG    1        2.022  -1.522  -0.143  0.00  0.00    +0.229 C 
BRANCH  18  19
ATOM     19  O   LIG    1        3.429  -1.747  -0.130  0.00  0.00    -0.492 OA
BRANCH  19  20
ATOM     20  C   LIG    1        3.907  -3.043  -0.109  0.00  0.00    +0.122 A 
ATOM     21  C   LIG    1        3.097  -4.190  -0.071  0.00  0.00    +0.046 A 
ATOM     22  C   LIG    1        3.670  -5.462  -0.053  0.00  0.00    +0.009 A 
ATOM     23  C   LIG    1        5.058  -5.618  -0.076  0.00  0.00    -0.025 A 
ATOM     24  C   LIG    1        5.866  -4.475  -0.099  0.00  0.00    +0.040 A 
ATOM     25  N   LIG    1        7.257  -4.605  -0.069  0.00  0.00    -0.285 N 
ATOM     26  H   LIG    1        7.810  -3.779  -0.242  0.00  0.00    +0.155 HD
ATOM     27  C   LIG    1        7.984  -5.692   0.269  0.00  0.00    +0.218 C 
ATOM     28  C   LIG    1        7.120  -6.928   0.641  0.00  0.00    +0.101 C 
ATOM     29  O   LIG    1        9.212  -5.680   0.314  0.00  0.00    -0.275 OA
ATOM     30  C   LIG    1        5.749  -6.974  -0.092  0.00  0.00    +0.046 C 
ATOM     31  C   LIG    1        5.294  -3.202  -0.122  0.00  0.00    +0.069 A 
ENDBRANCH  19  20
ENDBRANCH  18  19
ENDBRANCH  17  18
ENDBRANCH   1  17
TORSDOF 7
