REMARK  Name = DB01326
REMARK                            x       y       z     vdW  Elec       q    Type
REMARK                         _______ _______ _______ _____ _____    ______ ____
ROOT
ATOM      1  S   LIG    1        0.091  -3.238   0.304  0.00  0.00    -0.131 S 
ATOM      2  C   LIG    1        1.214  -4.601  -0.168  0.00  0.00    +0.104 C 
ATOM      3  C   LIG    1        2.242  -4.217  -1.253  0.00  0.00    -0.021 C 
ATOM      4  CA  LIG    1        2.654  -2.922  -1.422  0.00  0.00    +0.123 C 
ATOM      5  N   LIG    1        2.212  -1.898  -0.622  0.00  0.00    -0.249 N 
ATOM      6  C   LIG    1        2.148  -0.500  -0.643  0.00  0.00    +0.244 C 
ATOM      7  CA  LIG    1        1.180  -0.506   0.592  0.00  0.00    +0.191 C 
ATOM      8  O   LIG    1        2.647   0.362  -1.366  0.00  0.00    -0.273 OA
ATOM      9  C   LIG    1        1.425  -2.042   0.618  0.00  0.00    +0.169 C 
ENDROOT
BRANCH   7  10
ATOM     10  N   LIG    1       -0.226  -0.091   0.409  0.00  0.00    -0.299 N 
ATOM     11  H   LIG    1       -0.816  -0.325   1.193  0.00  0.00    +0.150 HD
ATOM     12  C   LIG    1       -0.812   0.676  -0.536  0.00  0.00    +0.247 C 
ATOM     13  O   LIG    1       -0.198   1.189  -1.473  0.00  0.00    -0.273 OA
BRANCH  12  14
ATOM     14  C   LIG    1       -2.342   0.875  -0.380  0.00  0.00    +0.230 C 
BRANCH  14  15
ATOM     15  C   LIG    1       -2.705   1.449   0.995  0.00  0.00    -0.010 A 
ATOM     16  C   LIG    1       -2.624   2.825   1.244  0.00  0.00    +0.006 A 
ATOM     17  C   LIG    1       -2.936   3.328   2.504  0.00  0.00    +0.000 A 
ATOM     18  C   LIG    1       -3.326   2.457   3.518  0.00  0.00    +0.000 A 
ATOM     19  C   LIG    1       -3.405   1.086   3.283  0.00  0.00    +0.000 A 
ATOM     20  C   LIG    1       -3.093   0.582   2.023  0.00  0.00    +0.006 A 
ENDBRANCH  14  15
BRANCH  14  21
ATOM     21  O   LIG    1       -2.843   1.663  -1.451  0.00  0.00    -0.378 OA
ATOM     22  H   LIG    1       -2.626   1.226  -2.278  0.00  0.00    +0.211 HD
ENDBRANCH  14  21
ENDBRANCH  12  14
ENDBRANCH   7  10
BRANCH   4  23
ATOM     23  C   LIG    1        3.580  -2.561  -2.484  0.00  0.00    +0.351 C 
ATOM     24  OXT LIG    1        3.354  -2.721  -3.683  0.00  0.00    -0.244 OA
BRANCH  23  25
ATOM     25  O   LIG    1        4.741  -2.030  -1.999  0.00  0.00    -0.476 OA
ATOM     26  H   LIG    1        5.356  -1.796  -2.697  0.00  0.00    +0.295 HD
ENDBRANCH  23  25
ENDBRANCH   4  23
BRANCH   3  27
ATOM     27  C   LIG    1        2.712  -5.417  -2.091  0.00  0.00    +0.111 C 
BRANCH  27  28
ATOM     28  S   LIG    1        3.443  -6.781  -1.124  0.00  0.00    -0.080 S 
BRANCH  28  29
ATOM     29  C   LIG    1        5.109  -6.217  -0.921  0.00  0.00    +0.209 A 
ATOM     30  N   LIG    1        5.628  -5.131  -1.444  0.00  0.00    -0.102 NA
ATOM     31  N   LIG    1        6.957  -5.096  -1.034  0.00  0.00    -0.022 NA
ATOM     32  N   LIG    1        7.233  -6.195  -0.247  0.00  0.00    -0.043 NA
ATOM     33  N   LIG    1        6.075  -6.858  -0.176  0.00  0.00    -0.223 N 
ATOM     34  C   LIG    1        6.006  -8.116   0.550  0.00  0.00    +0.177 C 
ENDBRANCH  28  29
ENDBRANCH  27  28
ENDBRANCH   3  27
TORSDOF 9
