REMARK  Name = DB01954
REMARK                            x       y       z     vdW  Elec       q    Type
REMARK                         _______ _______ _______ _____ _____    ______ ____
ROOT
ATOM      1  C   LIG    1       -0.107  -0.104  -0.073  0.00  0.00    +0.163 A 
ATOM      2  C   LIG    1       -0.779   1.127  -0.023  0.00  0.00    +0.162 A 
ATOM      3  C   LIG    1       -2.180   1.142   0.080  0.00  0.00    +0.049 A 
ATOM      4  C   LIG    1       -2.902  -0.048   0.133  0.00  0.00    +0.008 A 
ATOM      5  C   LIG    1       -2.243  -1.277   0.084  0.00  0.00    -0.039 A 
ATOM      6  C   LIG    1       -0.849  -1.296  -0.017  0.00  0.00    +0.053 A 
ENDROOT
BRANCH   5   7
ATOM      7  C   LIG    1       -3.039  -2.581   0.137  0.00  0.00    +0.045 C 
ATOM      8  C   LIG    1       -2.898  -3.481  -1.086  0.00  0.00    +0.112 C 
ATOM      9  N   LIG    1       -3.083  -4.822  -0.550  0.00  0.00    -0.315 N 
ATOM     10  H   LIG    1       -3.149  -5.626  -1.157  0.00  0.00    +0.149 HD
ATOM     11  C   LIG    1       -2.886  -4.937   0.775  0.00  0.00    +0.214 C 
ATOM     12  O   LIG    1       -2.844  -5.968   1.441  0.00  0.00    -0.276 OA
ATOM     13  C   LIG    1       -2.724  -3.512   1.305  0.00  0.00    +0.105 C 
ENDBRANCH   5   7
BRANCH   2  14
ATOM     14  O   LIG    1       -0.002   2.271  -0.081  0.00  0.00    -0.491 OA
ATOM     15  C   LIG    1       -0.629   3.548  -0.024  0.00  0.00    +0.277 C 
ENDBRANCH   2  14
BRANCH   1  16
ATOM     16  O   LIG    1        1.274  -0.060  -0.179  0.00  0.00    -0.485 OA
BRANCH  16  17
ATOM     17  C   LIG    1        2.041  -1.267  -0.235  0.00  0.00    +0.174 C 
ATOM     18  C   LIG    1        1.940  -1.907  -1.641  0.00  0.00    +0.044 C 
ATOM     19  C   LIG    1        3.361  -1.937  -2.215  0.00  0.00    +0.004 C 
ATOM     20  C   LIG    1        4.088  -0.810  -1.489  0.00  0.00    +0.004 C 
ATOM     21  C   LIG    1        3.520  -0.871  -0.070  0.00  0.00    +0.044 C 
ENDBRANCH  16  17
ENDBRANCH   1  16
TORSDOF 4
