REMARK  Name = DB01243
REMARK                            x       y       z     vdW  Elec       q    Type
REMARK                         _______ _______ _______ _____ _____    ______ ____
ROOT
ATOM      1 CL   LIG    1        5.911  -0.065   0.000  0.00  0.00    -0.083 Cl
ATOM      2  C   LIG    1        4.181   0.007   0.000  0.00  0.00    +0.052 A 
ATOM      3  C   LIG    1        3.467  -1.187   0.000  0.00  0.00    +0.044 A 
ATOM      4  C   LIG    1        2.076  -1.199   0.000  0.00  0.00    +0.086 A 
ATOM      5  C   LIG    1        1.355  -0.001   0.000  0.00  0.00    +0.161 A 
ATOM      6  C   LIG    1        2.051   1.244   0.000  0.00  0.00    +0.115 A 
ATOM      7  N   LIG    1        1.335   2.409   0.000  0.00  0.00    -0.251 NA
ATOM      8  C   LIG    1        2.003   3.587   0.000  0.00  0.00    +0.111 A 
ATOM      9  C   LIG    1        3.389   3.682   0.000  0.00  0.00    +0.020 A 
ATOM     10  C   LIG    1        4.140   2.510   0.000  0.00  0.00    +0.013 A 
ATOM     11 CL   LIG    1        1.264  -2.727   0.000  0.00  0.00    -0.080 Cl
ATOM     12  C   LIG    1        3.484   1.248   0.000  0.00  0.00    +0.022 A 
ENDROOT
BRANCH   5  13
ATOM     13  O   LIG    1       -0.020  -0.032   0.000  0.00  0.00    -0.503 OA
ATOM     14  H   LIG    1       -0.408   0.847   0.000  0.00  0.00    +0.292 HD
ENDBRANCH   5  13
TORSDOF 1
