REMARK  Name = DB01130
REMARK                            x       y       z     vdW  Elec       q    Type
REMARK                         _______ _______ _______ _____ _____    ______ ____
ROOT
ATOM      1  C   LIG    1       -0.200  -1.061   1.197  0.00  0.00    +0.020 C 
ATOM      2  C   LIG    1        0.654  -2.340   1.508  0.00  0.00    +0.016 C 
ATOM      3  C   LIG    1       -0.394  -0.186   2.480  0.00  0.00    +0.043 C 
ATOM      4  C   LIG    1       -1.223  -0.877   3.599  0.00  0.00    +0.120 C 
ATOM      5  C   LIG    1       -2.608  -1.396   3.062  0.00  0.00    +0.035 C 
ATOM      6  C   LIG    1       -2.474  -2.212   1.727  0.00  0.00    -0.000 C 
ATOM      7  C   LIG    1       -3.877  -2.527   1.155  0.00  0.00    +0.008 C 
ATOM      8  C   LIG    1       -4.774  -3.267   2.158  0.00  0.00    +0.032 C 
ATOM      9  C   LIG    1       -4.889  -2.421   3.425  0.00  0.00    -0.056 C 
ATOM     10  C   LIG    1       -6.081  -1.959   3.872  0.00  0.00    +0.051 C 
ATOM     11  C   LIG    1       -6.270  -1.115   5.052  0.00  0.00    +0.179 C 
ATOM     12  O   LIG    1       -7.372  -0.727   5.434  0.00  0.00    -0.288 OA
ATOM     13  C   LIG    1       -5.022  -0.773   5.729  0.00  0.00    +0.047 C 
ATOM     14  C   LIG    1       -3.809  -1.205   5.331  0.00  0.00    -0.012 C 
ATOM     15  C   LIG    1       -3.533  -2.115   4.123  0.00  0.00    +0.013 C 
ATOM     16  C   LIG    1       -2.971  -3.450   4.687  0.00  0.00    +0.020 C 
ATOM     17  C   LIG    1       -1.630  -1.403   0.701  0.00  0.00    +0.003 C 
ATOM     18  C   LIG    1       -1.452  -1.935  -0.727  0.00  0.00    +0.009 C 
ATOM     19  C   LIG    1       -0.189  -1.227  -1.256  0.00  0.00    +0.057 C 
ATOM     20  C   LIG    1        0.346  -0.323  -0.090  0.00  0.00    +0.183 C 
ENDROOT
BRANCH   4  21
ATOM     21  O   LIG    1       -0.445  -1.851   4.265  0.00  0.00    -0.391 OA
ATOM     22  H   LIG    1       -0.955  -2.196   5.001  0.00  0.00    +0.210 HD
ENDBRANCH   4  21
BRANCH  20  23
ATOM     23  C   LIG    1        1.902  -0.132  -0.099  0.00  0.00    +0.214 C 
ATOM     24  O   LIG    1        2.614  -0.712  -0.921  0.00  0.00    -0.289 OA
BRANCH  23  25
ATOM     25  C   LIG    1        2.521   0.794   0.962  0.00  0.00    +0.310 C 
BRANCH  25  26
ATOM     26  O   LIG    1        3.887   1.071   0.670  0.00  0.00    -0.457 OA
BRANCH  26  27
ATOM     27  C   LIG    1        4.604   1.896   1.462  0.00  0.00    +0.307 C 
ATOM     28  O   LIG    1        4.189   2.485   2.462  0.00  0.00    -0.251 OA
BRANCH  27  29
ATOM     29  C   LIG    1        6.053   2.044   0.999  0.00  0.00    +0.117 C 
ATOM     30  C   LIG    1        6.180   2.806  -0.331  0.00  0.00    +0.015 C 
ENDBRANCH  27  29
ENDBRANCH  26  27
ENDBRANCH  25  26
ENDBRANCH  23  25
ENDBRANCH  20  23
BRANCH  20  31
ATOM     31  O   LIG    1       -0.240   1.007  -0.149  0.00  0.00    -0.419 OA
BRANCH  31  32
ATOM     32  C   LIG    1       -0.118   1.909  -1.171  0.00  0.00    +0.511 C 
ATOM     33  O   LIG    1        0.524   1.754  -2.213  0.00  0.00    -0.203 OA
BRANCH  32  34
ATOM     34  O   LIG    1       -0.827   3.004  -0.826  0.00  0.00    -0.434 OA
BRANCH  34  35
ATOM     35  C   LIG    1       -0.923   4.132  -1.692  0.00  0.00    +0.232 C 
ATOM     36  C   LIG    1       -1.975   3.921  -2.793  0.00  0.00    +0.048 C 
ENDBRANCH  34  35
ENDBRANCH  32  34
ENDBRANCH  31  32
ENDBRANCH  20  31
TORSDOF 10
