REMARK  Name = DB01420
REMARK                            x       y       z     vdW  Elec       q    Type
REMARK                         _______ _______ _______ _____ _____    ______ ____
ROOT
ATOM      1  C   LIG    1        1.494   0.039   0.178  0.00  0.00    +0.183 C 
ATOM      2  C   LIG    1        2.136   0.725   1.410  0.00  0.00    +0.045 C 
ATOM      3  C   LIG    1        3.304  -0.185   1.839  0.00  0.00    +0.008 C 
ATOM      4  C   LIG    1        3.366  -1.260   0.744  0.00  0.00    +0.002 C 
ATOM      5  C   LIG    1        4.076  -2.615   1.017  0.00  0.00    -0.003 C 
ATOM      6  C   LIG    1        5.525  -2.414   1.494  0.00  0.00    +0.008 C 
ATOM      7  C   LIG    1        6.191  -3.760   1.806  0.00  0.00    +0.032 C 
ATOM      8  C   LIG    1        6.196  -4.637   0.551  0.00  0.00    -0.060 C 
ATOM      9  C   LIG    1        7.342  -5.203   0.104  0.00  0.00    +0.046 C 
ATOM     10  C   LIG    1        7.436  -6.095  -1.042  0.00  0.00    +0.156 C 
ATOM     11  C   LIG    1        6.105  -6.607  -1.598  0.00  0.00    +0.080 C 
ATOM     12  C   LIG    1        5.022  -5.513  -1.532  0.00  0.00    +0.019 C 
ATOM     13  O   LIG    1        8.521  -6.495  -1.461  0.00  0.00    -0.293 OA
ATOM     14  C   LIG    1        4.809  -4.865  -0.122  0.00  0.00    -0.007 C 
ATOM     15  C   LIG    1        4.007  -5.849   0.773  0.00  0.00    +0.016 C 
ATOM     16  C   LIG    1        4.081  -3.473  -0.293  0.00  0.00    +0.002 C 
ATOM     17  C   LIG    1        2.648  -3.581  -0.916  0.00  0.00    +0.005 C 
ATOM     18  C   LIG    1        1.948  -2.207  -1.067  0.00  0.00    +0.011 C 
ATOM     19  C   LIG    1        1.902  -1.451   0.284  0.00  0.00    +0.008 C 
ATOM     20  C   LIG    1        1.003  -2.197   1.323  0.00  0.00    +0.015 C 
ENDROOT
BRANCH   1  21
ATOM     21  O   LIG    1        0.077   0.214   0.104  0.00  0.00    -0.461 OA
BRANCH  21  22
ATOM     22  C   LIG    1       -0.475   1.389  -0.278  0.00  0.00    +0.307 C 
ATOM     23  O   LIG    1        0.136   2.408  -0.606  0.00  0.00    -0.251 OA
BRANCH  22  24
ATOM     24  C   LIG    1       -2.003   1.347  -0.271  0.00  0.00    +0.117 C 
ATOM     25  C   LIG    1       -2.587   1.319   1.151  0.00  0.00    +0.015 C 
ENDBRANCH  22  24
ENDBRANCH  21  22
ENDBRANCH   1  21
TORSDOF 3
