REMARK  Name = DB01051
REMARK                            x       y       z     vdW  Elec       q    Type
REMARK                         _______ _______ _______ _____ _____    ______ ____
ROOT
ATOM      1  C   LIG    1       -2.378   0.991   0.969  0.00  0.00    +0.149 A 
ATOM      2  O   LIG    1       -2.983   2.206   1.277  0.00  0.00    -0.420 OA
ATOM      3  C   LIG    1       -4.354   2.399   1.243  0.00  0.00    +0.362 A 
ATOM      4  C   LIG    1       -5.181   1.237   0.818  0.00  0.00    +0.162 A 
ATOM      5  C   LIG    1       -4.603   0.046   0.539  0.00  0.00    +0.156 A 
ATOM      6  O   LIG    1       -4.734   3.520   1.579  0.00  0.00    -0.243 OA
ATOM      7  C   LIG    1       -0.976   0.920   1.043  0.00  0.00    +0.034 A 
ATOM      8  C   LIG    1       -0.169   2.161   1.422  0.00  0.00    +0.051 C 
ATOM      9  C   LIG    1       -0.323  -0.292   0.754  0.00  0.00    +0.130 A 
ATOM     10  C   LIG    1       -1.094  -1.413   0.403  0.00  0.00    +0.047 A 
ATOM     11  C   LIG    1       -2.481  -1.335   0.325  0.00  0.00    +0.019 A 
ATOM     12  C   LIG    1       -3.137  -0.132   0.604  0.00  0.00    +0.061 A 
ENDROOT
BRANCH   4  13
ATOM     13  N   LIG    1       -6.547   1.358   0.765  0.00  0.00    -0.273 N 
ATOM     14  H   LIG    1       -7.069   0.702   1.327  0.00  0.00    +0.155 HD
ATOM     15  C   LIG    1       -7.253   2.215  -0.010  0.00  0.00    +0.249 C 
ATOM     16  O   LIG    1       -6.731   3.026  -0.780  0.00  0.00    -0.270 OA
BRANCH  15  17
ATOM     17  C   LIG    1       -8.760   2.146   0.122  0.00  0.00    +0.038 A 
ATOM     18  C   LIG    1       -9.402   1.038   0.700  0.00  0.00    +0.016 A 
ATOM     19  C   LIG    1      -10.791   0.996   0.807  0.00  0.00    +0.046 A 
ATOM     20  C   LIG    1      -11.567   2.055   0.338  0.00  0.00    +0.120 A 
ATOM     21  C   LIG    1      -10.949   3.168  -0.253  0.00  0.00    -0.002 A 
ATOM     22  C   LIG    1       -9.553   3.203  -0.349  0.00  0.00    +0.020 A 
BRANCH  20  23
ATOM     23  O   LIG    1      -12.931   1.983   0.470  0.00  0.00    -0.506 OA
ATOM     24  H   LIG    1      -13.221   1.173   0.894  0.00  0.00    +0.292 HD
ENDBRANCH  20  23
BRANCH  21  25
ATOM     25  C   LIG    1      -11.761   4.352  -0.770  0.00  0.00    +0.066 C 
BRANCH  25  26
ATOM     26  C   LIG    1      -12.543   4.033  -2.035  0.00  0.00    -0.023 C 
ATOM     27  C   LIG    1      -12.225   4.362  -3.306  0.00  0.00    -0.079 C 
ATOM     28  C   LIG    1      -10.961   5.106  -3.717  0.00  0.00    +0.038 C 
ATOM     29  C   LIG    1      -13.130   3.987  -4.468  0.00  0.00    +0.038 C 
ENDBRANCH  25  26
ENDBRANCH  21  25
ENDBRANCH  15  17
ENDBRANCH   4  13
BRANCH   5  30
ATOM     30  O   LIG    1       -5.304  -1.068   0.175  0.00  0.00    -0.504 OA
ATOM     31  H   LIG    1       -4.694  -1.789   0.007  0.00  0.00    +0.292 HD
ENDBRANCH   5  30
BRANCH   9  32
ATOM     32  O   LIG    1        1.060  -0.317   0.846  0.00  0.00    -0.460 OA
BRANCH  32  33
ATOM     33  C   LIG    1        1.786  -1.431   0.411  0.00  0.00    +0.340 C 
ATOM     34  O   LIG    1        1.680  -2.465   1.365  0.00  0.00    -0.331 OA
ATOM     35  C   LIG    1        2.399  -3.683   1.097  0.00  0.00    +0.098 C 
ATOM     36  C   LIG    1        3.919  -3.366   0.884  0.00  0.00    +0.192 C 
ATOM     37  C   LIG    1        4.142  -2.186  -0.101  0.00  0.00    +0.244 C 
ATOM     38  C   LIG    1        1.783  -4.422  -0.120  0.00  0.00    +0.044 C 
ATOM     39  C   LIG    1        2.207  -4.521   2.382  0.00  0.00    +0.044 C 
ATOM     40  C   LIG    1        3.253  -0.990   0.304  0.00  0.00    +0.226 C 
BRANCH  36  41
ATOM     41  O   LIG    1        4.555  -3.061   2.130  0.00  0.00    -0.373 OA
ATOM     42  C   LIG    1        5.963  -3.261   2.177  0.00  0.00    +0.194 C 
ENDBRANCH  36  41
BRANCH  40  43
ATOM     43  O   LIG    1        3.441   0.111  -0.567  0.00  0.00    -0.382 OA
ATOM     44  H   LIG    1        3.514  -0.220  -1.465  0.00  0.00    +0.210 HD
ENDBRANCH  40  43
BRANCH  37  45
ATOM     45  O   LIG    1        3.923  -2.557  -1.468  0.00  0.00    -0.442 OA
BRANCH  45  46
ATOM     46  C   LIG    1        4.835  -3.263  -2.174  0.00  0.00    +0.398 C 
ATOM     47  O   LIG    1        5.920  -3.655  -1.748  0.00  0.00    -0.227 OA
ATOM     48  N   LIG    1        4.358  -3.480  -3.447  0.00  0.00    -0.295 N 
ATOM     49  H   LIG    1        3.454  -3.115  -3.708  0.00  0.00    +0.148 HD
ATOM     50  H   LIG    1        4.923  -3.998  -4.104  0.00  0.00    +0.148 HD
ENDBRANCH  45  46
ENDBRANCH  37  45
ENDBRANCH  32  33
ENDBRANCH   9  32
TORSDOF 12
