REMARK  Name = DB01079
REMARK                            x       y       z     vdW  Elec       q    Type
REMARK                         _______ _______ _______ _____ _____    ______ ____
ROOT
ATOM      1  C   LIG    1       -2.576  -2.294   0.143  0.00  0.00    +0.158 C 
ATOM      2  N   LIG    1       -2.079  -1.132   0.066  0.00  0.00    -0.119 NA
ENDROOT
BRANCH   1   5
ATOM      3  C   LIG    1       -5.159  -0.145   0.000  0.00  0.00    +0.056 A 
ATOM      4  C   LIG    1       -5.100  -1.549   0.069  0.00  0.00    +0.012 A 
ATOM      5  C   LIG    1       -4.019  -2.515   0.132  0.00  0.00    +0.021 A 
ATOM      6  C   LIG    1       -4.646  -3.748   0.185  0.00  0.00    +0.093 A 
ATOM      7  N   LIG    1       -6.007  -3.606   0.157  0.00  0.00    -0.360 N 
ATOM      8  H   LIG    1       -6.638  -4.394   0.186  0.00  0.00    +0.165 HD
ATOM      9  C   LIG    1       -6.332  -2.272   0.088  0.00  0.00    +0.047 A 
ATOM     10  C   LIG    1       -7.577  -1.638   0.041  0.00  0.00    +0.030 A 
ATOM     11  C   LIG    1       -7.575  -0.246  -0.026  0.00  0.00    +0.047 A 
ATOM     12  C   LIG    1       -6.402   0.505  -0.047  0.00  0.00    +0.121 A 
BRANCH  12  13
ATOM     13  O   LIG    1       -6.557   1.877  -0.116  0.00  0.00    -0.495 OA
ATOM     14  C   LIG    1       -5.401   2.708  -0.141  0.00  0.00    +0.277 C 
ENDBRANCH  12  13
ENDBRANCH   1   5
BRANCH   2  15
ATOM     15  N   LIG    1       -0.682  -1.045   0.098  0.00  0.00    -0.155 N 
ATOM     16  H   LIG    1       -0.198  -1.925   0.190  0.00  0.00    +0.292 HD
BRANCH  15  17
ATOM     17  C   LIG    1        0.052   0.172  -0.003  0.00  0.00    +0.402 C 
ATOM     18  N   LIG    1       -0.487   1.306  -0.141  0.00  0.00    -0.128 NA
ATOM     19  H   LIG    1        0.185   2.058  -0.172  0.00  0.00    +0.306 HD
BRANCH  17  20
ATOM     20  N   LIG    1        1.467   0.049   0.121  0.00  0.00    -0.274 N 
ATOM     21  H   LIG    1        2.007   0.879  -0.075  0.00  0.00    +0.258 HD
BRANCH  20  22
ATOM     22  C   LIG    1        2.164  -1.190  -0.216  0.00  0.00    +0.196 C 
BRANCH  22  23
ATOM     23  C   LIG    1        3.651  -1.072   0.156  0.00  0.00    +0.037 C 
BRANCH  23  24
ATOM     24  C   LIG    1        4.447  -2.347  -0.173  0.00  0.00    +0.003 C 
BRANCH  24  25
ATOM     25  C   LIG    1        5.934  -2.238   0.208  0.00  0.00    -0.003 C 
ATOM     26  C   LIG    1        6.728  -3.514  -0.104  0.00  0.00    +0.004 C 
ENDBRANCH  24  25
ENDBRANCH  23  24
ENDBRANCH  22  23
ENDBRANCH  20  22
ENDBRANCH  17  20
ENDBRANCH  15  17
ENDBRANCH   2  15
TORSDOF 9
