REMARK  Name = DB01077
REMARK                            x       y       z     vdW  Elec       q    Type
REMARK                         _______ _______ _______ _____ _____    ______ ____
ROOT
ATOM      1  C   LIG    1        0.122   0.155   0.031  0.00  0.00    +0.264 C 
ATOM      2  C   LIG    1       -0.449  -0.818  -1.022  0.00  0.00    +0.068 C 
ENDROOT
BRANCH   1   3
ATOM      3  O   LIG    1       -0.255  -0.364   1.295  0.00  0.00    -0.367 OA
ATOM      4  H   LIG    1       -1.211  -0.446   1.320  0.00  0.00    +0.212 HD
ENDBRANCH   1   3
BRANCH   1   5
ATOM      5  P   LIG    1       -0.765   1.814  -0.120  0.00  0.00    +0.371 P 
ATOM      6  O   LIG    1       -0.274   2.720  -1.225  0.00  0.00    -0.255 OA
BRANCH   5   7
ATOM      7  O   LIG    1       -2.415   1.368  -0.273  0.00  0.00    -0.322 OA
ATOM      8  H   LIG    1       -3.095   1.941  -0.676  0.00  0.00    +0.220 HD
ENDBRANCH   5   7
BRANCH   5   9
ATOM      9  O   LIG    1       -0.574   2.477   1.452  0.00  0.00    -0.322 OA
ATOM     10  H   LIG    1        0.292   2.612   1.883  0.00  0.00    +0.220 HD
ENDBRANCH   5   9
ENDBRANCH   1   5
BRANCH   1  11
ATOM     11  P   LIG    1        2.006   0.073  -0.011  0.00  0.00    +0.371 P 
ATOM     12  O   LIG    1        2.671   0.816  -1.147  0.00  0.00    -0.255 OA
BRANCH  11  13
ATOM     13  O   LIG    1        2.421   0.677   1.541  0.00  0.00    -0.322 OA
ATOM     14  H   LIG    1        3.293   1.060   1.756  0.00  0.00    +0.220 HD
ENDBRANCH  11  13
BRANCH  11  15
ATOM     15  O   LIG    1        2.313  -1.615   0.012  0.00  0.00    -0.322 OA
ATOM     16  H   LIG    1        1.623  -2.293   0.148  0.00  0.00    +0.220 HD
ENDBRANCH  11  15
ENDBRANCH   1  11
TORSDOF 7
