REMARK  Name = DB01141
REMARK                            x       y       z     vdW  Elec       q    Type
REMARK                         _______ _______ _______ _____ _____    ______ ____
ROOT
ATOM      1  N   LIG    1       -3.694  -2.653  -1.462  0.00  0.00    -0.285 N 
ATOM      2  C   LIG    1       -3.179  -3.182  -2.726  0.00  0.00    +0.114 C 
ATOM      3  C   LIG    1       -3.664  -4.635  -2.737  0.00  0.00    +0.034 C 
ATOM      4  C   LIG    1       -5.030  -4.816  -3.433  0.00  0.00    +0.012 C 
ATOM      5  C   LIG    1       -3.624  -5.048  -1.258  0.00  0.00    +0.148 C 
ATOM      6  C   LIG    1       -4.375  -1.486  -1.296  0.00  0.00    +0.239 C 
ATOM      7  O   LIG    1       -4.968  -1.222  -0.247  0.00  0.00    -0.273 OA
ATOM      8  C   LIG    1       -4.383  -0.370  -2.372  0.00  0.00    +0.188 C 
ATOM      9  N   LIG    1       -3.059   0.144  -2.758  0.00  0.00    -0.300 N 
ATOM     10  H   LIG    1       -2.682   0.794  -2.083  0.00  0.00    +0.150 HD
ATOM     11  C   LIG    1       -2.362   0.010  -3.902  0.00  0.00    +0.237 C 
ATOM     12  O   LIG    1       -2.672  -0.729  -4.832  0.00  0.00    -0.274 OA
ATOM     13  C   LIG    1       -1.137   0.941  -4.072  0.00  0.00    +0.190 C 
ATOM     14  N   LIG    1       -1.432   2.263  -3.498  0.00  0.00    -0.300 N 
ATOM     15  H   LIG    1       -1.021   2.440  -2.592  0.00  0.00    +0.150 HD
ATOM     16  C   LIG    1       -2.247   3.196  -4.026  0.00  0.00    +0.234 C 
ATOM     17  O   LIG    1       -2.760   3.075  -5.138  0.00  0.00    -0.274 OA
ATOM     18  C   LIG    1       -2.551   4.464  -3.185  0.00  0.00    +0.164 C 
ATOM     19  C   LIG    1       -1.772   5.689  -3.697  0.00  0.00    +0.065 C 
ATOM     20  C   LIG    1       -1.448   6.480  -2.442  0.00  0.00    +0.134 C 
ATOM     21  C   LIG    1       -1.224   5.372  -1.401  0.00  0.00    +0.140 C 
ATOM     22  N   LIG    1       -2.248   4.372  -1.730  0.00  0.00    -0.286 N 
ATOM     23  C   LIG    1       -2.984   3.587  -0.887  0.00  0.00    +0.239 C 
ATOM     24  C   LIG    1       -2.605   3.232   0.591  0.00  0.00    +0.187 C 
ATOM     25  N   LIG    1       -1.984   1.904   0.722  0.00  0.00    -0.300 N 
ATOM     26  H   LIG    1       -2.478   1.262   1.325  0.00  0.00    +0.150 HD
ATOM     27  C   LIG    1       -0.840   1.490   0.144  0.00  0.00    +0.234 C 
ATOM     28  O   LIG    1       -0.181   2.196  -0.623  0.00  0.00    -0.274 OA
ATOM     29  C   LIG    1       -0.360   0.042   0.442  0.00  0.00    +0.162 C 
ATOM     30  C   LIG    1       -0.937  -0.577   1.753  0.00  0.00    +0.067 C 
ATOM     31  C   LIG    1       -0.337  -1.935   2.209  0.00  0.00    +0.163 C 
ATOM     32  C   LIG    1       -0.272  -3.050   1.117  0.00  0.00    +0.231 C 
ATOM     33  N   LIG    1       -1.462  -3.239   0.282  0.00  0.00    -0.287 N 
ATOM     34  H   LIG    1       -1.287  -3.212  -0.712  0.00  0.00    +0.151 HD
ATOM     35  C   LIG    1       -2.707  -3.587   0.662  0.00  0.00    +0.238 C 
ATOM     36  O   LIG    1       -3.038  -3.779   1.831  0.00  0.00    -0.274 OA
ATOM     37  O   LIG    1       -3.975   2.985  -1.305  0.00  0.00    -0.273 OA
ATOM     38  C   LIG    1       -3.765  -3.736  -0.456  0.00  0.00    +0.191 C 
ENDROOT
BRANCH  29  39
ATOM     39  N   LIG    1        1.098  -0.099   0.299  0.00  0.00    -0.300 N 
ATOM     40  H   LIG    1        1.399  -0.673  -0.474  0.00  0.00    +0.150 HD
ATOM     41  C   LIG    1        2.043   0.473   1.073  0.00  0.00    +0.245 C 
ATOM     42  O   LIG    1        1.773   1.182   2.045  0.00  0.00    -0.270 OA
BRANCH  41  43
ATOM     43  C   LIG    1        3.481   0.185   0.697  0.00  0.00    +0.037 A 
ATOM     44  C   LIG    1        3.826  -0.296  -0.575  0.00  0.00    +0.014 A 
ATOM     45  C   LIG    1        5.157  -0.543  -0.900  0.00  0.00    +0.011 A 
ATOM     46  C   LIG    1        6.174  -0.313   0.035  0.00  0.00    +0.004 A 
ATOM     47  C   LIG    1        5.831   0.168   1.302  0.00  0.00    +0.011 A 
ATOM     48  C   LIG    1        4.500   0.415   1.630  0.00  0.00    +0.014 A 
BRANCH  46  49
ATOM     49  C   LIG    1        7.615  -0.570  -0.303  0.00  0.00    +0.114 A 
ATOM     50  C   LIG    1        8.707  -0.601   0.570  0.00  0.00    +0.081 A 
ATOM     51  C   LIG    1        9.813  -0.870  -0.211  0.00  0.00    +0.168 A 
ATOM     52  O   LIG    1        9.390  -0.995  -1.495  0.00  0.00    -0.354 OA
ATOM     53  N   LIG    1        8.008  -0.806  -1.540  0.00  0.00    -0.078 NA
BRANCH  51  54
ATOM     54  C   LIG    1       11.270  -1.036   0.070  0.00  0.00    +0.020 A 
ATOM     55  C   LIG    1       11.737  -0.909   1.381  0.00  0.00    +0.015 A 
ATOM     56  C   LIG    1       13.092  -1.061   1.663  0.00  0.00    +0.046 A 
ATOM     57  C   LIG    1       14.002  -1.343   0.631  0.00  0.00    +0.121 A 
ATOM     58  C   LIG    1       13.530  -1.469  -0.675  0.00  0.00    +0.046 A 
ATOM     59  C   LIG    1       12.175  -1.317  -0.957  0.00  0.00    +0.015 A 
BRANCH  57  60
ATOM     60  O   LIG    1       15.362  -1.509   0.814  0.00  0.00    -0.492 OA
BRANCH  60  61
ATOM     61  C   LIG    1       15.911  -1.395   2.124  0.00  0.00    +0.229 C 
BRANCH  61  62
ATOM     62  C   LIG    1       17.428  -1.623   2.043  0.00  0.00    +0.041 C 
BRANCH  62  63
ATOM     63  C   LIG    1       18.126  -1.517   3.411  0.00  0.00    +0.003 C 
BRANCH  63  64
ATOM     64  C   LIG    1       19.645  -1.746   3.328  0.00  0.00    -0.003 C 
ATOM     65  C   LIG    1       20.342  -1.644   4.691  0.00  0.00    +0.004 C 
ENDBRANCH  63  64
ENDBRANCH  62  63
ENDBRANCH  61  62
ENDBRANCH  60  61
ENDBRANCH  57  60
ENDBRANCH  51  54
ENDBRANCH  46  49
ENDBRANCH  41  43
ENDBRANCH  29  39
BRANCH   5  66
ATOM     66  O   LIG    1       -4.514  -6.074  -0.861  0.00  0.00    -0.389 OA
ATOM     67  H   LIG    1       -4.297  -6.339   0.036  0.00  0.00    +0.210 HD
ENDBRANCH   5  66
BRANCH  20  68
ATOM     68  O   LIG    1       -2.573   7.264  -2.077  0.00  0.00    -0.390 OA
ATOM     69  H   LIG    1       -3.369   6.784  -2.317  0.00  0.00    +0.210 HD
ENDBRANCH  20  68
BRANCH  24  70
ATOM     70  C   LIG    1       -1.958   4.343   1.481  0.00  0.00    +0.141 C 
ATOM     71  C   LIG    1       -2.195   4.092   2.981  0.00  0.00    +0.040 C 
BRANCH  70  72
ATOM     72  O   LIG    1       -0.552   4.446   1.335  0.00  0.00    -0.390 OA
ATOM     73  H   LIG    1       -0.146   3.651   1.690  0.00  0.00    +0.210 HD
ENDBRANCH  70  72
ENDBRANCH  24  70
BRANCH  31  74
ATOM     74  O   LIG    1       -1.066  -2.353   3.349  0.00  0.00    -0.387 OA
ATOM     75  H   LIG    1       -1.940  -2.634   3.064  0.00  0.00    +0.210 HD
ENDBRANCH  31  74
BRANCH  32  76
ATOM     76  O   LIG    1        0.240  -4.261   1.641  0.00  0.00    -0.372 OA
ATOM     77  H   LIG    1        1.087  -4.082   2.057  0.00  0.00    +0.212 HD
ENDBRANCH  32  76
BRANCH   8  78
ATOM     78  C   LIG    1       -5.537  -0.444  -3.434  0.00  0.00    +0.152 C 
BRANCH  78  79
ATOM     79  O   LIG    1       -5.394  -1.520  -4.339  0.00  0.00    -0.389 OA
ATOM     80  H   LIG    1       -4.497  -1.511  -4.683  0.00  0.00    +0.210 HD
ENDBRANCH  78  79
BRANCH  78  81
ATOM     81  C   LIG    1       -5.764   0.842  -4.279  0.00  0.00    +0.129 C 
BRANCH  81  82
ATOM     82  C   LIG    1       -6.246   2.073  -3.497  0.00  0.00    +0.213 C 
ATOM     83  N   LIG    1       -6.026   3.265  -4.056  0.00  0.00    -0.329 N 
ATOM     84  H   LIG    1       -5.553   3.334  -4.945  0.00  0.00    +0.145 HD
ATOM     85  H   LIG    1       -6.331   4.106  -3.587  0.00  0.00    +0.145 HD
ATOM     86  O   LIG    1       -6.820   1.964  -2.415  0.00  0.00    -0.276 OA
ENDBRANCH  81  82
ENDBRANCH  78  81
ENDBRANCH   8  78
BRANCH  13  87
ATOM     87  C   LIG    1        0.196   0.363  -3.492  0.00  0.00    +0.176 C 
BRANCH  87  88
ATOM     88  O   LIG    1        1.245   1.280  -3.763  0.00  0.00    -0.387 OA
ATOM     89  H   LIG    1        1.904   1.210  -3.068  0.00  0.00    +0.210 HD
ENDBRANCH  87  88
BRANCH  87  90
ATOM     90  C   LIG    1        0.661  -1.055  -3.956  0.00  0.00    +0.175 C 
BRANCH  90  91
ATOM     91  C   LIG    1        0.598  -1.318  -5.469  0.00  0.00    -0.013 A 
ATOM     92  C   LIG    1       -0.257  -2.288  -6.015  0.00  0.00    +0.010 A 
ATOM     93  C   LIG    1       -0.297  -2.509  -7.390  0.00  0.00    +0.049 A 
ATOM     94  C   LIG    1        0.527  -1.775  -8.242  0.00  0.00    +0.161 A 
ATOM     95  C   LIG    1        1.402  -0.820  -7.713  0.00  0.00    +0.200 A 
ATOM     96  C   LIG    1        1.427  -0.593  -6.334  0.00  0.00    +0.058 A 
BRANCH  94  97
ATOM     97  O   LIG    1        0.471  -2.001  -9.593  0.00  0.00    -0.503 OA
ATOM     98  H   LIG    1       -0.166  -2.677  -9.835  0.00  0.00    +0.292 HD
ENDBRANCH  94  97
BRANCH  95  99
ATOM     99  O   LIG    1        2.221  -0.089  -8.534  0.00  0.00    -0.321 OA
BRANCH  99 100
ATOM    100  S   LIG    1        3.760  -0.674  -8.825  0.00  0.00    +0.251 S 
ATOM    101  O   LIG    1        4.448   0.289  -9.690  0.00  0.00    -0.108 OA
ATOM    102  O   LIG    1        3.675  -2.095  -9.185  0.00  0.00    -0.108 OA
BRANCH 100 103
ATOM    103  O   LIG    1        4.416  -0.559  -7.303  0.00  0.00    -0.222 OA
ATOM    104  H   LIG    1        4.620  -1.445  -6.945  0.00  0.00    +0.248 HD
ENDBRANCH 100 103
ENDBRANCH  99 100
ENDBRANCH  95  99
ENDBRANCH  90  91
BRANCH  90 105
ATOM    105  O   LIG    1        0.019  -2.038  -3.162  0.00  0.00    -0.385 OA
ATOM    106  H   LIG    1       -0.921  -1.844  -3.145  0.00  0.00    +0.210 HD
ENDBRANCH  90 105
ENDBRANCH  87  90
ENDBRANCH  13  87
TORSDOF 28
