REMARK  Name = DB01544
REMARK                            x       y       z     vdW  Elec       q    Type
REMARK                         _______ _______ _______ _____ _____    ______ ____
ROOT
ATOM      1  C   LIG    1       -2.718   0.461   1.235  0.00  0.00    +0.078 C 
ATOM      2  C   LIG    1       -1.968   1.511   0.485  0.00  0.00    +0.024 A 
ATOM      3  C   LIG    1       -2.608   2.746   0.273  0.00  0.00    +0.044 A 
ATOM      4  C   LIG    1       -1.984   3.814  -0.380  0.00  0.00    +0.122 A 
ATOM      5  C   LIG    1       -0.674   3.635  -0.825  0.00  0.00    +0.034 A 
ATOM      6  C   LIG    1       -0.024   2.423  -0.632  0.00  0.00    +0.026 A 
ATOM      7  C   LIG    1       -0.648   1.323  -0.021  0.00  0.00    +0.045 A 
ATOM      8  N   LIG    1        0.092   0.128   0.238  0.00  0.00    -0.272 N 
ATOM      9  C   LIG    1        1.544   0.225   0.474  0.00  0.00    +0.138 C 
ATOM     10  C   LIG    1       -0.376  -1.153   0.107  0.00  0.00    +0.241 C 
ATOM     11  C   LIG    1       -1.896  -1.259  -0.152  0.00  0.00    +0.238 C 
ATOM     12  O   LIG    1        0.307  -2.178   0.184  0.00  0.00    -0.273 OA
ATOM     13  N   LIG    1       -2.697  -0.792   0.969  0.00  0.00    -0.273 NA
ENDROOT
BRANCH   1  20
ATOM     14  F   LIG    1       -5.590   0.428   1.222  0.00  0.00    -0.205 F 
ATOM     15  C   LIG    1       -4.939   0.881   2.321  0.00  0.00    +0.133 A 
ATOM     16  C   LIG    1       -5.686   1.332   3.411  0.00  0.00    +0.039 A 
ATOM     17  C   LIG    1       -5.045   1.817   4.551  0.00  0.00    +0.003 A 
ATOM     18  C   LIG    1       -3.652   1.854   4.604  0.00  0.00    +0.001 A 
ATOM     19  C   LIG    1       -2.899   1.405   3.519  0.00  0.00    +0.013 A 
ATOM     20  C   LIG    1       -3.535   0.910   2.373  0.00  0.00    +0.036 A 
ENDBRANCH   1  20
BRANCH   4  21
ATOM     21  N   LIG    1       -2.688   5.103  -0.584  0.00  0.00    +0.006 N 
ATOM     22  O   LIG    1       -2.098   6.009  -1.166  0.00  0.00    -0.130 OA
BRANCH  21  23
ATOM     23  O   LIG    1       -3.837   5.220  -0.165  0.00  0.00    -0.396 OA
ATOM     24  H   LIG    1       -4.299   6.026  -0.284  0.00  0.00    +0.329 HD
ENDBRANCH  21  23
ENDBRANCH   4  21
TORSDOF 3
