REMARK  Name = DB01102
REMARK                            x       y       z     vdW  Elec       q    Type
REMARK                         _______ _______ _______ _____ _____    ______ ____
ROOT
ATOM      1  C   LIG    1       -0.587   1.503  -0.157  0.00  0.00    +0.117 C 
ENDROOT
BRANCH   1   2
ATOM      2  N   LIG    1       -0.066   0.148  -0.015  0.00  0.00    -0.313 NA
ATOM      3  H   LIG    1       -0.495  -0.455  -0.703  0.00  0.00    +0.122 HD
BRANCH   2   4
ATOM      4  C   LIG    1        1.381   0.130  -0.172  0.00  0.00    +0.081 C 
BRANCH   4   5
ATOM      5  C   LIG    1        1.901  -1.315  -0.091  0.00  0.00    +0.015 C 
BRANCH   5   6
ATOM      6  C   LIG    1        3.435  -1.396  -0.211  0.00  0.00    +0.006 C 
BRANCH   6   7
ATOM      7  C   LIG    1        3.996  -2.831  -0.148  0.00  0.00    +0.035 C 
BRANCH   7   8
ATOM      8  C   LIG    1        3.592  -3.698  -1.334  0.00  0.00    -0.047 A 
ATOM      9  C   LIG    1        4.240  -3.542  -2.562  0.00  0.00    +0.007 A 
ATOM     10  C   LIG    1        3.870  -4.328  -3.650  0.00  0.00    +0.045 A 
ATOM     11  C   LIG    1        2.852  -5.270  -3.508  0.00  0.00    +0.117 A 
ATOM     12  C   LIG    1        2.203  -5.431  -2.285  0.00  0.00    +0.045 A 
ATOM     13  C   LIG    1        2.573  -4.645  -1.196  0.00  0.00    +0.007 A 
BRANCH  11  14
ATOM     14  O   LIG    1        2.487  -6.043  -4.578  0.00  0.00    -0.507 OA
ATOM     15  H   LIG    1        2.995  -5.850  -5.368  0.00  0.00    +0.292 HD
ENDBRANCH  11  14
ENDBRANCH   7   8
ENDBRANCH   6   7
ENDBRANCH   5   6
ENDBRANCH   4   5
ENDBRANCH   2   4
ENDBRANCH   1   2
BRANCH   1  16
ATOM     16  C   LIG    1       -2.123   1.540   0.012  0.00  0.00    +0.158 C 
BRANCH  16  17
ATOM     17  C   LIG    1       -2.628   2.980   0.086  0.00  0.00    -0.014 A 
ATOM     18  C   LIG    1       -2.738   3.763  -1.069  0.00  0.00    +0.010 A 
ATOM     19  C   LIG    1       -3.190   5.080  -0.991  0.00  0.00    +0.049 A 
ATOM     20  C   LIG    1       -3.535   5.632   0.244  0.00  0.00    +0.158 A 
ATOM     21  C   LIG    1       -3.425   4.857   1.407  0.00  0.00    +0.159 A 
ATOM     22  C   LIG    1       -2.972   3.538   1.323  0.00  0.00    +0.055 A 
BRANCH  21  23
ATOM     23  O   LIG    1       -3.754   5.373   2.635  0.00  0.00    -0.503 OA
ATOM     24  H   LIG    1       -3.633   4.746   3.351  0.00  0.00    +0.292 HD
ENDBRANCH  21  23
BRANCH  20  25
ATOM     25  O   LIG    1       -3.975   6.930   0.296  0.00  0.00    -0.503 OA
ATOM     26  H   LIG    1       -4.003   7.353  -0.565  0.00  0.00    +0.292 HD
ENDBRANCH  20  25
ENDBRANCH  16  17
BRANCH  16  27
ATOM     27  O   LIG    1       -2.740   0.812  -1.038  0.00  0.00    -0.386 OA
ATOM     28  H   LIG    1       -3.672   0.713  -0.831  0.00  0.00    +0.210 HD
ENDBRANCH  16  27
ENDBRANCH   1  16
TORSDOF 12
