REMARK  Name = DB01180
REMARK                            x       y       z     vdW  Elec       q    Type
REMARK                         _______ _______ _______ _____ _____    ______ ____
ROOT
ATOM      1  C   LIG    1       -2.437  -1.716  -1.027  0.00  0.00    +0.172 C 
ATOM      2  C   LIG    1       -1.973  -1.150   0.351  0.00  0.00    +0.206 C 
ATOM      3  C   LIG    1       -2.435  -2.056   1.507  0.00  0.00    +0.052 C 
ATOM      4  C   LIG    1       -1.980  -3.517   1.328  0.00  0.00    +0.011 C 
ATOM      5  C   LIG    1       -0.494  -3.824   1.616  0.00  0.00    +0.089 C 
ATOM      6  N   LIG    1       -0.304  -5.267   1.758  0.00  0.00    -0.293 NA
ATOM      7  C   LIG    1        1.028  -5.620   2.269  0.00  0.00    +0.090 C 
ATOM      8  C   LIG    1        1.144  -7.121   2.656  0.00  0.00    +0.053 C 
ATOM      9  C   LIG    1        0.520  -7.992   1.577  0.00  0.00    -0.016 A 
ATOM     10  C   LIG    1        0.577  -9.405   1.329  0.00  0.00    +0.003 A 
ATOM     11  C   LIG    1        1.224 -10.482   1.950  0.00  0.00    +0.014 A 
ATOM     12  C   LIG    1        1.059 -11.764   1.428  0.00  0.00    +0.046 A 
ATOM     13  C   LIG    1        0.260 -12.005   0.299  0.00  0.00    +0.122 A 
ATOM     14  C   LIG    1       -0.400 -10.950  -0.338  0.00  0.00    +0.071 A 
ATOM     15  C   LIG    1       -0.234  -9.664   0.185  0.00  0.00    +0.050 A 
ATOM     16  N   LIG    1       -0.749  -8.450  -0.220  0.00  0.00    -0.356 N 
ATOM     17  H   LIG    1       -1.364  -8.272  -1.000  0.00  0.00    +0.166 HD
ATOM     18  C   LIG    1       -0.304  -7.450   0.609  0.00  0.00    +0.038 A 
ATOM     19  C   LIG    1       -0.631  -5.966   0.493  0.00  0.00    +0.104 C 
ATOM     20  C   LIG    1       -2.043  -5.635  -0.076  0.00  0.00    +0.030 C 
ATOM     21  C   LIG    1       -2.468  -4.138  -0.006  0.00  0.00    +0.012 C 
ATOM     22  C   LIG    1       -2.119  -3.240  -1.249  0.00  0.00    +0.133 C 
ENDROOT
BRANCH   1  23
ATOM     23  O   LIG    1       -3.841  -1.464  -1.123  0.00  0.00    -0.375 OA
ATOM     24  C   LIG    1       -4.390  -1.455  -2.436  0.00  0.00    +0.194 C 
ENDBRANCH   1  23
BRANCH  13  25
ATOM     25  O   LIG    1        0.065 -13.256  -0.256  0.00  0.00    -0.495 OA
ATOM     26  C   LIG    1        0.701 -14.387   0.329  0.00  0.00    +0.277 C 
ENDBRANCH  13  25
BRANCH  22  27
ATOM     27  C   LIG    1       -0.709  -3.475  -1.848  0.00  0.00    +0.313 C 
ATOM     28  O   LIG    1        0.245  -2.726  -1.630  0.00  0.00    -0.250 OA
BRANCH  27  29
ATOM     29  O   LIG    1       -0.679  -4.549  -2.669  0.00  0.00    -0.468 OA
ATOM     30  C   LIG    1        0.526  -4.935  -3.313  0.00  0.00    +0.280 C 
ENDBRANCH  27  29
ENDBRANCH  22  27
BRANCH   2  31
ATOM     31  O   LIG    1       -0.563  -0.940   0.431  0.00  0.00    -0.456 OA
BRANCH  31  32
ATOM     32  C   LIG    1        0.037   0.164  -0.074  0.00  0.00    +0.332 C 
ATOM     33  O   LIG    1       -0.555   1.098  -0.622  0.00  0.00    -0.246 OA
BRANCH  32  34
ATOM     34  C   LIG    1        1.483   0.105   0.096  0.00  0.00    +0.092 C 
ATOM     35  C   LIG    1        2.304   1.124  -0.238  0.00  0.00    +0.015 C 
BRANCH  35  36
ATOM     36  C   LIG    1        3.777   1.128  -0.115  0.00  0.00    -0.018 A 
ATOM     37  C   LIG    1        4.451   2.350  -0.138  0.00  0.00    +0.057 A 
ATOM     38  C   LIG    1        5.848   2.414  -0.006  0.00  0.00    +0.166 A 
ATOM     39  C   LIG    1        6.567   1.223   0.154  0.00  0.00    +0.204 A 
ATOM     40  C   LIG    1        5.916  -0.018   0.164  0.00  0.00    +0.166 A 
ATOM     41  C   LIG    1        4.518  -0.050   0.036  0.00  0.00    +0.057 A 
BRANCH  40  42
ATOM     42  O   LIG    1        6.705  -1.146   0.302  0.00  0.00    -0.491 OA
ATOM     43  C   LIG    1        6.095  -2.432   0.299  0.00  0.00    +0.277 C 
ENDBRANCH  40  42
BRANCH  39  44
ATOM     44  O   LIG    1        7.936   1.271   0.275  0.00  0.00    -0.488 OA
ATOM     45  C   LIG    1        8.393   1.363   1.618  0.00  0.00    +0.277 C 
ENDBRANCH  39  44
BRANCH  38  46
ATOM     46  O   LIG    1        6.572   3.593  -0.019  0.00  0.00    -0.491 OA
ATOM     47  C   LIG    1        5.890   4.832  -0.172  0.00  0.00    +0.277 C 
ENDBRANCH  38  46
ENDBRANCH  35  36
ENDBRANCH  32  34
ENDBRANCH  31  32
ENDBRANCH   2  31
TORSDOF 11
