REMARK  Name = DB01219
REMARK                            x       y       z     vdW  Elec       q    Type
REMARK                         _______ _______ _______ _____ _____    ______ ____
ROOT
ATOM      1  C   LIG    1        0.039   0.057   0.000  0.00  0.00    +0.136 A 
ATOM      2  C   LIG    1       -0.948  -0.921   0.000  0.00  0.00    +0.050 A 
ATOM      3  C   LIG    1       -2.176  -0.261   0.000  0.00  0.00    +0.051 A 
ATOM      4  C   LIG    1       -1.909   1.102   0.000  0.00  0.00    +0.148 A 
ATOM      5  O   LIG    1       -0.560   1.280   0.000  0.00  0.00    -0.454 OA
ENDROOT
BRANCH   1   6
ATOM      6  C   LIG    1        1.532   0.015   0.000  0.00  0.00    +0.017 A 
ATOM      7  C   LIG    1        2.285   1.192   0.000  0.00  0.00    +0.014 A 
ATOM      8  C   LIG    1        3.676   1.137   0.000  0.00  0.00    +0.033 A 
ATOM      9  C   LIG    1        4.340  -0.098   0.000  0.00  0.00    +0.122 A 
ATOM     10  C   LIG    1        3.579  -1.275   0.000  0.00  0.00    +0.033 A 
ATOM     11  C   LIG    1        2.188  -1.219   0.000  0.00  0.00    +0.014 A 
BRANCH   9  12
ATOM     12  N   LIG    1        5.823  -0.157   0.000  0.00  0.00    +0.006 N 
ATOM     13  O   LIG    1        6.454   0.897   0.000  0.00  0.00    -0.130 OA
BRANCH  12  14
ATOM     14  O   LIG    1        6.369  -1.257   0.000  0.00  0.00    -0.396 OA
ATOM     15  H   LIG    1        5.849  -2.037   0.000  0.00  0.00    +0.329 HD
ENDBRANCH  12  14
ENDBRANCH   9  12
ENDBRANCH   1   6
BRANCH   4  16
ATOM     16  C   LIG    1       -2.733   2.300   0.000  0.00  0.00    +0.176 C 
ATOM     17  N   LIG    1       -4.006   2.213   0.000  0.00  0.00    -0.180 NA
BRANCH  17  18
ATOM     18  N   LIG    1       -4.761   3.362   0.000  0.00  0.00    -0.168 N 
ATOM     19  C   LIG    1       -6.107   3.281   0.000  0.00  0.00    +0.328 C 
ATOM     20  O   LIG    1       -6.818   2.274   0.000  0.00  0.00    -0.250 OA
ATOM     21  N   LIG    1       -6.541   4.559   0.000  0.00  0.00    -0.237 N 
ATOM     22  H   LIG    1       -7.522   4.797   0.000  0.00  0.00    +0.159 HD
ATOM     23  C   LIG    1       -5.577   5.491   0.000  0.00  0.00    +0.240 C 
ATOM     24  O   LIG    1       -5.707   6.713   0.000  0.00  0.00    -0.274 OA
ATOM     25  C   LIG    1       -4.278   4.732   0.000  0.00  0.00    +0.232 C 
ENDBRANCH  17  18
ENDBRANCH   4  16
TORSDOF 5
