REMARK  Name = DB01288
REMARK                            x       y       z     vdW  Elec       q    Type
REMARK                         _______ _______ _______ _____ _____    ______ ____
ROOT
ATOM      1  C   LIG    1        0.618  -0.863   0.645  0.00  0.00    +0.117 C 
ENDROOT
BRANCH   1   2
ATOM      2  N   LIG    1       -0.622  -0.394   0.028  0.00  0.00    -0.310 NA
ATOM      3  H   LIG    1       -0.684  -0.714  -0.928  0.00  0.00    +0.122 HD
BRANCH   2   4
ATOM      4  C   LIG    1       -0.845   1.050   0.103  0.00  0.00    +0.055 C 
ATOM      5  C   LIG    1       -1.944   1.351  -0.933  0.00  0.00    +0.024 C 
BRANCH   4   6
ATOM      6  C   LIG    1       -1.289   1.526   1.514  0.00  0.00    +0.053 C 
BRANCH   6   7
ATOM      7  C   LIG    1       -0.187   1.585   2.567  0.00  0.00    -0.046 A 
ATOM      8  C   LIG    1        0.945   2.378   2.355  0.00  0.00    +0.007 A 
ATOM      9  C   LIG    1        1.949   2.431   3.318  0.00  0.00    +0.045 A 
ATOM     10  C   LIG    1        1.819   1.694   4.494  0.00  0.00    +0.117 A 
ATOM     11  C   LIG    1        0.690   0.907   4.716  0.00  0.00    +0.045 A 
ATOM     12  C   LIG    1       -0.315   0.855   3.753  0.00  0.00    +0.007 A 
BRANCH  10  13
ATOM     13  O   LIG    1        2.808   1.745   5.440  0.00  0.00    -0.507 OA
ATOM     14  H   LIG    1        2.618   1.203   6.208  0.00  0.00    +0.292 HD
ENDBRANCH  10  13
ENDBRANCH   6   7
ENDBRANCH   4   6
ENDBRANCH   2   4
ENDBRANCH   1   2
BRANCH   1  15
ATOM     15  C   LIG    1        0.929  -2.336   0.287  0.00  0.00    +0.158 C 
BRANCH  15  16
ATOM     16  C   LIG    1        1.023  -2.584  -1.223  0.00  0.00    -0.011 A 
ATOM     17  C   LIG    1        2.177  -2.189  -1.911  0.00  0.00    +0.051 A 
ATOM     18  C   LIG    1        2.283  -2.385  -3.288  0.00  0.00    +0.121 A 
ATOM     19  C   LIG    1        1.234  -2.975  -3.993  0.00  0.00    +0.090 A 
ATOM     20  C   LIG    1        0.078  -3.367  -3.319  0.00  0.00    +0.121 A 
ATOM     21  C   LIG    1       -0.029  -3.172  -1.941  0.00  0.00    +0.051 A 
BRANCH  20  22
ATOM     22  O   LIG    1       -0.956  -3.941  -4.010  0.00  0.00    -0.507 OA
ATOM     23  H   LIG    1       -0.776  -4.022  -4.949  0.00  0.00    +0.292 HD
ENDBRANCH  20  22
BRANCH  18  24
ATOM     24  O   LIG    1        3.418  -1.995  -3.949  0.00  0.00    -0.507 OA
ATOM     25  H   LIG    1        3.383  -2.182  -4.890  0.00  0.00    +0.292 HD
ENDBRANCH  18  24
ENDBRANCH  15  16
BRANCH  15  26
ATOM     26  O   LIG    1        0.022  -3.193   0.962  0.00  0.00    -0.386 OA
ATOM     27  H   LIG    1        0.333  -4.097   0.872  0.00  0.00    +0.210 HD
ENDBRANCH  15  26
ENDBRANCH   1  15
TORSDOF 10
