REMARK  Name = DB01178
REMARK                            x       y       z     vdW  Elec       q    Type
REMARK                         _______ _______ _______ _____ _____    ______ ____
ROOT
ATOM      1  C   LIG    1       -0.600   1.333  -0.053  0.00  0.00    +0.249 C 
ATOM      2  N   LIG    1        0.038  -0.015  -0.162  0.00  0.00    -0.279 N 
ATOM      3  C   LIG    1        1.480   0.031  -0.468  0.00  0.00    +0.134 C 
ATOM      4  C   LIG    1       -0.562  -1.256  -0.127  0.00  0.00    +0.219 C 
ATOM      5  C   LIG    1       -2.088  -1.356   0.121  0.00  0.00    +0.118 C 
ATOM      6  C   LIG    1       -2.907  -0.211  -0.475  0.00  0.00    +0.177 C 
ATOM      7  O   LIG    1        0.075  -2.304  -0.260  0.00  0.00    -0.276 OA
ATOM      8  S   LIG    1       -2.416   1.302   0.477  0.00  0.00    -0.007 S 
ATOM      9  O   LIG    1       -3.103   2.475  -0.074  0.00  0.00    -0.172 OA
ATOM     10  O   LIG    1       -2.522   1.043   1.918  0.00  0.00    -0.172 OA
ENDROOT
BRANCH   1  15
ATOM     11 CL   LIG    1        2.237   5.391   3.411  0.00  0.00    -0.084 Cl
ATOM     12  C   LIG    1        1.422   4.233   2.424  0.00  0.00    +0.041 A 
ATOM     13  C   LIG    1        1.115   2.977   2.942  0.00  0.00    +0.020 A 
ATOM     14  C   LIG    1        0.459   2.043   2.145  0.00  0.00    +0.008 A 
ATOM     15  C   LIG    1        0.103   2.367   0.832  0.00  0.00    -0.006 A 
ATOM     16  C   LIG    1        0.421   3.628   0.317  0.00  0.00    +0.008 A 
ATOM     17  C   LIG    1        1.078   4.562   1.114  0.00  0.00    +0.020 A 
ENDBRANCH   1  15
TORSDOF 1
