REMARK  Name = DB01163
REMARK                            x       y       z     vdW  Elec       q    Type
REMARK                         _______ _______ _______ _____ _____    ______ ____
ROOT
ATOM      1  CA  LIG    1       -0.075   1.436   1.198  0.00  0.00    +0.197 C 
ATOM      2  C   LIG    1       -0.376   0.429   0.057  0.00  0.00    +0.242 C 
ATOM      3  O   LIG    1        0.017  -0.698  -0.242  0.00  0.00    -0.273 OA
ATOM      4  N   LIG    1       -1.253   1.330  -0.552  0.00  0.00    -0.270 N 
ATOM      5  CA  LIG    1       -1.309   1.620  -1.995  0.00  0.00    +0.201 C 
ATOM      6  C   LIG    1       -1.270   3.183  -2.133  0.00  0.00    +0.042 C 
ATOM      7  C   LIG    1       -2.644   3.880  -1.943  0.00  0.00    +0.025 C 
ATOM      8  C   LIG    1       -0.621   3.668  -3.444  0.00  0.00    +0.025 C 
ATOM      9  S   LIG    1       -0.214   3.693  -0.739  0.00  0.00    -0.127 S 
ATOM     10  C   LIG    1       -0.921   2.441   0.368  0.00  0.00    +0.167 C 
ENDROOT
BRANCH   1  11
ATOM     11  N   LIG    1        1.361   1.693   1.351  0.00  0.00    -0.366 N 
ATOM     12  H   LIG    1        1.698   2.635   1.209  0.00  0.00    +0.161 HD
ATOM     13  C   LIG    1        2.241   0.740   1.668  0.00  0.00    +0.154 C 
BRANCH  13  14
ATOM     14  N   LIG    1        3.579   0.831   1.787  0.00  0.00    -0.323 N 
ATOM     15  C   LIG    1        4.282  -0.408   2.176  0.00  0.00    +0.106 C 
ATOM     16  C   LIG    1        5.202  -0.979   1.079  0.00  0.00    +0.019 C 
ATOM     17  C   LIG    1        6.596  -0.331   0.930  0.00  0.00    +0.002 C 
ATOM     18  C   LIG    1        6.697   1.197   1.108  0.00  0.00    +0.002 C 
ATOM     19  C   LIG    1        5.503   2.021   0.587  0.00  0.00    +0.019 C 
ATOM     20  C   LIG    1        4.309   2.102   1.562  0.00  0.00    +0.106 C 
ENDBRANCH  13  14
ENDBRANCH   1  11
BRANCH   5  21
ATOM     21  C   LIG    1       -2.500   0.924  -2.712  0.00  0.00    +0.327 C 
ATOM     22  OXT LIG    1       -2.348   0.694  -3.933  0.00  0.00    -0.249 OA
BRANCH  21  23
ATOM     23  O   LIG    1       -3.542   0.644  -2.072  0.00  0.00    -0.479 OA
ATOM     24  H   LIG    1       -4.259   0.224  -2.504  0.00  0.00    +0.295 HD
ENDBRANCH  21  23
ENDBRANCH   5  21
TORSDOF 4
