REMARK  Name = DB01618
REMARK                            x       y       z     vdW  Elec       q    Type
REMARK                         _______ _______ _______ _____ _____    ______ ____
ROOT
ATOM      1  C   LIG    1        0.028   0.058  -0.300  0.00  0.00    +0.075 C 
ATOM      2  C   LIG    1       -0.487  -0.757  -1.524  0.00  0.00    +0.169 C 
ATOM      3  C   LIG    1       -1.845  -0.408  -1.961  0.00  0.00    +0.042 A 
ATOM      4  C   LIG    1       -2.649  -0.981  -2.978  0.00  0.00    -0.017 A 
ATOM      5  C   LIG    1       -3.829  -0.229  -3.018  0.00  0.00    +0.017 A 
ATOM      6  C   LIG    1       -5.059  -0.325  -3.892  0.00  0.00    +0.063 C 
ATOM      7  N   LIG    1       -3.743   0.745  -2.059  0.00  0.00    -0.361 N 
ATOM      8  H   LIG    1       -4.450   1.444  -1.878  0.00  0.00    +0.165 HD
ATOM      9  C   LIG    1       -2.563   0.634  -1.382  0.00  0.00    +0.027 A 
ATOM     10  C   LIG    1       -2.075   1.589  -0.310  0.00  0.00    +0.054 C 
ATOM     11  O   LIG    1        0.191  -1.615  -2.090  0.00  0.00    -0.292 OA
ATOM     12  C   LIG    1       -0.532   1.508  -0.267  0.00  0.00    +0.019 C 
ENDROOT
BRANCH   4  13
ATOM     13  C   LIG    1       -2.320  -2.166  -3.871  0.00  0.00    +0.034 C 
ATOM     14  C   LIG    1       -1.549  -1.744  -5.129  0.00  0.00    +0.009 C 
ENDBRANCH   4  13
BRANCH   1  15
ATOM     15  C   LIG    1        1.572  -0.038  -0.127  0.00  0.00    +0.096 C 
BRANCH  15  19
ATOM     16  O   LIG    1        4.687   1.763  -2.345  0.00  0.00    -0.377 OA
ATOM     17  C   LIG    1        4.214   0.506  -2.819  0.00  0.00    +0.175 C 
ATOM     18  C   LIG    1        3.418  -0.215  -1.711  0.00  0.00    +0.112 C 
ATOM     19  N   LIG    1        2.331   0.628  -1.197  0.00  0.00    -0.297 NA
ATOM     20  C   LIG    1        2.820   1.956  -0.798  0.00  0.00    +0.112 C 
ATOM     21  C   LIG    1        3.627   2.621  -1.934  0.00  0.00    +0.175 C 
ENDBRANCH  15  19
ENDBRANCH   1  15
TORSDOF 3
