REMARK  Name = DB01299
REMARK                            x       y       z     vdW  Elec       q    Type
REMARK                         _______ _______ _______ _____ _____    ______ ____
ROOT
ATOM      1  S   LIG    1       -0.950   1.622   0.012  0.00  0.00    +0.074 S 
ATOM      2  O   LIG    1       -0.691   2.297  -1.266  0.00  0.00    -0.150 OA
ATOM      3  O   LIG    1       -0.688   2.309   1.282  0.00  0.00    -0.150 OA
ENDROOT
BRANCH   1   4
ATOM      4  C   LIG    1       -2.646   1.054   0.016  0.00  0.00    +0.109 A 
ATOM      5  C   LIG    1       -3.302   0.835   1.229  0.00  0.00    +0.030 A 
ATOM      6  C   LIG    1       -4.617   0.380   1.231  0.00  0.00    +0.024 A 
ATOM      7  C   LIG    1       -5.271   0.143   0.022  0.00  0.00    +0.025 A 
ATOM      8  C   LIG    1       -4.615   0.358  -1.191  0.00  0.00    +0.024 A 
ATOM      9  C   LIG    1       -3.299   0.812  -1.194  0.00  0.00    +0.030 A 
BRANCH   7  10
ATOM     10  N   LIG    1       -6.588  -0.313   0.025  0.00  0.00    -0.358 N 
ATOM     11  H   LIG    1       -7.059  -0.480  -0.853  0.00  0.00    +0.142 HD
ATOM     12  H   LIG    1       -7.059  -0.467   0.905  0.00  0.00    +0.142 HD
ENDBRANCH   7  10
ENDBRANCH   1   4
BRANCH   1  13
ATOM     13  N   LIG    1        0.026   0.141   0.017  0.00  0.00    -0.196 N 
ATOM     14  H   LIG    1       -0.452  -0.748   0.011  0.00  0.00    +0.175 HD
BRANCH  13  15
ATOM     15  C   LIG    1        1.428   0.136   0.003  0.00  0.00    +0.187 A 
ATOM     16  C   LIG    1        2.107  -1.093  -0.036  0.00  0.00    +0.223 A 
ATOM     17  C   LIG    1        3.512  -1.053  -0.031  0.00  0.00    +0.263 A 
ATOM     18  N   LIG    1        4.197   0.129  -0.014  0.00  0.00    -0.198 NA
ATOM     19  C   LIG    1        3.450   1.260   0.010  0.00  0.00    +0.227 A 
ATOM     20  N   LIG    1        2.096   1.322   0.022  0.00  0.00    -0.216 NA
BRANCH  17  21
ATOM     21  O   LIG    1        4.221  -2.242  -0.030  0.00  0.00    -0.477 OA
ATOM     22  C   LIG    1        5.648  -2.215  -0.018  0.00  0.00    +0.279 C 
ENDBRANCH  17  21
BRANCH  16  23
ATOM     23  O   LIG    1        1.413  -2.281  -0.044  0.00  0.00    -0.488 OA
ATOM     24  C   LIG    1        1.437  -2.973  -1.286  0.00  0.00    +0.277 C 
ENDBRANCH  16  23
ENDBRANCH  13  15
ENDBRANCH   1  13
TORSDOF 6
