REMARK  Name = DB01620
REMARK                            x       y       z     vdW  Elec       q    Type
REMARK                         _______ _______ _______ _____ _____    ______ ____
ROOT
ATOM      1  C   LIG    1       -0.575   1.356  -0.049  0.00  0.00    +0.069 C 
ENDROOT
BRANCH   1   2
ATOM      2  C   LIG    1        0.042   2.140  -1.212  0.00  0.00    +0.049 A 
ATOM      3  C   LIG    1        0.629   3.394  -1.001  0.00  0.00    +0.024 A 
ATOM      4  C   LIG    1        1.192   4.063  -2.090  0.00  0.00    +0.003 A 
ATOM      5  C   LIG    1        1.157   3.471  -3.354  0.00  0.00    +0.020 A 
ATOM      6  C   LIG    1        0.556   2.219  -3.486  0.00  0.00    +0.111 A 
ATOM      7  N   LIG    1        0.005   1.552  -2.440  0.00  0.00    -0.259 NA
ENDBRANCH   1   2
BRANCH   1   8
ATOM      8  C   LIG    1       -2.108   1.397  -0.082  0.00  0.00    -0.038 A 
ATOM      9  C   LIG    1       -2.832   0.567  -0.947  0.00  0.00    +0.004 A 
ATOM     10  C   LIG    1       -4.224   0.611  -0.959  0.00  0.00    +0.000 A 
ATOM     11  C   LIG    1       -4.894   1.484  -0.106  0.00  0.00    +0.000 A 
ATOM     12  C   LIG    1       -4.185   2.315   0.758  0.00  0.00    +0.000 A 
ATOM     13  C   LIG    1       -2.793   2.271   0.770  0.00  0.00    +0.004 A 
ENDBRANCH   1   8
BRANCH   1  14
ATOM     14  C   LIG    1       -0.013  -0.086   0.073  0.00  0.00    +0.029 C 
BRANCH  14  15
ATOM     15  C   LIG    1        1.497  -0.140   0.410  0.00  0.00    +0.085 C 
BRANCH  15  16
ATOM     16  N   LIG    1        2.095  -1.462   0.203  0.00  0.00    -0.308 NA
ATOM     17  C   LIG    1        2.255  -1.765  -1.219  0.00  0.00    +0.104 C 
ATOM     18  C   LIG    1        3.407  -1.515   0.842  0.00  0.00    +0.104 C 
ENDBRANCH  15  16
ENDBRANCH  14  15
ENDBRANCH   1  14
TORSDOF 5
