REMARK  Name = DB01677
REMARK                            x       y       z     vdW  Elec       q    Type
REMARK                         _______ _______ _______ _____ _____    ______ ____
ROOT
ATOM      1  C   LIG    1        1.453  -0.021   0.000  0.00  0.00    +0.098 C 
ATOM      2  C   LIG    1        2.239  -1.127   0.000  0.00  0.00    +0.098 C 
ENDROOT
BRANCH   1   3
ATOM      3  C   LIG    1       -0.100  -0.016   0.000  0.00  0.00    +0.330 C 
ATOM      4  O   LIG    1       -0.599   1.132   0.000  0.00  0.00    -0.246 OA
BRANCH   3   5
ATOM      5  O   LIG    1       -0.675  -1.130   0.000  0.00  0.00    -0.478 OA
ATOM      6  H   LIG    1       -1.330  -1.319  -0.643  0.00  0.00    +0.295 HD
ENDBRANCH   3   5
ENDBRANCH   1   3
BRANCH   2   7
ATOM      7  C   LIG    1        3.792  -1.132   0.000  0.00  0.00    +0.330 C 
ATOM      8  O   LIG    1        4.291  -2.280   0.000  0.00  0.00    -0.246 OA
BRANCH   7   9
ATOM      9  O   LIG    1        4.368  -0.018   0.000  0.00  0.00    -0.478 OA
ATOM     10  H   LIG    1        5.304   0.025   0.000  0.00  0.00    +0.295 HD
ENDBRANCH   7   9
ENDBRANCH   2   7
TORSDOF 4
