REMARK  Name = DB01396
REMARK                            x       y       z     vdW  Elec       q    Type
REMARK                         _______ _______ _______ _____ _____    ______ ____
ROOT
ATOM      1  C   LIG    1       -2.513  -1.752   0.306  0.00  0.00    +0.253 C 
ATOM      2  O   LIG    1       -1.994  -1.635   1.605  0.00  0.00    -0.346 OA
ATOM      3  C   LIG    1       -0.574  -1.429   1.633  0.00  0.00    +0.150 C 
ATOM      4  C   LIG    1       -0.118  -1.456   3.101  0.00  0.00    +0.041 C 
ATOM      5  C   LIG    1       -0.224  -0.093   0.931  0.00  0.00    +0.178 C 
ATOM      6  C   LIG    1       -0.824  -0.052  -0.494  0.00  0.00    +0.151 C 
ATOM      7  C   LIG    1       -2.319  -0.426  -0.446  0.00  0.00    +0.095 C 
ENDROOT
BRANCH   6   8
ATOM      8  O   LIG    1       -0.130  -0.903  -1.389  0.00  0.00    -0.389 OA
ATOM      9  H   LIG    1        0.810  -0.831  -1.208  0.00  0.00    +0.210 HD
ENDBRANCH   6   8
BRANCH   1  10
ATOM     10  O   LIG    1       -3.882  -2.009   0.375  0.00  0.00    -0.348 OA
BRANCH  10  28
ATOM     11  C   LIG    1       -5.042  -4.721   0.981  0.00  0.00    +0.010 C 
ATOM     12  C   LIG    1       -6.574  -4.419   0.882  0.00  0.00    -0.026 C 
ATOM     13  C   LIG    1       -7.165  -4.604   2.313  0.00  0.00    +0.012 C 
ATOM     14  C   LIG    1       -7.313  -5.342  -0.167  0.00  0.00    +0.001 C 
ATOM     15  C   LIG    1       -8.815  -4.973  -0.430  0.00  0.00    +0.025 C 
ATOM     16  C   LIG    1       -9.456  -5.857  -1.573  0.00  0.00    +0.075 C 
ATOM     17  C   LIG    1       -9.122  -7.409  -1.446  0.00  0.00    +0.004 C 
ATOM     18  C   LIG    1      -10.405  -8.300  -1.437  0.00  0.00    +0.014 C 
ATOM     19  C   LIG    1       -8.250  -7.709  -2.709  0.00  0.00    +0.027 C 
ATOM     20  C   LIG    1       -8.777  -6.759  -3.781  0.00  0.00    +0.011 C 
ATOM     21  C   LIG    1       -8.364  -7.712  -0.125  0.00  0.00    +0.010 C 
ATOM     22  C   LIG    1       -9.004  -5.462  -3.011  0.00  0.00    +0.036 C 
ATOM     23  C   LIG    1       -8.975  -3.442  -0.699  0.00  0.00    +0.007 C 
ATOM     24  C   LIG    1       -8.250  -2.551   0.324  0.00  0.00    +0.004 C 
ATOM     25  C   LIG    1       -7.092  -6.866   0.087  0.00  0.00    +0.005 C 
ATOM     26  C   LIG    1       -6.750  -2.910   0.472  0.00  0.00    -0.002 C 
ATOM     27  C   LIG    1       -5.922  -2.542  -0.795  0.00  0.00    +0.035 C 
ATOM     28  C   LIG    1       -4.422  -2.856  -0.641  0.00  0.00    +0.122 C 
ATOM     29  C   LIG    1       -4.238  -4.348  -0.283  0.00  0.00    +0.032 C 
BRANCH  19  30
ATOM     30  C   LIG    1       -8.126  -9.168  -3.147  0.00  0.00    -0.022 C 
ATOM     31  C   LIG    1       -7.187 -10.071  -2.840  0.00  0.00    +0.094 C 
ATOM     32  C   LIG    1       -7.477 -11.317  -3.513  0.00  0.00    +0.332 C 
ATOM     33  O   LIG    1       -6.830 -12.360  -3.450  0.00  0.00    -0.246 OA
ATOM     34  O   LIG    1       -8.588 -11.152  -4.237  0.00  0.00    -0.457 OA
ATOM     35  C   LIG    1       -9.086  -9.840  -4.098  0.00  0.00    +0.264 C 
ENDBRANCH  19  30
BRANCH  16  36
ATOM     36  O   LIG    1      -10.850  -5.592  -1.447  0.00  0.00    -0.388 OA
ATOM     37  H   LIG    1      -11.317  -6.100  -2.114  0.00  0.00    +0.210 HD
ENDBRANCH  16  36
ENDBRANCH  10  28
ENDBRANCH   1  10
BRANCH   5  38
ATOM     38  O   LIG    1        1.192   0.110   0.924  0.00  0.00    -0.343 OA
BRANCH  38  39
ATOM     39  C   LIG    1        1.640   1.429   0.842  0.00  0.00    +0.254 C 
ATOM     40  C   LIG    1        1.853   1.946   2.273  0.00  0.00    +0.095 C 
ATOM     41  C   LIG    1        2.417   3.380   2.246  0.00  0.00    +0.151 C 
ATOM     42  C   LIG    1        3.668   3.445   1.334  0.00  0.00    +0.178 C 
ATOM     43  C   LIG    1        3.371   2.791  -0.041  0.00  0.00    +0.150 C 
ATOM     44  C   LIG    1        4.623   2.687  -0.927  0.00  0.00    +0.041 C 
ATOM     45  O   LIG    1        2.858   1.464   0.146  0.00  0.00    -0.346 OA
BRANCH  41  46
ATOM     46  O   LIG    1        1.418   4.303   1.849  0.00  0.00    -0.389 OA
ATOM     47  H   LIG    1        1.156   4.102   0.948  0.00  0.00    +0.210 HD
ENDBRANCH  41  46
BRANCH  42  48
ATOM     48  O   LIG    1        4.200   4.763   1.134  0.00  0.00    -0.343 OA
BRANCH  48  49
ATOM     49  C   LIG    1        4.565   5.543   2.238  0.00  0.00    +0.254 C 
ATOM     50  O   LIG    1        4.858   6.841   1.789  0.00  0.00    -0.346 OA
ATOM     51  C   LIG    1        5.148   7.770   2.843  0.00  0.00    +0.149 C 
ATOM     52  C   LIG    1        5.289   9.164   2.207  0.00  0.00    +0.041 C 
ATOM     53  C   LIG    1        6.423   7.317   3.601  0.00  0.00    +0.172 C 
ATOM     54  C   LIG    1        6.279   5.853   4.075  0.00  0.00    +0.150 C 
ATOM     55  C   LIG    1        5.817   4.951   2.914  0.00  0.00    +0.095 C 
BRANCH  53  56
ATOM     56  O   LIG    1        6.761   8.191   4.665  0.00  0.00    -0.387 OA
ATOM     57  H   LIG    1        7.608   7.921   5.026  0.00  0.00    +0.210 HD
ENDBRANCH  53  56
BRANCH  54  58
ATOM     58  O   LIG    1        5.409   5.716   5.188  0.00  0.00    -0.389 OA
ATOM     59  H   LIG    1        4.541   6.042   4.939  0.00  0.00    +0.210 HD
ENDBRANCH  54  58
ENDBRANCH  48  49
ENDBRANCH  42  48
ENDBRANCH  38  39
ENDBRANCH   5  38
TORSDOF 12
