REMARK  Name = DB01004
REMARK                            x       y       z     vdW  Elec       q    Type
REMARK                         _______ _______ _______ _____ _____    ______ ____
ROOT
ATOM      1  N   LIG    1       -1.520   1.501  -1.124  0.00  0.00    -0.291 N 
ATOM      2  C   LIG    1       -2.848   1.329  -1.292  0.00  0.00    +0.203 A 
ATOM      3  N   LIG    1       -3.259   1.564  -2.516  0.00  0.00    -0.229 NA
ATOM      4  C   LIG    1       -2.140   1.898  -3.176  0.00  0.00    +0.172 A 
ATOM      5  C   LIG    1       -1.984   2.255  -4.572  0.00  0.00    +0.280 A 
ATOM      6  O   LIG    1       -2.849   2.333  -5.443  0.00  0.00    -0.265 OA
ATOM      7  N   LIG    1       -0.658   2.514  -4.821  0.00  0.00    -0.293 N 
ATOM      8  H   LIG    1       -0.448   2.772  -5.774  0.00  0.00    +0.172 HD
ATOM      9  C   LIG    1        0.399   2.463  -3.926  0.00  0.00    +0.195 A 
ATOM     10  N   LIG    1        0.248   2.147  -2.682  0.00  0.00    -0.196 NA
ATOM     11  C   LIG    1       -1.048   1.869  -2.353  0.00  0.00    +0.171 A 
ENDROOT
BRANCH   9  12
ATOM     12  N   LIG    1        1.607   2.762  -4.422  0.00  0.00    -0.329 N 
ATOM     13  H   LIG    1        1.720   3.007  -5.394  0.00  0.00    +0.145 HD
ATOM     14  H   LIG    1        2.420   2.744  -3.823  0.00  0.00    +0.145 HD
ENDBRANCH   9  12
BRANCH   1  15
ATOM     15  C   LIG    1       -0.693   1.308   0.127  0.00  0.00    +0.287 C 
BRANCH  15  16
ATOM     16  O   LIG    1       -0.015   0.095   0.000  0.00  0.00    -0.351 OA
BRANCH  16  17
ATOM     17  C   LIG    1        1.410   0.159   0.060  0.00  0.00    +0.171 C 
BRANCH  17  18
ATOM     18  C   LIG    1        1.899   0.455   1.499  0.00  0.00    +0.189 C 
BRANCH  18  19
ATOM     19  O   LIG    1        3.298   0.659   1.529  0.00  0.00    -0.392 OA
ATOM     20  H   LIG    1        3.563   0.835   2.434  0.00  0.00    +0.210 HD
ENDBRANCH  18  19
ENDBRANCH  17  18
BRANCH  17  21
ATOM     21  C   LIG    1        1.958  -1.156  -0.538  0.00  0.00    +0.189 C 
BRANCH  21  22
ATOM     22  O   LIG    1        1.620  -2.285   0.245  0.00  0.00    -0.392 OA
ATOM     23  H   LIG    1        1.975  -3.069  -0.179  0.00  0.00    +0.210 HD
ENDBRANCH  21  22
ENDBRANCH  17  21
ENDBRANCH  16  17
ENDBRANCH  15  16
ENDBRANCH   1  15
TORSDOF 8
