REMARK  Name = DB01213
REMARK                            x       y       z     vdW  Elec       q    Type
REMARK                         _______ _______ _______ _____ _____    ______ ____
ROOT
ATOM      1  N   LIG    1       -2.124   0.571   0.000  0.00  0.00    -0.284 N 
ATOM      2  H   LIG    1       -2.970   1.122   0.000  0.00  0.00    +0.188 HD
ATOM      3  C   LIG    1       -0.856   1.083   0.000  0.00  0.00    +0.108 A 
ATOM      4  C   LIG    1        0.003  -0.005   0.000  0.00  0.00    -0.013 A 
ATOM      5  C   LIG    1       -0.877  -1.100   0.000  0.00  0.00    +0.137 A 
ATOM      6  C   LIG    1        1.512  -0.009   0.000  0.00  0.00    +0.047 C 
ATOM      7  N   LIG    1       -2.147  -0.762   0.000  0.00  0.00    -0.182 NA
ENDROOT
TORSDOF 0
