REMARK  Name = DB01388
REMARK                            x       y       z     vdW  Elec       q    Type
REMARK                         _______ _______ _______ _____ _____    ______ ____
ROOT
ATOM      1  F   LIG    1        0.481  -5.937   3.917  0.00  0.00    -0.205 F 
ATOM      2  C   LIG    1        0.250  -4.733   3.348  0.00  0.00    +0.124 A 
ATOM      3  C   LIG    1       -0.078  -3.639   4.140  0.00  0.00    +0.038 A 
ATOM      4  C   LIG    1       -0.320  -2.405   3.545  0.00  0.00    +0.007 A 
ATOM      5  C   LIG    1       -0.241  -2.237   2.156  0.00  0.00    -0.037 A 
ATOM      6  C   LIG    1        0.127  -3.343   1.352  0.00  0.00    -0.041 A 
ATOM      7  C   LIG    1        0.350  -3.206  -0.158  0.00  0.00    +0.039 C 
ATOM      8  C   LIG    1       -0.031  -1.826  -0.743  0.00  0.00    +0.053 C 
ATOM      9  C   LIG    1        0.292  -0.648   0.221  0.00  0.00    +0.119 C 
ATOM     10  C   LIG    1       -0.566  -0.876   1.519  0.00  0.00    +0.066 C 
ATOM     11  C   LIG    1        0.349  -4.580   1.968  0.00  0.00    +0.042 A 
ENDROOT
BRANCH  10  12
ATOM     12  C   LIG    1       -2.121  -0.633   1.380  0.00  0.00    -0.006 C 
ATOM     13  C   LIG    1       -2.993  -1.898   1.181  0.00  0.00    +0.008 C 
ATOM     14  C   LIG    1       -2.676   0.192   2.559  0.00  0.00    +0.008 C 
ENDBRANCH  10  12
BRANCH   9  15
ATOM     15  C   LIG    1        1.829  -0.568   0.534  0.00  0.00    +0.030 C 
BRANCH  15  16
ATOM     16  C   LIG    1        2.292   0.636   1.393  0.00  0.00    -0.075 C 
BRANCH  16  17
ATOM     17  N   LIG    1        3.776   0.469   1.797  0.00  0.00    +0.378 N 
ATOM     18  H   LIG    1        4.245   0.081   0.990  0.00  0.00    -0.082 HD
ATOM     19  C   LIG    1        4.439   1.829   2.094  0.00  0.00    -0.096 C 
BRANCH  17  20
ATOM     20  C   LIG    1        3.960  -0.530   2.966  0.00  0.00    -0.079 C 
BRANCH  20  21
ATOM     21  C   LIG    1        5.407  -1.055   3.013  0.00  0.00    -0.011 C 
BRANCH  21  22
ATOM     22  C   LIG    1        5.539  -2.384   3.789  0.00  0.00    +0.072 C 
BRANCH  22  23
ATOM     23  C   LIG    1        4.871  -3.575   3.114  0.00  0.00    +0.108 A 
ATOM     24  N   LIG    1        4.572  -3.655   1.837  0.00  0.00    -0.232 NA
ATOM     25  C   LIG    1        4.028  -4.902   1.681  0.00  0.00    +0.089 A 
ATOM     26  C   LIG    1        3.540  -5.517   0.518  0.00  0.00    +0.030 A 
ATOM     27  C   LIG    1        3.033  -6.813   0.623  0.00  0.00    +0.002 A 
ATOM     28  C   LIG    1        3.003  -7.483   1.847  0.00  0.00    +0.002 A 
ATOM     29  C   LIG    1        3.482  -6.899   3.023  0.00  0.00    +0.028 A 
ATOM     30  C   LIG    1        3.993  -5.602   2.913  0.00  0.00    +0.066 A 
ATOM     31  N   LIG    1        4.547  -4.717   3.809  0.00  0.00    -0.342 N 
ATOM     32  H   LIG    1        4.712  -4.835   4.798  0.00  0.00    +0.167 HD
ENDBRANCH  22  23
ENDBRANCH  21  22
ENDBRANCH  20  21
ENDBRANCH  17  20
ENDBRANCH  16  17
ENDBRANCH  15  16
ENDBRANCH   9  15
BRANCH   9  33
ATOM     33  O   LIG    1       -0.106   0.632  -0.316  0.00  0.00    -0.456 OA
BRANCH  33  34
ATOM     34  C   LIG    1        0.302   1.171  -1.503  0.00  0.00    +0.334 C 
ATOM     35  O   LIG    1        1.096   0.666  -2.298  0.00  0.00    -0.248 OA
BRANCH  34  36
ATOM     36  C   LIG    1       -0.322   2.539  -1.795  0.00  0.00    +0.279 C 
BRANCH  36  37
ATOM     37  O   LIG    1       -0.737   3.185  -0.597  0.00  0.00    -0.372 OA
ATOM     38  C   LIG    1       -1.346   4.443  -0.835  0.00  0.00    +0.194 C 
ENDBRANCH  36  37
ENDBRANCH  34  36
ENDBRANCH  33  34
ENDBRANCH   9  33
TORSDOF 12
