REMARK  Name = DB01575
REMARK                            x       y       z     vdW  Elec       q    Type
REMARK                         _______ _______ _______ _____ _____    ______ ____
ROOT
ATOM      1  O   LIG    1        1.352  -0.687   0.000  0.00  0.00    +0.000 OA
ENDROOT
BRANCH   1   2
ATOM      2 SI   LIG    1       -0.181   0.016   0.000  0.00  0.00    +0.000 Si
BRANCH   2   3
ATOM      3  O   LIG    1       -0.041   1.691   0.000  0.00  0.00    +0.000 OA
ATOM      4  H   LIG    1       -0.925   2.089   0.000  0.00  0.00    +0.000 HD
ENDBRANCH   2   3
BRANCH   2   5
ATOM      5  O   LIG    1       -1.041  -0.448  -1.366  0.00  0.00    +0.000 OA
ATOM      6  H   LIG    1       -1.919  -0.036  -1.351  0.00  0.00    +0.000 HD
ENDBRANCH   2   5
BRANCH   2   7
ATOM      7  O   LIG    1       -1.041  -0.448   1.366  0.00  0.00    +0.000 OA
ATOM      8  H   LIG    1       -1.919  -0.036   1.351  0.00  0.00    +0.000 HD
ENDBRANCH   2   7
ENDBRANCH   1   2
BRANCH   1   9
ATOM      9 SI   LIG    1        2.638  -1.780   0.000  0.00  0.00    +0.000 Si
BRANCH   9  10
ATOM     10  O   LIG    1        2.581  -2.756  -1.366  0.00  0.00    +0.000 OA
ATOM     11  H   LIG    1        2.613  -2.201  -2.161  0.00  0.00    +0.000 HD
ENDBRANCH   9  10
BRANCH   9  12
ATOM     12  O   LIG    1        2.581  -2.756   1.366  0.00  0.00    +0.000 OA
ATOM     13  H   LIG    1        2.613  -2.201   2.161  0.00  0.00    +0.000 HD
ENDBRANCH   9  12
BRANCH   9  14
ATOM     14  O   LIG    1        4.096  -0.945   0.000  0.00  0.00    +0.000 OA
ATOM     15  H   LIG    1        4.143  -0.376   0.785  0.00  0.00    +0.000 HD
ENDBRANCH   9  14
ENDBRANCH   1   9
TORSDOF 8
