REMARK  Name = DB01589
REMARK                            x       y       z     vdW  Elec       q    Type
REMARK                         _______ _______ _______ _____ _____    ______ ____
ROOT
ATOM      1 CL   LIG    1       -3.073   5.194   0.930  0.00  0.00    -0.084 Cl
ATOM      2  C   LIG    1       -2.206   3.726   0.659  0.00  0.00    +0.042 A 
ATOM      3  C   LIG    1       -0.924   3.571   1.160  0.00  0.00    +0.022 A 
ATOM      4  C   LIG    1       -0.235   2.385   0.937  0.00  0.00    +0.025 A 
ATOM      5  C   LIG    1       -0.788   1.308   0.216  0.00  0.00    +0.044 A 
ATOM      6  C   LIG    1       -2.111   1.483  -0.302  0.00  0.00    +0.023 A 
ATOM      7  C   LIG    1       -2.838   0.437  -1.077  0.00  0.00    +0.078 C 
ATOM      8  N   LIG    1       -2.798  -0.815  -0.815  0.00  0.00    -0.276 NA
ATOM      9  C   LIG    1       -2.015  -1.249   0.332  0.00  0.00    +0.201 C 
ATOM     10  C   LIG    1       -0.514  -1.195   0.022  0.00  0.00    +0.077 C 
ATOM     11  S   LIG    1        0.298  -2.638  -0.267  0.00  0.00    -0.038 S 
ATOM     12  N   LIG    1       -0.016   0.109  -0.016  0.00  0.00    -0.287 N 
ATOM     13  C   LIG    1       -2.789   2.692  -0.063  0.00  0.00    +0.032 A 
ENDROOT
BRANCH   7  14
ATOM     14  C   LIG    1       -3.635   0.885  -2.228  0.00  0.00    +0.036 A 
ATOM     15  C   LIG    1       -2.980   1.403  -3.354  0.00  0.00    +0.013 A 
ATOM     16  C   LIG    1       -3.714   1.851  -4.452  0.00  0.00    +0.001 A 
ATOM     17  C   LIG    1       -5.107   1.792  -4.432  0.00  0.00    +0.003 A 
ATOM     18  C   LIG    1       -5.767   1.285  -3.313  0.00  0.00    +0.039 A 
ATOM     19  C   LIG    1       -5.039   0.834  -2.211  0.00  0.00    +0.133 A 
ATOM     20  F   LIG    1       -5.708   0.357  -1.133  0.00  0.00    -0.205 F 
ENDBRANCH   7  14
BRANCH  12  21
ATOM     21  C   LIG    1        1.435   0.306  -0.299  0.00  0.00    +0.224 C 
BRANCH  21  22
ATOM     22  C   LIG    1        2.411   0.113   0.894  0.00  0.00    +0.406 C 
ATOM     23  F   LIG    1        3.463   0.920   0.760  0.00  0.00    -0.169 F 
ATOM     24  F   LIG    1        1.860   0.370   2.080  0.00  0.00    -0.169 F 
ATOM     25  F   LIG    1        2.886  -1.130   0.950  0.00  0.00    -0.169 F 
ENDBRANCH  21  22
ENDBRANCH  12  21
TORSDOF 3
