REMARK  Name = DB01150
REMARK                            x       y       z     vdW  Elec       q    Type
REMARK                         _______ _______ _______ _____ _____    ______ ____
ROOT
ATOM      1  N   LIG    1       -1.118   1.619   1.103  0.00  0.00    -0.249 N 
ATOM      2  C   LIG    1       -0.517   1.910  -0.131  0.00  0.00    +0.244 C 
ATOM      3  CA  LIG    1       -0.079   0.430  -0.299  0.00  0.00    +0.191 C 
ATOM      4  O   LIG    1       -0.344   2.947  -0.770  0.00  0.00    -0.273 OA
ATOM      5  CA  LIG    1       -1.556   2.335   2.193  0.00  0.00    +0.126 C 
ATOM      6  C   LIG    1       -1.525   1.853   3.480  0.00  0.00    -0.009 C 
ATOM      7  C   LIG    1       -0.944   0.445   3.755  0.00  0.00    +0.108 C 
ATOM      8  S   LIG    1        0.356  -0.062   2.578  0.00  0.00    -0.131 S 
ATOM      9  C   LIG    1       -0.686   0.205   1.113  0.00  0.00    +0.169 C 
ENDROOT
BRANCH   3  10
ATOM     10  N   LIG    1        1.371   0.289  -0.434  0.00  0.00    -0.300 N 
ATOM     11  H   LIG    1        1.926   1.117  -0.270  0.00  0.00    +0.150 HD
ATOM     12  C   LIG    1        1.991  -0.872  -0.706  0.00  0.00    +0.235 C 
ATOM     13  O   LIG    1        1.399  -1.934  -0.908  0.00  0.00    -0.274 OA
BRANCH  12  14
ATOM     14  CA  LIG    1        3.535  -0.828  -0.744  0.00  0.00    +0.168 C 
BRANCH  14  15
ATOM     15  C   LIG    1        4.159  -1.848   0.191  0.00  0.00    -0.022 A 
ATOM     16  C   LIG    1        4.981  -2.876  -0.291  0.00  0.00    +0.009 A 
ATOM     17  C   LIG    1        5.548  -3.796   0.586  0.00  0.00    +0.046 A 
ATOM     18  C   LIG    1        5.300  -3.693   1.953  0.00  0.00    +0.117 A 
ATOM     19  C   LIG    1        4.492  -2.673   2.448  0.00  0.00    +0.046 A 
ATOM     20  C   LIG    1        3.926  -1.753   1.570  0.00  0.00    +0.009 A 
BRANCH  18  21
ATOM     21  O   LIG    1        5.856  -4.599   2.816  0.00  0.00    -0.507 OA
ATOM     22  H   LIG    1        6.388  -5.261   2.370  0.00  0.00    +0.292 HD
ENDBRANCH  18  21
ENDBRANCH  14  15
BRANCH  14  23
ATOM     23  N   LIG    1        3.893  -0.863  -2.175  0.00  0.00    -0.316 NA
ATOM     24  H1  LIG    1        4.895  -0.826  -2.292  0.00  0.00    +0.119 HD
ATOM     25  H2  LIG    1        3.522  -0.055  -2.655  0.00  0.00    +0.119 HD
ENDBRANCH  14  23
ENDBRANCH  12  14
ENDBRANCH   3  10
BRANCH   6  26
ATOM     26  C   LIG    1       -2.007   2.626   4.641  0.00  0.00    +0.002 C 
ATOM     27  C   LIG    1       -2.183   2.154   5.891  0.00  0.00    -0.030 C 
ATOM     28  C   LIG    1       -2.674   2.984   7.059  0.00  0.00    +0.035 C 
ENDBRANCH   6  26
BRANCH   5  29
ATOM     29  C   LIG    1       -2.075   3.663   1.888  0.00  0.00    +0.352 C 
ATOM     30  O   LIG    1       -1.566   4.712   2.281  0.00  0.00    -0.244 OA
BRANCH  29  31
ATOM     31  OXT LIG    1       -3.197   3.611   1.112  0.00  0.00    -0.476 OA
ATOM     32  HXT LIG    1       -3.539   4.484   0.908  0.00  0.00    +0.295 HD
ENDBRANCH  29  31
ENDBRANCH   5  29
TORSDOF 8
