REMARK  Name = DB01275
REMARK                            x       y       z     vdW  Elec       q    Type
REMARK                         _______ _______ _______ _____ _____    ______ ____
ROOT
ATOM      1  C   LIG    1       -0.699   1.299  -0.103  0.00  0.00    +0.162 A 
ATOM      2  C   LIG    1       -2.125   1.267  -0.048  0.00  0.00    +0.026 A 
ATOM      3  C   LIG    1       -2.909   0.080  -0.003  0.00  0.00    +0.012 A 
ATOM      4  C   LIG    1       -4.299   0.158   0.052  0.00  0.00    +0.001 A 
ATOM      5  C   LIG    1       -4.942   1.392   0.065  0.00  0.00    +0.001 A 
ATOM      6  C   LIG    1       -4.208   2.575   0.022  0.00  0.00    +0.010 A 
ATOM      7  C   LIG    1       -2.794   2.527  -0.036  0.00  0.00    +0.005 A 
ATOM      8  C   LIG    1       -1.983   3.681  -0.083  0.00  0.00    +0.143 A 
ATOM      9  N   LIG    1       -0.631   3.650  -0.140  0.00  0.00    -0.155 NA
ATOM     10  N   LIG    1        0.002   2.468  -0.154  0.00  0.00    -0.133 NA
ENDROOT
BRANCH   1  11
ATOM     11  N   LIG    1        0.048   0.108  -0.136  0.00  0.00    -0.266 N 
ATOM     12  H   LIG    1       -0.416  -0.782  -0.023  0.00  0.00    +0.168 HD
BRANCH  11  13
ATOM     13  N   LIG    1        1.411   0.041   0.336  0.00  0.00    -0.255 NA
ATOM     14  H   LIG    1        1.941  -0.517  -0.318  0.00  0.00    +0.140 HD
ATOM     15  H   LIG    1        1.405  -0.383   1.253  0.00  0.00    +0.140 HD
ENDBRANCH  11  13
ENDBRANCH   1  11
TORSDOF 2
