REMARK  Name = DB01583
REMARK                            x       y       z     vdW  Elec       q    Type
REMARK                         _______ _______ _______ _____ _____    ______ ____
ROOT
ATOM      1  I   LIG    1        4.773  -0.407  -2.928  0.00  0.00    -0.040 I 
ATOM      2  C   LIG    1        3.656  -0.151  -1.176  0.00  0.00    +0.057 A 
ATOM      3  C   LIG    1        4.287   0.092   0.051  0.00  0.00    +0.155 A 
ATOM      4  C   LIG    1        3.514   0.250   1.208  0.00  0.00    +0.057 A 
ATOM      5  C   LIG    1        2.122   0.184   1.132  0.00  0.00    +0.021 A 
ATOM      6  C   LIG    1        1.490  -0.041  -0.094  0.00  0.00    -0.043 A 
ATOM      7  I   LIG    1        4.412   0.594   3.069  0.00  0.00    -0.040 I 
ATOM      8  C   LIG    1        2.264  -0.215  -1.244  0.00  0.00    +0.021 A 
ENDROOT
BRANCH   6   9
ATOM      9  C   LIG    1       -0.033  -0.094  -0.173  0.00  0.00    +0.065 C 
BRANCH   9  10
ATOM     10  CA  LIG    1       -0.694   1.306  -0.037  0.00  0.00    +0.165 C 
BRANCH  10  11
ATOM     11  N   LIG    1       -2.156   1.171   0.112  0.00  0.00    -0.318 NA
ATOM     12  H1  LIG    1       -2.541   0.733  -0.713  0.00  0.00    +0.119 HD
ATOM     13  H2  LIG    1       -2.581   2.087   0.149  0.00  0.00    +0.119 HD
ENDBRANCH  10  11
BRANCH  10  14
ATOM     14  C   LIG    1       -0.316   2.272  -1.219  0.00  0.00    +0.322 C 
ATOM     15  OXT LIG    1        0.482   3.186  -0.906  0.00  0.00    -0.249 OA
BRANCH  14  16
ATOM     16  O   LIG    1       -0.797   1.986  -2.342  0.00  0.00    -0.480 OA
ATOM     17  H   LIG    1       -1.146   2.662  -2.888  0.00  0.00    +0.295 HD
ENDBRANCH  14  16
ENDBRANCH  10  14
ENDBRANCH   9  10
ENDBRANCH   6   9
BRANCH   3  18
ATOM     18  O   LIG    1        5.660   0.160   0.118  0.00  0.00    -0.454 OA
BRANCH  18  19
ATOM     19  C   LIG    1        6.302   1.381   0.052  0.00  0.00    +0.131 A 
ATOM     20  C   LIG    1        5.725   2.535  -0.500  0.00  0.00    +0.064 A 
ATOM     21  C   LIG    1        6.434   3.735  -0.541  0.00  0.00    +0.059 A 
ATOM     22  C   LIG    1        7.737   3.795  -0.031  0.00  0.00    +0.143 A 
ATOM     23  C   LIG    1        8.321   2.646   0.514  0.00  0.00    +0.059 A 
ATOM     24  I   LIG    1       10.267   2.676   1.292  0.00  0.00    -0.040 I 
ATOM     25  I   LIG    1        5.507   5.420  -1.375  0.00  0.00    -0.040 I 
ATOM     26  C   LIG    1        7.604   1.450   0.548  0.00  0.00    +0.064 A 
BRANCH  22  27
ATOM     27  O   LIG    1        8.438   4.973  -0.065  0.00  0.00    -0.505 OA
ATOM     28  H   LIG    1        9.106   5.025   0.622  0.00  0.00    +0.292 HD
ENDBRANCH  22  27
ENDBRANCH  18  19
ENDBRANCH   3  18
TORSDOF 8
