REMARK  Name = DB01224
REMARK                            x       y       z     vdW  Elec       q    Type
REMARK                         _______ _______ _______ _____ _____    ______ ____
ROOT
ATOM      1  S   LIG    1        0.993  -6.008  -7.429  0.00  0.00    -0.084 S 
ATOM      2  C   LIG    1       -0.594  -6.538  -6.858  0.00  0.00    +0.063 A 
ATOM      3  C   LIG    1       -1.212  -7.599  -7.527  0.00  0.00    +0.019 A 
ATOM      4  C   LIG    1       -2.462  -8.058  -7.126  0.00  0.00    +0.001 A 
ATOM      5  C   LIG    1       -3.107  -7.449  -6.057  0.00  0.00    +0.004 A 
ATOM      6  C   LIG    1       -2.492  -6.392  -5.390  0.00  0.00    +0.056 A 
ATOM      7  C   LIG    1       -1.216  -5.926  -5.737  0.00  0.00    +0.190 A 
ATOM      8  N   LIG    1       -0.725  -4.794  -5.056  0.00  0.00    -0.040 NA
ATOM      9  C   LIG    1        0.487  -4.637  -4.664  0.00  0.00    +0.322 C 
ATOM     10  C   LIG    1        1.605  -5.618  -4.761  0.00  0.00    +0.079 A 
ATOM     11  C   LIG    1        2.352  -5.926  -3.609  0.00  0.00    +0.017 A 
ATOM     12  C   LIG    1        3.421  -6.818  -3.656  0.00  0.00    +0.001 A 
ATOM     13  C   LIG    1        3.762  -7.430  -4.857  0.00  0.00    +0.001 A 
ATOM     14  C   LIG    1        3.026  -7.157  -6.006  0.00  0.00    +0.016 A 
ATOM     15  C   LIG    1        1.951  -6.265  -5.967  0.00  0.00    +0.028 A 
ENDROOT
BRANCH   9  16
ATOM     16  N   LIG    1        0.821  -3.424  -4.037  0.00  0.00    -0.218 N 
ATOM     17  C   LIG    1       -0.163  -2.563  -3.352  0.00  0.00    +0.241 C 
ATOM     18  C   LIG    1        0.371  -2.039  -1.999  0.00  0.00    +0.128 C 
ATOM     19  N   LIG    1        1.650  -1.341  -2.164  0.00  0.00    -0.293 NA
ATOM     20  C   LIG    1        2.627  -2.255  -2.761  0.00  0.00    +0.128 C 
ATOM     21  C   LIG    1        2.140  -2.767  -4.133  0.00  0.00    +0.241 C 
BRANCH  19  22
ATOM     22  C   LIG    1        2.186  -0.816  -0.900  0.00  0.00    +0.112 C 
BRANCH  22  23
ATOM     23  C   LIG    1        1.327   0.289  -0.252  0.00  0.00    +0.175 C 
BRANCH  23  24
ATOM     24  O   LIG    1        0.241  -0.284   0.466  0.00  0.00    -0.376 OA
BRANCH  24  25
ATOM     25  C   LIG    1       -0.611   0.671   1.083  0.00  0.00    +0.187 C 
BRANCH  25  26
ATOM     26  C   LIG    1       -1.758  -0.051   1.806  0.00  0.00    +0.184 C 
BRANCH  26  27
ATOM     27  O   LIG    1       -1.277  -0.771   2.922  0.00  0.00    -0.393 OA
ATOM     28  H   LIG    1       -2.012  -1.237   3.326  0.00  0.00    +0.209 HD
ENDBRANCH  26  27
ENDBRANCH  25  26
ENDBRANCH  24  25
ENDBRANCH  23  24
ENDBRANCH  22  23
ENDBRANCH  19  22
ENDBRANCH   9  16
TORSDOF 7
