REMARK  Name = DB01268
REMARK                            x       y       z     vdW  Elec       q    Type
REMARK                         _______ _______ _______ _____ _____    ______ ____
ROOT
ATOM      1  C   LIG    1        3.763  -1.922   4.788  0.00  0.00    +0.044 A 
ATOM      2  C   LIG    1        3.865  -1.044   3.704  0.00  0.00    -0.013 A 
ATOM      3  C   LIG    1        5.051  -0.142   3.405  0.00  0.00    +0.047 C 
ATOM      4  C   LIG    1        2.715  -1.250   2.893  0.00  0.00    +0.060 A 
ATOM      5  C   LIG    1        1.886  -2.168   3.550  0.00  0.00    +0.026 A 
ATOM      6  C   LIG    1        0.510  -2.730   3.258  0.00  0.00    +0.064 C 
ATOM      7  N   LIG    1        2.570  -2.579   4.658  0.00  0.00    -0.358 N 
ATOM      8  H   LIG    1        2.224  -3.259   5.321  0.00  0.00    +0.166 HD
ENDROOT
BRANCH   1  18
ATOM      9  F   LIG    1        9.105  -2.941   9.192  0.00  0.00    -0.205 F 
ATOM     10  C   LIG    1        7.764  -3.107   9.211  0.00  0.00    +0.124 A 
ATOM     11  C   LIG    1        7.141  -3.619  10.354  0.00  0.00    +0.040 A 
ATOM     12  C   LIG    1        5.754  -3.793  10.381  0.00  0.00    +0.027 A 
ATOM     13  C   LIG    1        5.016  -3.448   9.250  0.00  0.00    +0.042 A 
ATOM     14  C   LIG    1        5.616  -2.945   8.119  0.00  0.00    +0.011 A 
ATOM     15  C   LIG    1        4.560  -2.703   7.138  0.00  0.00    +0.048 C 
ATOM     16  C   LIG    1        3.314  -3.084   7.798  0.00  0.00    +0.249 C 
ATOM     17  O   LIG    1        2.157  -3.039   7.387  0.00  0.00    -0.270 OA
ATOM     18  C   LIG    1        4.694  -2.209   5.881  0.00  0.00    +0.039 C 
ATOM     19  N   LIG    1        3.663  -3.518   9.024  0.00  0.00    -0.281 N 
ATOM     20  H   LIG    1        2.994  -3.846   9.705  0.00  0.00    +0.155 HD
ATOM     21  C   LIG    1        7.003  -2.768   8.087  0.00  0.00    +0.048 A 
ENDBRANCH   1  18
BRANCH   4  22
ATOM     22  C   LIG    1        2.406  -0.532   1.674  0.00  0.00    +0.246 C 
ATOM     23  N   LIG    1        1.712  -1.246   0.767  0.00  0.00    -0.310 N 
ATOM     24  H   LIG    1        1.496  -2.209   0.984  0.00  0.00    +0.149 HD
ATOM     25  O   LIG    1        2.773   0.630   1.499  0.00  0.00    -0.270 OA
BRANCH  23  26
ATOM     26  C   LIG    1        1.254  -0.761  -0.534  0.00  0.00    +0.120 C 
BRANCH  26  27
ATOM     27  C   LIG    1       -0.213  -0.272  -0.505  0.00  0.00    +0.103 C 
BRANCH  27  28
ATOM     28  N   LIG    1       -0.363   1.095   0.020  0.00  0.00    -0.301 NA
BRANCH  28  29
ATOM     29  C   LIG    1        0.119   2.110  -0.935  0.00  0.00    +0.081 C 
ATOM     30  C   LIG    1        0.922   3.214  -0.228  0.00  0.00    +0.020 C 
ENDBRANCH  28  29
BRANCH  28  31
ATOM     31  C   LIG    1       -1.771   1.294   0.399  0.00  0.00    +0.081 C 
ATOM     32  C   LIG    1       -2.053   2.615   1.133  0.00  0.00    +0.020 C 
ENDBRANCH  28  31
ENDBRANCH  27  28
ENDBRANCH  26  27
ENDBRANCH  23  26
ENDBRANCH   4  22
TORSDOF 7
