REMARK  Name = DB01193
REMARK                            x       y       z     vdW  Elec       q    Type
REMARK                         _______ _______ _______ _____ _____    ______ ____
ROOT
ATOM      1  C   LIG    1       -0.327   1.136  -0.248  0.00  0.00    +0.131 A 
ATOM      2  C   LIG    1        0.404   2.292  -0.567  0.00  0.00    +0.048 A 
ATOM      3  C   LIG    1       -0.170   3.555  -0.475  0.00  0.00    +0.027 A 
ATOM      4  C   LIG    1       -1.501   3.695  -0.066  0.00  0.00    +0.034 A 
ATOM      5  C   LIG    1       -2.232   2.552   0.265  0.00  0.00    +0.038 A 
ATOM      6  C   LIG    1       -1.671   1.267   0.166  0.00  0.00    +0.060 A 
ENDROOT
BRANCH   4   7
ATOM      7  N   LIG    1       -2.161   4.931   0.074  0.00  0.00    -0.285 N 
ATOM      8  H   LIG    1       -2.993   4.903   0.644  0.00  0.00    +0.155 HD
ATOM      9  C   LIG    1       -1.877   6.111  -0.518  0.00  0.00    +0.217 C 
ATOM     10  O   LIG    1       -0.971   6.286  -1.336  0.00  0.00    -0.275 OA
BRANCH   9  11
ATOM     11  C   LIG    1       -2.803   7.272  -0.120  0.00  0.00    +0.096 C 
BRANCH  11  12
ATOM     12  C   LIG    1       -2.563   8.587  -0.896  0.00  0.00    +0.006 C 
ATOM     13  C   LIG    1       -3.530   9.704  -0.481  0.00  0.00    +0.004 C 
ENDBRANCH  11  12
ENDBRANCH   9  11
ENDBRANCH   4   7
BRANCH   6  14
ATOM     14  C   LIG    1       -2.498   0.075   0.560  0.00  0.00    +0.164 C 
ATOM     15  O   LIG    1       -2.033  -1.020   0.874  0.00  0.00    -0.292 OA
ATOM     16  C   LIG    1       -4.019   0.192   0.427  0.00  0.00    +0.092 C 
ENDBRANCH   6  14
BRANCH   1  17
ATOM     17  O   LIG    1        0.224  -0.129  -0.364  0.00  0.00    -0.489 OA
BRANCH  17  18
ATOM     18  C   LIG    1        1.641  -0.284  -0.309  0.00  0.00    +0.261 C 
BRANCH  18  19
ATOM     19  C   LIG    1        1.979  -1.771  -0.067  0.00  0.00    +0.166 C 
BRANCH  19  20
ATOM     20  O   LIG    1        3.383  -1.954  -0.113  0.00  0.00    -0.387 OA
ATOM     21  H   LIG    1        3.710  -1.603  -0.945  0.00  0.00    +0.210 HD
ENDBRANCH  19  20
BRANCH  19  22
ATOM     22  C   LIG    1        1.409  -2.354   1.247  0.00  0.00    +0.115 C 
BRANCH  22  23
ATOM     23  N   LIG    1        1.845  -1.606   2.425  0.00  0.00    -0.311 NA
ATOM     24  H   LIG    1        2.853  -1.558   2.451  0.00  0.00    +0.122 HD
BRANCH  23  25
ATOM     25  C   LIG    1        1.331  -2.133   3.688  0.00  0.00    +0.048 C 
ATOM     26  C   LIG    1        2.087  -1.427   4.825  0.00  0.00    +0.023 C 
ATOM     27  C   LIG    1       -0.193  -1.924   3.816  0.00  0.00    +0.023 C 
ENDBRANCH  23  25
ENDBRANCH  22  23
ENDBRANCH  19  22
ENDBRANCH  18  19
ENDBRANCH  17  18
ENDBRANCH   1  17
TORSDOF 11
