REMARK  Name = DB01245
REMARK                            x       y       z     vdW  Elec       q    Type
REMARK                         _______ _______ _______ _____ _____    ______ ____
ROOT
ATOM      1  C   LIG    1       -0.060   0.129  -0.000  0.00  0.00    -0.000 C 
ENDROOT
BRANCH   1   2
ATOM      2  C   LIG    1       -0.657   1.546   0.046  0.00  0.00    -0.000 C 
BRANCH   2   3
ATOM      3  C   LIG    1       -2.196   1.549   0.076  0.00  0.00    -0.002 C 
BRANCH   3   4
ATOM      4  C   LIG    1       -2.794   2.966   0.107  0.00  0.00    -0.018 C 
BRANCH   4   5
ATOM      5  C   LIG    1       -4.339   2.943   0.133  0.00  0.00    -0.076 C 
BRANCH   5   6
ATOM      6  N   LIG    1       -5.002   4.353   0.148  0.00  0.00    +0.374 N 
ATOM      7  C   LIG    1       -4.649   5.162  -1.123  0.00  0.00    -0.093 C 
ATOM      8  C   LIG    1       -4.592   5.162   1.403  0.00  0.00    -0.093 C 
ATOM      9  C   LIG    1       -6.538   4.157   0.183  0.00  0.00    -0.093 C 
ENDBRANCH   5   6
ENDBRANCH   4   5
ENDBRANCH   3   4
ENDBRANCH   2   3
ENDBRANCH   1   2
BRANCH   1  10
ATOM     10  C   LIG    1        1.478   0.126  -0.043  0.00  0.00    -0.000 C 
BRANCH  10  11
ATOM     11  C   LIG    1        2.072  -1.295  -0.100  0.00  0.00    -0.000 C 
BRANCH  11  12
ATOM     12  C   LIG    1        3.613  -1.345  -0.085  0.00  0.00    -0.002 C 
BRANCH  12  13
ATOM     13  C   LIG    1        4.281  -0.733  -1.331  0.00  0.00    -0.018 C 
BRANCH  13  14
ATOM     14  C   LIG    1        5.814  -0.928  -1.322  0.00  0.00    -0.076 C 
BRANCH  14  15
ATOM     15  N   LIG    1        6.548  -0.307  -2.548  0.00  0.00    +0.374 N 
ATOM     16  C   LIG    1        6.375   1.231  -2.594  0.00  0.00    -0.093 C 
ATOM     17  C   LIG    1        6.053  -0.919  -3.881  0.00  0.00    -0.093 C 
ATOM     18  C   LIG    1        8.059  -0.617  -2.406  0.00  0.00    -0.093 C 
ENDBRANCH  14  15
ENDBRANCH  13  14
ENDBRANCH  12  13
ENDBRANCH  11  12
ENDBRANCH  10  11
ENDBRANCH   1  10
TORSDOF 11
