REMARK  Name = DB01064
REMARK                            x       y       z     vdW  Elec       q    Type
REMARK                         _______ _______ _______ _____ _____    ______ ____
ROOT
ATOM      1  C   LIG    1       -0.520   1.439  -0.073  0.00  0.00    -0.014 A 
ATOM      2  C   LIG    1       -0.703   1.998   1.198  0.00  0.00    +0.010 A 
ATOM      3  C   LIG    1       -1.178   3.302   1.335  0.00  0.00    +0.049 A 
ATOM      4  C   LIG    1       -1.476   4.063   0.204  0.00  0.00    +0.158 A 
ATOM      5  C   LIG    1       -1.292   3.514  -1.072  0.00  0.00    +0.159 A 
ATOM      6  C   LIG    1       -0.815   2.208  -1.204  0.00  0.00    +0.055 A 
ENDROOT
BRANCH   5   7
ATOM      7  O   LIG    1       -1.574   4.240  -2.203  0.00  0.00    -0.503 OA
ATOM      8  H   LIG    1       -1.409   3.754  -3.013  0.00  0.00    +0.292 HD
ENDBRANCH   5   7
BRANCH   4   9
ATOM      9  O   LIG    1       -1.944   5.343   0.365  0.00  0.00    -0.503 OA
ATOM     10  H   LIG    1       -2.026   5.598   1.287  0.00  0.00    +0.292 HD
ENDBRANCH   4   9
BRANCH   1  11
ATOM     11  C   LIG    1        0.002   0.012  -0.234  0.00  0.00    +0.158 C 
BRANCH  11  12
ATOM     12  O   LIG    1       -0.677  -0.900   0.613  0.00  0.00    -0.386 OA
ATOM     13  H   LIG    1       -1.597  -0.940   0.343  0.00  0.00    +0.210 HD
ENDBRANCH  11  12
BRANCH  11  14
ATOM     14  C   LIG    1        1.523  -0.059   0.034  0.00  0.00    +0.117 C 
BRANCH  14  15
ATOM     15  N   LIG    1        2.073  -1.352  -0.367  0.00  0.00    -0.311 NA
ATOM     16  H   LIG    1        1.781  -1.586  -1.305  0.00  0.00    +0.122 HD
BRANCH  15  17
ATOM     17  C   LIG    1        3.527  -1.445  -0.252  0.00  0.00    +0.048 C 
ATOM     18  C   LIG    1        3.990  -1.412   1.219  0.00  0.00    +0.023 C 
ATOM     19  C   LIG    1        3.964  -2.747  -0.945  0.00  0.00    +0.023 C 
ENDBRANCH  15  17
ENDBRANCH  14  15
ENDBRANCH  11  14
ENDBRANCH   1  11
TORSDOF 7
