REMARK  Name = DB01097
REMARK                            x       y       z     vdW  Elec       q    Type
REMARK                         _______ _______ _______ _____ _____    ______ ____
ROOT
ATOM      1  C   LIG    1        4.273  -0.040  -0.003  0.00  0.00    +0.055 A 
ATOM      2  C   LIG    1        3.491  -1.142  -0.364  0.00  0.00    +0.014 A 
ATOM      3  C   LIG    1        2.103  -1.043  -0.379  0.00  0.00    +0.024 A 
ATOM      4  C   LIG    1        1.476   0.157  -0.035  0.00  0.00    +0.034 A 
ATOM      5  C   LIG    1        2.259   1.263   0.333  0.00  0.00    +0.024 A 
ATOM      6  C   LIG    1        3.647   1.160   0.348  0.00  0.00    +0.014 A 
ENDROOT
BRANCH   1   8
ATOM      7  F   LIG    1        6.198  -1.405   0.230  0.00  0.00    -0.166 F 
ATOM      8  C   LIG    1        5.797  -0.148   0.030  0.00  0.00    +0.417 C 
ATOM      9  F   LIG    1        6.288   0.271  -1.136  0.00  0.00    -0.166 F 
ATOM     10  F   LIG    1        6.314   0.605   1.003  0.00  0.00    -0.166 F 
ENDBRANCH   1   8
BRANCH   4  11
ATOM     11  N   LIG    1        0.069   0.144  -0.077  0.00  0.00    -0.281 N 
ATOM     12  H   LIG    1       -0.329  -0.761  -0.284  0.00  0.00    +0.155 HD
ATOM     13  C   LIG    1       -0.815   1.152   0.104  0.00  0.00    +0.253 C 
ATOM     14  O   LIG    1       -0.523   2.327   0.325  0.00  0.00    -0.270 OA
BRANCH  13  15
ATOM     15  C   LIG    1       -2.196   0.738   0.010  0.00  0.00    +0.098 A 
ATOM     16  C   LIG    1       -2.723  -0.562   0.003  0.00  0.00    +0.170 A 
ATOM     17  N   LIG    1       -4.033  -0.599  -0.054  0.00  0.00    -0.086 NA
ATOM     18  O   LIG    1       -4.434   0.735  -0.060  0.00  0.00    -0.359 OA
ATOM     19  C   LIG    1       -3.337   1.535  -0.010  0.00  0.00    +0.146 A 
ATOM     20  C   LIG    1       -3.618   3.021   0.004  0.00  0.00    +0.090 C 
ENDBRANCH  13  15
ENDBRANCH   4  11
TORSDOF 3
