REMARK  Name = DB01626
REMARK                            x       y       z     vdW  Elec       q    Type
REMARK                         _______ _______ _______ _____ _____    ______ ____
ROOT
ATOM      1  C   LIG    1        1.389  -0.056   0.017  0.00  0.00    +0.120 C 
ENDROOT
BRANCH   1   2
ATOM      2  C   LIG    1        1.971  -1.465  -0.042  0.00  0.00    -0.033 A 
ATOM      3  C   LIG    1        1.763  -2.256  -1.175  0.00  0.00    +0.005 A 
ATOM      4  C   LIG    1        2.259  -3.557  -1.216  0.00  0.00    +0.000 A 
ATOM      5  C   LIG    1        2.951  -4.065  -0.119  0.00  0.00    +0.000 A 
ATOM      6  C   LIG    1        3.149  -3.287   1.020  0.00  0.00    +0.000 A 
ATOM      7  C   LIG    1        2.653  -1.987   1.061  0.00  0.00    +0.005 A 
ENDBRANCH   1   2
BRANCH   1   8
ATOM      8  N   LIG    1       -0.067  -0.041   0.214  0.00  0.00    -0.290 NA
ATOM      9  C   LIG    1       -0.425  -0.543   1.548  0.00  0.00    +0.106 C 
BRANCH   8  10
ATOM     10  C   LIG    1       -0.571   1.319  -0.030  0.00  0.00    +0.173 C 
BRANCH  10  11
ATOM     11  C   LIG    1       -2.046   1.370  -0.108  0.00  0.00    -0.090 C 
ATOM     12  C   LIG    1       -3.264   1.426  -0.178  0.00  0.00    +0.005 C 
ENDBRANCH  10  11
ENDBRANCH   8  10
ENDBRANCH   1   8
TORSDOF 4
