REMARK  Name = DB01576
REMARK                            x       y       z     vdW  Elec       q    Type
REMARK                         _______ _______ _______ _____ _____    ______ ____
ROOT
ATOM      1  C   LIG    1        1.495  -0.058   0.114  0.00  0.00    +0.053 C 
ENDROOT
BRANCH   1   2
ATOM      2  C   LIG    1        2.035  -1.483   0.063  0.00  0.00    -0.046 A 
ATOM      3  C   LIG    1        2.163  -2.134  -1.167  0.00  0.00    +0.004 A 
ATOM      4  C   LIG    1        2.656  -3.435  -1.218  0.00  0.00    +0.000 A 
ATOM      5  C   LIG    1        3.019  -4.082  -0.038  0.00  0.00    +0.000 A 
ATOM      6  C   LIG    1        2.895  -3.439   1.192  0.00  0.00    +0.000 A 
ATOM      7  C   LIG    1        2.402  -2.137   1.243  0.00  0.00    +0.004 A 
ENDBRANCH   1   2
BRANCH   1   8
ATOM      8  C   LIG    1       -0.044   0.041   0.005  0.00  0.00    +0.052 C 
ATOM      9  C   LIG    1       -0.534   1.498  -0.049  0.00  0.00    +0.024 C 
BRANCH   8  10
ATOM     10  N   LIG    1       -0.686  -0.622   1.128  0.00  0.00    -0.327 NA
ATOM     11  H   LIG    1       -1.687  -0.504   1.064  0.00  0.00    +0.118 HD
ATOM     12  H   LIG    1       -0.402  -0.178   1.990  0.00  0.00    +0.118 HD
ENDBRANCH   8  10
ENDBRANCH   1   8
TORSDOF 3
