REMARK  Name = DB01250
REMARK                            x       y       z     vdW  Elec       q    Type
REMARK                         _______ _______ _______ _____ _____    ______ ____
ROOT
ATOM      1  N   LIG    1        1.305   0.121  -0.389  0.00  0.00    -0.149 NA
ATOM      2  N   LIG    1        1.950  -0.971  -0.461  0.00  0.00    -0.149 NA
ENDROOT
BRANCH   1   3
ATOM      3  C   LIG    1       -0.091   0.009  -0.247  0.00  0.00    +0.087 A 
ATOM      4  C   LIG    1       -0.819   1.196  -0.164  0.00  0.00    +0.033 A 
ATOM      5  C   LIG    1       -2.202   1.192  -0.024  0.00  0.00    +0.048 A 
ATOM      6  C   LIG    1       -2.904  -0.010   0.038  0.00  0.00    +0.131 A 
ATOM      7  C   LIG    1       -2.215  -1.239  -0.042  0.00  0.00    +0.102 A 
ATOM      8  C   LIG    1       -0.815  -1.199  -0.183  0.00  0.00    +0.048 A 
BRANCH   6   9
ATOM      9  O   LIG    1       -4.268   0.077   0.179  0.00  0.00    -0.506 OA
ATOM     10  H   LIG    1       -4.582   0.982   0.221  0.00  0.00    +0.292 HD
ENDBRANCH   6   9
BRANCH   7  11
ATOM     11  C   LIG    1       -2.933  -2.578   0.018  0.00  0.00    +0.340 C 
ATOM     12  O   LIG    1       -4.153  -2.683   0.129  0.00  0.00    -0.245 OA
BRANCH  11  13
ATOM     13  O   LIG    1       -2.121  -3.674  -0.061  0.00  0.00    -0.477 OA
ATOM     14  H   LIG    1       -2.618  -4.494  -0.018  0.00  0.00    +0.295 HD
ENDBRANCH  11  13
ENDBRANCH   7  11
ENDBRANCH   1   3
BRANCH   2  15
ATOM     15  C   LIG    1        3.346  -0.859  -0.603  0.00  0.00    +0.087 A 
ATOM     16  C   LIG    1        4.074  -2.046  -0.686  0.00  0.00    +0.033 A 
ATOM     17  C   LIG    1        5.457  -2.042  -0.826  0.00  0.00    +0.048 A 
ATOM     18  C   LIG    1        6.159  -0.840  -0.888  0.00  0.00    +0.131 A 
ATOM     19  C   LIG    1        5.470   0.389  -0.808  0.00  0.00    +0.102 A 
ATOM     20  C   LIG    1        4.070   0.349  -0.667  0.00  0.00    +0.048 A 
BRANCH  18  21
ATOM     21  O   LIG    1        7.523  -0.927  -1.029  0.00  0.00    -0.506 OA
ATOM     22  H   LIG    1        7.837  -1.832  -1.071  0.00  0.00    +0.292 HD
ENDBRANCH  18  21
BRANCH  19  23
ATOM     23  C   LIG    1        6.188   1.728  -0.868  0.00  0.00    +0.340 C 
ATOM     24  O   LIG    1        7.408   1.833  -0.979  0.00  0.00    -0.245 OA
BRANCH  23  25
ATOM     25  O   LIG    1        5.376   2.824  -0.789  0.00  0.00    -0.477 OA
ATOM     26  H   LIG    1        5.873   3.644  -0.832  0.00  0.00    +0.295 HD
ENDBRANCH  23  25
ENDBRANCH  19  23
ENDBRANCH   2  15
TORSDOF 8
