REMARK  Name = DB01337
REMARK                            x       y       z     vdW  Elec       q    Type
REMARK                         _______ _______ _______ _____ _____    ______ ____
ROOT
ATOM      1  C   LIG    1       -1.628  -1.921   0.630  0.00  0.00    +0.000 C 
ATOM      2  C   LIG    1       -1.459  -2.377  -0.821  0.00  0.00    -0.007 C 
ATOM      3  C   LIG    1       -0.523  -1.297  -1.416  0.00  0.00    -0.023 C 
ATOM      4  C   LIG    1        0.206  -0.641  -0.193  0.00  0.00    +0.170 C 
ATOM      5  C   LIG    1       -0.212  -1.471   1.060  0.00  0.00    +0.007 C 
ATOM      6  C   LIG    1        0.778  -2.660   1.286  0.00  0.00    +0.015 C 
ATOM      7  C   LIG    1       -0.391  -0.642   2.358  0.00  0.00    +0.011 C 
ATOM      8  C   LIG    1       -1.045  -1.478   3.485  0.00  0.00    +0.005 C 
ATOM      9  C   LIG    1       -2.401  -2.135   3.056  0.00  0.00    -0.001 C 
ATOM     10  C   LIG    1       -3.078  -3.044   4.161  0.00  0.00    -0.027 C 
ATOM     11  C   LIG    1       -2.201  -4.304   4.450  0.00  0.00    +0.011 C 
ATOM     12  C   LIG    1       -3.217  -2.277   5.517  0.00  0.00    -0.004 C 
ATOM     13  C   LIG    1       -4.507  -2.439   6.421  0.00  0.00    -0.024 C 
ATOM     14  C   LIG    1       -5.620  -3.439   5.941  0.00  0.00    +0.164 C 
ATOM     15  C   LIG    1       -5.274  -4.248   4.673  0.00  0.00    +0.047 C 
ATOM     16  C   LIG    1       -4.497  -3.430   3.633  0.00  0.00    -0.001 C 
ATOM     17  C   LIG    1       -4.418  -4.160   2.266  0.00  0.00    +0.004 C 
ATOM     18  C   LIG    1       -3.716  -3.296   1.205  0.00  0.00    +0.004 C 
ATOM     19  C   LIG    1       -2.304  -2.859   1.666  0.00  0.00    -0.004 C 
ENDROOT
BRANCH   3  20
ATOM     20  N   LIG    1        0.189  -1.586  -2.786  0.00  0.00    +0.382 N 
ATOM     21  C   LIG    1        1.278  -2.679  -2.611  0.00  0.00    -0.091 C 
ATOM     22  C   LIG    1       -0.827  -2.163  -3.824  0.00  0.00    -0.075 C 
ATOM     23  C   LIG    1       -1.855  -1.101  -4.273  0.00  0.00    -0.018 C 
ATOM     24  C   LIG    1       -1.173   0.158  -4.830  0.00  0.00    -0.004 C 
ATOM     25  C   LIG    1       -0.138   0.735  -3.851  0.00  0.00    -0.018 C 
ATOM     26  C   LIG    1        0.884  -0.325  -3.391  0.00  0.00    -0.075 C 
ENDBRANCH   3  20
BRANCH  13  27
ATOM     27  N   LIG    1       -4.130  -2.624   7.952  0.00  0.00    +0.382 N 
ATOM     28  C   LIG    1       -3.326  -1.362   8.412  0.00  0.00    -0.091 C 
ATOM     29  C   LIG    1       -3.182  -3.839   8.225  0.00  0.00    -0.075 C 
ATOM     30  C   LIG    1       -3.935  -5.171   8.373  0.00  0.00    -0.018 C 
ATOM     31  C   LIG    1       -5.008  -5.089   9.464  0.00  0.00    -0.004 C 
ATOM     32  C   LIG    1       -6.027  -3.976   9.195  0.00  0.00    -0.018 C 
ATOM     33  C   LIG    1       -5.393  -2.596   8.894  0.00  0.00    -0.075 C 
ENDBRANCH  13  27
BRANCH   4  34
ATOM     34  O   LIG    1        1.626  -0.525  -0.322  0.00  0.00    -0.463 OA
BRANCH  34  35
ATOM     35  C   LIG    1        2.322   0.485   0.251  0.00  0.00    +0.304 C 
ATOM     36  O   LIG    1        1.854   1.417   0.905  0.00  0.00    -0.251 OA
ATOM     37  C   LIG    1        3.818   0.368  -0.005  0.00  0.00    +0.136 C 
ENDBRANCH  34  35
ENDBRANCH   4  34
BRANCH  14  38
ATOM     38  O   LIG    1       -6.829  -2.694   5.749  0.00  0.00    -0.463 OA
BRANCH  38  39
ATOM     39  C   LIG    1       -8.052  -3.256   5.892  0.00  0.00    +0.304 C 
ATOM     40  O   LIG    1       -8.285  -4.430   6.185  0.00  0.00    -0.251 OA
ATOM     41  C   LIG    1       -9.178  -2.261   5.646  0.00  0.00    +0.136 C 
ENDBRANCH  38  39
ENDBRANCH  14  38
TORSDOF 6
