REMARK  Name = DB01006
REMARK                            x       y       z     vdW  Elec       q    Type
REMARK                         _______ _______ _______ _____ _____    ______ ____
ROOT
ATOM      1  C   LIG    1        0.064   0.035  -0.170  0.00  0.00    +0.169 C 
ENDROOT
BRANCH   1   2
ATOM      2  C   LIG    1       -0.522  -0.712  -1.391  0.00  0.00    -0.019 A 
ATOM      3  C   LIG    1       -1.738  -0.319  -1.969  0.00  0.00    +0.007 A 
ATOM      4  C   LIG    1       -2.257  -1.002  -3.066  0.00  0.00    +0.019 A 
ATOM      5  C   LIG    1       -1.567  -2.093  -3.594  0.00  0.00    +0.052 A 
ATOM      6  C   LIG    1       -0.362  -2.504  -3.022  0.00  0.00    +0.019 A 
ATOM      7  C   LIG    1        0.152  -1.820  -1.925  0.00  0.00    +0.007 A 
BRANCH   5   8
ATOM      8  C   LIG    1       -2.106  -2.807  -4.742  0.00  0.00    +0.099 C 
ATOM      9  N   LIG    1       -2.535  -3.375  -5.654  0.00  0.00    -0.191 NA
ENDBRANCH   5   8
ENDBRANCH   1   2
BRANCH   1  10
ATOM     10  C   LIG    1        1.598   0.052  -0.086  0.00  0.00    -0.019 A 
ATOM     11  C   LIG    1        2.366   0.493  -1.170  0.00  0.00    +0.007 A 
ATOM     12  C   LIG    1        3.755   0.504  -1.087  0.00  0.00    +0.019 A 
ATOM     13  C   LIG    1        4.383   0.076   0.083  0.00  0.00    +0.052 A 
ATOM     14  C   LIG    1        3.624  -0.361   1.171  0.00  0.00    +0.019 A 
ATOM     15  C   LIG    1        2.235  -0.371   1.085  0.00  0.00    +0.007 A 
BRANCH  13  16
ATOM     16  C   LIG    1        5.836   0.085   0.171  0.00  0.00    +0.099 C 
ATOM     17  N   LIG    1        6.991   0.091   0.240  0.00  0.00    -0.191 NA
ENDBRANCH  13  16
ENDBRANCH   1  10
BRANCH   1  18
ATOM     18  N   LIG    1       -0.477   1.384   0.050  0.00  0.00    -0.240 N 
ATOM     19  C   LIG    1       -1.231   1.852   1.092  0.00  0.00    +0.220 A 
ATOM     20  N   LIG    1       -1.513   3.117   0.916  0.00  0.00    -0.223 NA
ATOM     21  C   LIG    1       -0.912   3.372  -0.236  0.00  0.00    +0.245 A 
ATOM     22  N   LIG    1       -0.269   2.382  -0.819  0.00  0.00    -0.158 NA
ENDBRANCH   1  18
TORSDOF 5
