REMARK  Name = DB01501
REMARK                            x       y       z     vdW  Elec       q    Type
REMARK                         _______ _______ _______ _____ _____    ______ ____
ROOT
ATOM      1  C   LIG    1        0.135   0.161  -0.764  0.00  0.00    +0.086 C 
ENDROOT
BRANCH   1   5
ATOM      2  C   LIG    1       -2.476   3.576   0.171  0.00  0.00    +0.095 C 
ATOM      3  C   LIG    1       -1.156   3.313   0.968  0.00  0.00    +0.038 C 
ATOM      4  C   LIG    1       -0.597   1.877   0.817  0.00  0.00    +0.086 C 
ATOM      5  N   LIG    1       -0.345   1.536  -0.595  0.00  0.00    -0.302 NA
ATOM      6  C   LIG    1       -1.496   1.788  -1.480  0.00  0.00    +0.086 C 
ATOM      7  C   LIG    1       -2.085   3.211  -1.298  0.00  0.00    +0.038 C 
BRANCH   2   8
ATOM      8  C   LIG    1       -2.999   5.036   0.242  0.00  0.00    -0.031 A 
ATOM      9  C   LIG    1       -4.151   5.399  -0.476  0.00  0.00    +0.005 A 
ATOM     10  C   LIG    1       -4.641   6.701  -0.431  0.00  0.00    +0.000 A 
ATOM     11  C   LIG    1       -3.981   7.658   0.333  0.00  0.00    +0.000 A 
ATOM     12  C   LIG    1       -2.837   7.323   1.050  0.00  0.00    +0.000 A 
ATOM     13  C   LIG    1       -2.347   6.020   1.003  0.00  0.00    +0.005 A 
ENDBRANCH   2   8
BRANCH   2  14
ATOM     14  C   LIG    1       -3.590   2.610   0.692  0.00  0.00    +0.315 C 
ATOM     15  O   LIG    1       -4.265   1.876  -0.029  0.00  0.00    -0.250 OA
BRANCH  14  16
ATOM     16  O   LIG    1       -3.781   2.728   2.040  0.00  0.00    -0.480 OA
ATOM     17  H   LIG    1       -4.487   2.162   2.358  0.00  0.00    +0.295 HD
ENDBRANCH  14  16
ENDBRANCH   2  14
ENDBRANCH   1   5
BRANCH   1  18
ATOM     18  C   LIG    1        1.596  -0.049  -0.286  0.00  0.00    +0.046 C 
BRANCH  18  19
ATOM     19  C   LIG    1        2.044  -1.536  -0.114  0.00  0.00    +0.108 C 
BRANCH  19  20
ATOM     20  C   LIG    1        1.303  -2.289   1.022  0.00  0.00    -0.023 A 
ATOM     21  C   LIG    1        0.576  -1.614   2.016  0.00  0.00    +0.005 A 
ATOM     22  C   LIG    1       -0.069  -2.321   3.027  0.00  0.00    +0.000 A 
ATOM     23  C   LIG    1        0.012  -3.710   3.059  0.00  0.00    +0.000 A 
ATOM     24  C   LIG    1        0.736  -4.397   2.089  0.00  0.00    +0.000 A 
ATOM     25  C   LIG    1        1.379  -3.688   1.078  0.00  0.00    +0.005 A 
ENDBRANCH  19  20
BRANCH  19  26
ATOM     26  C   LIG    1        3.568  -1.551   0.156  0.00  0.00    -0.023 A 
ATOM     27  C   LIG    1        4.490  -1.963  -0.820  0.00  0.00    +0.005 A 
ATOM     28  C   LIG    1        5.856  -1.955  -0.551  0.00  0.00    +0.000 A 
ATOM     29  C   LIG    1        6.313  -1.531   0.693  0.00  0.00    +0.000 A 
ATOM     30  C   LIG    1        5.416  -1.111   1.670  0.00  0.00    +0.000 A 
ATOM     31  C   LIG    1        4.051  -1.119   1.400  0.00  0.00    +0.005 A 
ENDBRANCH  19  26
BRANCH  19  32
ATOM     32  C   LIG    1        1.719  -2.232  -1.384  0.00  0.00    +0.079 C 
ATOM     33  N   LIG    1        1.463  -2.775  -2.375  0.00  0.00    -0.195 NA
ENDBRANCH  19  32
ENDBRANCH  18  19
ENDBRANCH   1  18
TORSDOF 9
