REMARK  Name = DB01188
REMARK                            x       y       z     vdW  Elec       q    Type
REMARK                         _______ _______ _______ _____ _____    ______ ____
ROOT
ATOM      1  N   LIG    1        1.376   0.038  -0.229  0.00  0.00    -0.151 N 
ATOM      2  C   LIG    1        1.904   1.309  -0.240  0.00  0.00    +0.284 A 
ATOM      3  C   LIG    1        3.355   1.336  -0.083  0.00  0.00    +0.076 A 
ATOM      4  C   LIG    1        4.129   0.238   0.102  0.00  0.00    -0.043 A 
ATOM      5  C   LIG    1        5.636   0.337   0.242  0.00  0.00    +0.044 C 
ATOM      6  C   LIG    1        3.461  -1.057   0.108  0.00  0.00    +0.028 A 
ATOM      7  O   LIG    1        1.260   2.355  -0.348  0.00  0.00    -0.265 OA
ATOM      8  C   LIG    1        2.119  -1.127  -0.066  0.00  0.00    +0.065 A 
ENDROOT
BRANCH   8   9
ATOM      9  C   LIG    1        1.344  -2.461  -0.090  0.00  0.00    +0.039 C 
ATOM     10  C   LIG    1        0.874  -2.855  -1.510  0.00  0.00    +0.010 C 
ATOM     11  C   LIG    1       -0.136  -4.019  -1.416  0.00  0.00    +0.001 C 
ATOM     12  C   LIG    1        0.460  -5.231  -0.658  0.00  0.00    +0.000 C 
ATOM     13  C   LIG    1        1.091  -4.847   0.702  0.00  0.00    +0.001 C 
ATOM     14  C   LIG    1        2.073  -3.663   0.559  0.00  0.00    +0.010 C 
ENDBRANCH   8   9
BRANCH   1  15
ATOM     15  O   LIG    1       -0.019   0.026  -0.408  0.00  0.00    -0.423 OA
ATOM     16  H   LIG    1       -0.353   0.100   0.489  0.00  0.00    +0.326 HD
ENDBRANCH   1  15
TORSDOF 2
