REMARK  Name = DB01045
REMARK                            x       y       z     vdW  Elec       q    Type
REMARK                         _______ _______ _______ _____ _____    ______ ____
ROOT
ATOM      1  C   LIG    1       -2.764   0.179  -0.143  0.00  0.00    +0.071 A 
ATOM      2  C   LIG    1       -2.114   1.446   0.074  0.00  0.00    +0.046 A 
ATOM      3  C   LIG    1       -0.682   1.467   0.213  0.00  0.00    +0.136 A 
ATOM      4  C   LIG    1        0.098   0.298   0.085  0.00  0.00    +0.061 A 
ATOM      5  C   LIG    1       -0.547  -0.928  -0.166  0.00  0.00    +0.089 A 
ATOM      6  N   LIG    1        0.251  -2.090  -0.345  0.00  0.00    -0.278 N 
ATOM      7  H   LIG    1        1.050  -1.976  -0.951  0.00  0.00    +0.155 HD
ATOM      8  C   LIG    1        0.149  -3.270   0.305  0.00  0.00    +0.244 C 
ATOM      9  O   LIG    1       -0.706  -3.482   1.170  0.00  0.00    -0.270 OA
ATOM     10  C   LIG    1        1.156  -4.271  -0.044  0.00  0.00    +0.012 C 
ATOM     11  C   LIG    1        1.540  -5.168   1.134  0.00  0.00    +0.049 C 
ATOM     12  C   LIG    1        1.711  -4.462  -1.272  0.00  0.00    +0.008 C 
ATOM     13  C   LIG    1        1.473  -3.752  -2.525  0.00  0.00    -0.003 C 
ATOM     14  C   LIG    1        2.213  -3.979  -3.628  0.00  0.00    -0.021 C 
ATOM     15  C   LIG    1        2.126  -3.281  -4.991  0.00  0.00    +0.037 C 
ATOM     16  C   LIG    1        3.489  -2.629  -5.305  0.00  0.00    +0.014 C 
ATOM     17  C   LIG    1        0.924  -2.293  -5.188  0.00  0.00    +0.126 C 
ATOM     18  C   LIG    1        0.868  -1.533  -6.561  0.00  0.00    +0.044 C 
ATOM     19  C   LIG    1        0.798  -2.490  -7.777  0.00  0.00    +0.013 C 
ATOM     20  C   LIG    1       -0.208  -0.398  -6.664  0.00  0.00    +0.126 C 
ATOM     21  C   LIG    1       -0.156   0.713  -5.564  0.00  0.00    +0.056 C 
ATOM     22  C   LIG    1        1.234   1.389  -5.474  0.00  0.00    +0.014 C 
ATOM     23  C   LIG    1       -1.309   1.767  -5.694  0.00  0.00    +0.187 C 
ATOM     24  C   LIG    1       -1.473   2.787  -4.518  0.00  0.00    +0.060 C 
ATOM     25  C   LIG    1       -1.371   2.112  -3.130  0.00  0.00    +0.014 C 
ATOM     26  C   LIG    1       -2.782   3.627  -4.655  0.00  0.00    +0.150 C 
ATOM     27  C   LIG    1       -2.998   4.626  -3.515  0.00  0.00    +0.042 C 
ATOM     28  C   LIG    1       -3.912   4.488  -2.538  0.00  0.00    +0.190 C 
ATOM     29  O   LIG    1       -4.070   5.325  -1.477  0.00  0.00    -0.453 OA
ATOM     30  C   LIG    1       -4.066   4.737  -0.186  0.00  0.00    +0.314 C 
ATOM     31  C   LIG    1       -4.465   5.845   0.782  0.00  0.00    +0.114 C 
ATOM     32  C   LIG    1       -2.660   4.096   0.125  0.00  0.00    +0.250 C 
ATOM     33  O   LIG    1       -1.660   4.801   0.252  0.00  0.00    -0.284 OA
ATOM     34  O   LIG    1       -4.988   3.712  -0.059  0.00  0.00    -0.444 OA
ATOM     35  C   LIG    1       -4.317   2.518  -0.040  0.00  0.00    +0.144 A 
ATOM     36  C   LIG    1       -4.973   1.305  -0.159  0.00  0.00    +0.034 A 
ATOM     37  C   LIG    1       -6.497   1.242  -0.257  0.00  0.00    +0.051 C 
ATOM     38  C   LIG    1       -2.940   2.633   0.074  0.00  0.00    +0.079 A 
ATOM     39  C   LIG    1       -1.945  -0.991  -0.305  0.00  0.00    +0.150 A 
ATOM     40  C   LIG    1       -4.208   0.137  -0.222  0.00  0.00    +0.135 A 
ENDROOT
BRANCH   3  41
ATOM     41  O   LIG    1       -0.041   2.660   0.450  0.00  0.00    -0.505 OA
ATOM     42  H   LIG    1        0.908   2.559   0.550  0.00  0.00    +0.292 HD
ENDBRANCH   3  41
BRANCH   4  43
ATOM     43  C   LIG    1        1.587   0.352   0.150  0.00  0.00    +0.143 C 
ATOM     44  N   LIG    1        2.250   1.045   0.993  0.00  0.00    -0.192 NA
BRANCH  44  45
ATOM     45  N   LIG    1        3.684   1.123   1.009  0.00  0.00    -0.253 N 
ATOM     46  C   LIG    1        4.134   2.468   1.379  0.00  0.00    +0.141 C 
ATOM     47  C   LIG    1        4.043   3.435   0.165  0.00  0.00    +0.104 C 
ATOM     48  N   LIG    1        4.796   2.946  -0.998  0.00  0.00    -0.302 NA
ATOM     49  C   LIG    1        6.242   3.085  -0.840  0.00  0.00    +0.105 C 
ATOM     50  C   LIG    1        4.385   1.579  -1.349  0.00  0.00    +0.104 C 
ATOM     51  C   LIG    1        4.468   0.612  -0.135  0.00  0.00    +0.141 C 
ENDBRANCH  44  45
ENDBRANCH   4  43
BRANCH  17  52
ATOM     52  O   LIG    1       -0.291  -2.997  -4.988  0.00  0.00    -0.391 OA
ATOM     53  H   LIG    1       -0.387  -3.647  -5.688  0.00  0.00    +0.210 HD
ENDBRANCH  17  52
BRANCH  20  54
ATOM     54  O   LIG    1       -1.507  -0.966  -6.714  0.00  0.00    -0.391 OA
ATOM     55  H   LIG    1       -1.533  -1.609  -7.426  0.00  0.00    +0.210 HD
ENDBRANCH  20  54
BRANCH  26  56
ATOM     56  O   LIG    1       -3.877   2.713  -4.774  0.00  0.00    -0.375 OA
ATOM     57  C   LIG    1       -5.037   3.231  -5.416  0.00  0.00    +0.194 C 
ENDBRANCH  26  56
BRANCH  39  58
ATOM     58  O   LIG    1       -2.518  -2.187  -0.673  0.00  0.00    -0.504 OA
ATOM     59  H   LIG    1       -3.475  -2.132  -0.744  0.00  0.00    +0.292 HD
ENDBRANCH  39  58
BRANCH  40  60
ATOM     60  O   LIG    1       -4.893  -1.048  -0.362  0.00  0.00    -0.506 OA
ATOM     61  H   LIG    1       -5.843  -0.922  -0.405  0.00  0.00    +0.292 HD
ENDBRANCH  40  60
BRANCH  23  62
ATOM     62  O   LIG    1       -1.150   2.498  -6.917  0.00  0.00    -0.461 OA
BRANCH  62  63
ATOM     63  C   LIG    1       -2.038   2.405  -7.934  0.00  0.00    +0.304 C 
ATOM     64  O   LIG    1       -3.059   1.716  -7.958  0.00  0.00    -0.251 OA
ATOM     65  C   LIG    1       -1.648   3.280  -9.118  0.00  0.00    +0.136 C 
ENDBRANCH  62  63
ENDBRANCH  23  62
TORSDOF 10
