REMARK  Name = DB01160
REMARK                            x       y       z     vdW  Elec       q    Type
REMARK                         _______ _______ _______ _____ _____    ______ ____
ROOT
ATOM      1  C   LIG    1       -1.110  -0.127   1.371  0.00  0.00    +0.031 C 
ATOM      2  C   LIG    1       -2.539  -0.675   1.115  0.00  0.00    +0.121 C 
ATOM      3  C   LIG    1       -2.649  -1.012  -0.376  0.00  0.00    +0.063 C 
ATOM      4  C   LIG    1       -1.208  -1.162  -0.866  0.00  0.00    +0.124 C 
ATOM      5  C   LIG    1       -0.395  -0.182  -0.003  0.00  0.00    +0.046 C 
ENDROOT
BRANCH   2   6
ATOM      6  O   LIG    1       -3.651   0.033   1.631  0.00  0.00    -0.391 OA
ATOM      7  H   LIG    1       -3.626   0.929   1.290  0.00  0.00    +0.210 HD
ENDBRANCH   2   6
BRANCH   4   8
ATOM      8  O   LIG    1       -1.062  -1.012  -2.264  0.00  0.00    -0.391 OA
ATOM      9  H   LIG    1       -0.203  -1.357  -2.519  0.00  0.00    +0.210 HD
ENDBRANCH   4   8
BRANCH   5  10
ATOM     10  C   LIG    1        1.075  -0.570   0.094  0.00  0.00    -0.022 C 
ATOM     11  C   LIG    1        2.097   0.193  -0.339  0.00  0.00    -0.000 C 
BRANCH  11  12
ATOM     12  C   LIG    1        3.590  -0.120  -0.271  0.00  0.00    +0.137 C 
BRANCH  12  13
ATOM     13  O   LIG    1        3.809  -1.399   0.300  0.00  0.00    -0.388 OA
ATOM     14  H   LIG    1        3.441  -1.403   1.186  0.00  0.00    +0.210 HD
ENDBRANCH  12  13
BRANCH  12  15
ATOM     15  C   LIG    1        4.281  -0.031  -1.648  0.00  0.00    +0.035 C 
BRANCH  15  16
ATOM     16  C   LIG    1        5.816  -0.179  -1.599  0.00  0.00    +0.003 C 
BRANCH  16  17
ATOM     17  C   LIG    1        6.474  -0.046  -2.984  0.00  0.00    -0.000 C 
BRANCH  17  18
ATOM     18  C   LIG    1        8.006  -0.180  -2.936  0.00  0.00    -0.003 C 
ATOM     19  C   LIG    1        8.662  -0.041  -4.316  0.00  0.00    +0.004 C 
ENDBRANCH  17  18
ENDBRANCH  16  17
ENDBRANCH  15  16
ENDBRANCH  12  15
ENDBRANCH  11  12
ENDBRANCH   5  10
BRANCH   1  20
ATOM     20  C   LIG    1       -1.057   1.257   2.066  0.00  0.00    +0.033 C 
BRANCH  20  21
ATOM     21  C   LIG    1        0.346   1.773   2.350  0.00  0.00    -0.031 C 
ATOM     22  C   LIG    1        1.012   1.700   3.517  0.00  0.00    -0.031 C 
BRANCH  22  23
ATOM     23  C   LIG    1        0.527   1.045   4.801  0.00  0.00    +0.027 C 
BRANCH  23  24
ATOM     24  C   LIG    1        0.196   2.037   5.931  0.00  0.00    +0.015 C 
BRANCH  24  25
ATOM     25  C   LIG    1       -1.031   2.923   5.626  0.00  0.00    +0.121 C 
BRANCH  25  26
ATOM     26  C   LIG    1       -1.416   3.824   6.803  0.00  0.00    +0.305 C 
ATOM     27  O   LIG    1       -2.410   3.633   7.500  0.00  0.00    -0.251 OA
BRANCH  26  28
ATOM     28  O   LIG    1       -0.530   4.848   6.967  0.00  0.00    -0.481 OA
ATOM     29  H   LIG    1       -0.766   5.418   7.703  0.00  0.00    +0.295 HD
ENDBRANCH  26  28
ENDBRANCH  25  26
ENDBRANCH  24  25
ENDBRANCH  23  24
ENDBRANCH  22  23
ENDBRANCH  20  21
ENDBRANCH   1  20
TORSDOF 16
