REMARK  Name = DB01012
REMARK                            x       y       z     vdW  Elec       q    Type
REMARK                         _______ _______ _______ _____ _____    ______ ____
ROOT
ATOM      1  N   LIG    1        0.017   0.051   0.139  0.00  0.00    -0.310 NA
ATOM      2  H   LIG    1        0.114  -0.212   1.109  0.00  0.00    +0.122 HD
ENDROOT
BRANCH   1   3
ATOM      3  C   LIG    1       -0.604   1.374   0.052  0.00  0.00    +0.081 C 
ATOM      4  C   LIG    1       -1.761   1.392   1.069  0.00  0.00    +0.029 C 
BRANCH   3   5
ATOM      5  C   LIG    1       -1.108   1.753  -1.358  0.00  0.00    -0.023 A 
ATOM      6  C   LIG    1       -1.399   0.768  -2.313  0.00  0.00    +0.006 A 
ATOM      7  C   LIG    1       -1.862   1.099  -3.578  0.00  0.00    +0.001 A 
ATOM      8  C   LIG    1       -2.057   2.426  -3.933  0.00  0.00    +0.008 A 
ATOM      9  C   LIG    1       -1.792   3.462  -3.008  0.00  0.00    -0.018 A 
ATOM     10  C   LIG    1       -1.996   4.819  -3.364  0.00  0.00    +0.008 A 
ATOM     11  C   LIG    1       -1.736   5.835  -2.451  0.00  0.00    +0.001 A 
ATOM     12  C   LIG    1       -1.273   5.533  -1.177  0.00  0.00    +0.001 A 
ATOM     13  C   LIG    1       -1.061   4.212  -0.795  0.00  0.00    +0.009 A 
ATOM     14  C   LIG    1       -1.313   3.135  -1.697  0.00  0.00    -0.013 A 
ENDBRANCH   3   5
ENDBRANCH   1   3
BRANCH   1  15
ATOM     15  C   LIG    1        1.324  -0.006  -0.510  0.00  0.00    +0.082 C 
BRANCH  15  16
ATOM     16  C   LIG    1        1.888  -1.438  -0.475  0.00  0.00    +0.020 C 
BRANCH  16  17
ATOM     17  C   LIG    1        1.055  -2.464  -1.271  0.00  0.00    +0.036 C 
BRANCH  17  22
ATOM     18  C   LIG    1        1.865  -6.044  -0.192  0.00  0.00    +0.055 A 
ATOM     19  C   LIG    1        2.782  -6.420  -1.183  0.00  0.00    +0.012 A 
ATOM     20  C   LIG    1        3.136  -5.526  -2.193  0.00  0.00    +0.001 A 
ATOM     21  C   LIG    1        2.579  -4.248  -2.223  0.00  0.00    +0.003 A 
ATOM     22  C   LIG    1        1.662  -3.859  -1.243  0.00  0.00    -0.047 A 
ATOM     23  C   LIG    1        1.310  -4.759  -0.231  0.00  0.00    +0.016 A 
BRANCH  18  25
ATOM     24  F   LIG    1        2.175  -8.135   0.906  0.00  0.00    -0.166 F 
ATOM     25  C   LIG    1        1.463  -7.006   0.925  0.00  0.00    +0.417 C 
ATOM     26  F   LIG    1        1.642  -6.425   2.112  0.00  0.00    -0.166 F 
ATOM     27  F   LIG    1        0.175  -7.323   0.792  0.00  0.00    -0.166 F 
ENDBRANCH  18  25
ENDBRANCH  17  22
ENDBRANCH  16  17
ENDBRANCH  15  16
ENDBRANCH   1  15
TORSDOF 7
