REMARK  Name = DB01212
REMARK                            x       y       z     vdW  Elec       q    Type
REMARK                         _______ _______ _______ _____ _____    ______ ____
ROOT
ATOM      1  C   LIG    1       -0.342  -0.085   1.426  0.00  0.00    +0.169 C 
ATOM      2  CA  LIG    1        0.149  -0.172  -0.049  0.00  0.00    +0.191 C 
ATOM      3  C   LIG    1       -0.611   1.167  -0.259  0.00  0.00    +0.244 C 
ATOM      4  O   LIG    1       -0.684   1.993  -1.168  0.00  0.00    -0.273 OA
ATOM      5  S   LIG    1        0.772   0.350   2.801  0.00  0.00    -0.131 S 
ATOM      6  C   LIG    1       -0.564   0.907   3.913  0.00  0.00    +0.104 C 
ATOM      7  C   LIG    1       -1.490   1.960   3.274  0.00  0.00    -0.021 C 
ATOM      8  CA  LIG    1       -1.688   2.010   1.921  0.00  0.00    +0.123 C 
ATOM      9  N   LIG    1       -1.115   1.119   1.047  0.00  0.00    -0.249 N 
ENDROOT
BRANCH   2  10
ATOM     10  N   LIG    1        1.585  -0.039  -0.298  0.00  0.00    -0.296 N 
ATOM     11  H   LIG    1        1.895   0.838  -0.690  0.00  0.00    +0.150 HD
ATOM     12  C   LIG    1        2.496  -1.003  -0.070  0.00  0.00    +0.268 C 
ATOM     13  O   LIG    1        2.218  -2.120   0.373  0.00  0.00    -0.268 OA
BRANCH  12  14
ATOM     14  C   LIG    1        3.874  -0.608  -0.415  0.00  0.00    +0.190 C 
ATOM     15  N   LIG    1        4.525  -1.215  -1.348  0.00  0.00    -0.078 NA
BRANCH  14  16
ATOM     16  C   LIG    1        4.529   0.502   0.324  0.00  0.00    +0.107 A 
ATOM     17  N   LIG    1        3.981   1.028   1.413  0.00  0.00    -0.223 NA
ATOM     18  C   LIG    1        4.708   1.983   1.930  0.00  0.00    +0.156 A 
ATOM     19  S   LIG    1        6.186   2.319   1.095  0.00  0.00    -0.060 S 
ATOM     20  C   LIG    1        5.765   1.062  -0.031  0.00  0.00    +0.078 A 
BRANCH  18  21
ATOM     21  N   LIG    1        4.371   2.695   3.044  0.00  0.00    -0.338 N 
ATOM     22  H   LIG    1        4.965   3.426   3.409  0.00  0.00    +0.144 HD
ATOM     23  H   LIG    1        3.511   2.515   3.542  0.00  0.00    +0.144 HD
ENDBRANCH  18  21
ENDBRANCH  14  16
BRANCH  15  24
ATOM     24  O   LIG    1        3.821  -2.238  -2.026  0.00  0.00    -0.396 OA
ATOM     25  C   LIG    1        4.675  -2.814  -2.999  0.00  0.00    +0.313 C 
ENDBRANCH  15  24
ENDBRANCH  12  14
ENDBRANCH   2  10
BRANCH   8  26
ATOM     26  C   LIG    1       -2.541   3.024   1.324  0.00  0.00    +0.351 C 
ATOM     27  OXT LIG    1       -2.315   4.232   1.368  0.00  0.00    -0.244 OA
BRANCH  26  28
ATOM     28  O   LIG    1       -3.630   2.480   0.703  0.00  0.00    -0.476 OA
ATOM     29  H   LIG    1       -4.191   3.148   0.305  0.00  0.00    +0.295 HD
ENDBRANCH  26  28
ENDBRANCH   8  26
BRANCH   7  30
ATOM     30  C   LIG    1       -2.115   2.914   4.301  0.00  0.00    +0.106 C 
BRANCH  30  31
ATOM     31  S   LIG    1       -3.281   2.101   5.443  0.00  0.00    -0.109 S 
BRANCH  31  32
ATOM     32  C   LIG    1       -3.735   3.460   6.558  0.00  0.00    +0.199 C 
ATOM     33  N   LIG    1       -4.631   3.169   7.643  0.00  0.00    -0.193 NA
ATOM     34  C   LIG    1       -5.742   2.243   7.446  0.00  0.00    +0.131 C 
ATOM     35  N   LIG    1       -5.036   4.268   8.459  0.00  0.00    -0.238 N 
ATOM     36  H   LIG    1       -5.470   3.983   9.325  0.00  0.00    +0.170 HD
ATOM     37  C   LIG    1       -4.399   5.470   8.434  0.00  0.00    +0.313 C 
ATOM     38  O   LIG    1       -4.493   6.321   9.321  0.00  0.00    -0.264 OA
ATOM     39  C   LIG    1       -3.514   5.731   7.215  0.00  0.00    +0.302 C 
ATOM     40  O   LIG    1       -3.140   6.897   7.086  0.00  0.00    -0.265 OA
ATOM     41  N   LIG    1       -3.224   4.625   6.392  0.00  0.00    -0.276 N 
ATOM     42  H   LIG    1       -2.594   4.753   5.647  0.00  0.00    +0.152 HD
ENDBRANCH  31  32
ENDBRANCH  30  31
ENDBRANCH   7  30
TORSDOF 10
