REMARK  Name = DB01229
REMARK                            x       y       z     vdW  Elec       q    Type
REMARK                         _______ _______ _______ _____ _____    ______ ____
ROOT
ATOM      1  C   LIG    1       -2.245   2.459  -1.877  0.00  0.00    +0.217 C 
ATOM      2  C   LIG    1       -1.310   2.016  -3.106  0.00  0.00    +0.097 C 
ATOM      3  C   LIG    1       -2.049   1.344  -4.362  0.00  0.00    +0.066 C 
ATOM      4  C   LIG    1       -2.871   2.404  -5.176  0.00  0.00    +0.022 C 
ATOM      5  C   LIG    1       -0.961   0.701  -5.300  0.00  0.00    +0.131 C 
ATOM      6  C   LIG    1        0.123   1.662  -5.837  0.00  0.00    +0.068 C 
ATOM      7  C   LIG    1        0.521   2.850  -4.941  0.00  0.00    +0.167 C 
ATOM      8  O   LIG    1       -0.084   4.119  -5.434  0.00  0.00    -0.368 OA
ATOM      9  C   LIG    1       -0.612   4.415  -4.076  0.00  0.00    +0.211 C 
ATOM     10  C   LIG    1       -3.051   0.174  -3.994  0.00  0.00    +0.187 C 
ATOM     11  O   LIG    1       -4.214   0.180  -4.412  0.00  0.00    -0.292 OA
ATOM     12  C   LIG    1       -2.586  -1.046  -3.146  0.00  0.00    +0.270 C 
ATOM     13  C   LIG    1       -2.144  -0.641  -1.736  0.00  0.00    -0.011 C 
ATOM     14  C   LIG    1       -3.103   0.172  -0.815  0.00  0.00    +0.023 C 
ATOM     15  C   LIG    1       -3.316  -0.641   0.507  0.00  0.00    +0.018 C 
ATOM     16  C   LIG    1       -4.556   0.411  -1.354  0.00  0.00    +0.018 C 
ATOM     17  C   LIG    1       -0.861  -0.869  -1.328  0.00  0.00    -0.029 C 
ATOM     18  C   LIG    1        0.107  -1.801  -2.062  0.00  0.00    +0.043 C 
ATOM     19  C   LIG    1       -0.299  -0.140  -0.096  0.00  0.00    +0.205 C 
ATOM     20  C   LIG    1       -0.905   1.300   0.036  0.00  0.00    +0.088 C 
ATOM     21  C   LIG    1       -0.167   3.028  -3.558  0.00  0.00    +0.170 C 
ATOM     22  C   LIG    1       -2.345   1.525  -0.560  0.00  0.00    +0.116 C 
ENDROOT
BRANCH   5  23
ATOM     23  O   LIG    1       -1.482  -0.014  -6.414  0.00  0.00    -0.391 OA
ATOM     24  H   LIG    1       -1.856   0.616  -7.034  0.00  0.00    +0.210 HD
ENDBRANCH   5  23
BRANCH  22  25
ATOM     25  O   LIG    1       -3.081   2.325   0.361  0.00  0.00    -0.384 OA
ATOM     26  H   LIG    1       -3.105   1.873   1.208  0.00  0.00    +0.210 HD
ENDBRANCH  22  25
BRANCH   1  27
ATOM     27  O   LIG    1       -1.834   3.782  -1.479  0.00  0.00    -0.454 OA
BRANCH  27  28
ATOM     28  C   LIG    1       -2.684   4.849  -1.418  0.00  0.00    +0.340 C 
ATOM     29  O   LIG    1       -3.884   4.782  -1.694  0.00  0.00    -0.245 OA
BRANCH  28  30
ATOM     30  C   LIG    1       -2.001   6.119  -1.000  0.00  0.00    +0.059 A 
ATOM     31  C   LIG    1       -2.745   7.306  -0.935  0.00  0.00    +0.015 A 
ATOM     32  C   LIG    1       -2.138   8.501  -0.558  0.00  0.00    +0.001 A 
ATOM     33  C   LIG    1       -0.783   8.518  -0.242  0.00  0.00    +0.000 A 
ATOM     34  C   LIG    1       -0.029   7.350  -0.300  0.00  0.00    +0.001 A 
ATOM     35  C   LIG    1       -0.633   6.154  -0.677  0.00  0.00    +0.015 A 
ENDBRANCH  28  30
ENDBRANCH  27  28
ENDBRANCH   1  27
BRANCH  12  36
ATOM     36  O   LIG    1       -3.580  -2.075  -3.061  0.00  0.00    -0.449 OA
BRANCH  36  37
ATOM     37  C   LIG    1       -3.683  -3.056  -3.990  0.00  0.00    +0.305 C 
ATOM     38  C   LIG    1       -4.823  -4.019  -3.688  0.00  0.00    +0.136 C 
ATOM     39  O   LIG    1       -2.967  -3.199  -4.983  0.00  0.00    -0.251 OA
ENDBRANCH  36  37
ENDBRANCH  12  36
BRANCH  19  40
ATOM     40  O   LIG    1        1.130  -0.097  -0.137  0.00  0.00    -0.455 OA
BRANCH  40  41
ATOM     41  C   LIG    1        1.883  -0.008   0.993  0.00  0.00    +0.339 C 
ATOM     42  O   LIG    1        1.434   0.175   2.126  0.00  0.00    -0.248 OA
BRANCH  41  43
ATOM     43  C   LIG    1        3.404  -0.217   0.785  0.00  0.00    +0.247 C 
BRANCH  43  44
ATOM     44  O   LIG    1        3.735  -0.177  -0.599  0.00  0.00    -0.379 OA
ATOM     45  H   LIG    1        3.446   0.664  -0.963  0.00  0.00    +0.211 HD
ENDBRANCH  43  44
BRANCH  43  46
ATOM     46  C   LIG    1        3.912  -1.543   1.429  0.00  0.00    +0.143 C 
BRANCH  46  47
ATOM     47  C   LIG    1        5.445  -1.540   1.540  0.00  0.00    -0.024 A 
ATOM     48  C   LIG    1        6.045  -0.983   2.675  0.00  0.00    +0.005 A 
ATOM     49  C   LIG    1        7.430  -0.983   2.808  0.00  0.00    +0.000 A 
ATOM     50  C   LIG    1        8.220  -1.543   1.806  0.00  0.00    +0.000 A 
ATOM     51  C   LIG    1        7.635  -2.104   0.673  0.00  0.00    +0.000 A 
ATOM     52  C   LIG    1        6.250  -2.104   0.541  0.00  0.00    +0.005 A 
ENDBRANCH  46  47
BRANCH  46  53
ATOM     53  N   LIG    1        3.345  -2.727   0.756  0.00  0.00    -0.301 N 
ATOM     54  H   LIG    1        2.756  -2.533  -0.041  0.00  0.00    +0.150 HD
ATOM     55  C   LIG    1        3.437  -4.006   1.171  0.00  0.00    +0.245 C 
ATOM     56  O   LIG    1        4.032  -4.334   2.200  0.00  0.00    -0.270 OA
BRANCH  55  57
ATOM     57  C   LIG    1        2.734  -5.038   0.316  0.00  0.00    +0.037 A 
ATOM     58  C   LIG    1        2.422  -4.784  -1.030  0.00  0.00    +0.013 A 
ATOM     59  C   LIG    1        1.772  -5.746  -1.798  0.00  0.00    +0.001 A 
ATOM     60  C   LIG    1        1.435  -6.971  -1.230  0.00  0.00    +0.000 A 
ATOM     61  C   LIG    1        1.743  -7.243   0.100  0.00  0.00    +0.001 A 
ATOM     62  C   LIG    1        2.391  -6.280   0.870  0.00  0.00    +0.013 A 
ENDBRANCH  55  57
ENDBRANCH  46  53
ENDBRANCH  43  46
ENDBRANCH  41  43
ENDBRANCH  40  41
ENDBRANCH  19  40
BRANCH  21  63
ATOM     63  O   LIG    1        0.771   3.267  -2.495  0.00  0.00    -0.453 OA
BRANCH  63  64
ATOM     64  C   LIG    1        1.814   2.454  -2.208  0.00  0.00    +0.305 C 
ATOM     65  O   LIG    1        2.080   1.383  -2.756  0.00  0.00    -0.251 OA
ATOM     66  C   LIG    1        2.674   3.008  -1.079  0.00  0.00    +0.136 C 
ENDBRANCH  63  64
ENDBRANCH  21  63
TORSDOF 17
