REMARK  Name = DB01148
REMARK                            x       y       z     vdW  Elec       q    Type
REMARK                         _______ _______ _______ _____ _____    ______ ____
ROOT
ATOM      1  C   LIG    1       -1.946   1.273   0.539  0.00  0.00    +0.102 A 
ATOM      2  C   LIG    1       -2.623   0.674  -0.538  0.00  0.00    +0.019 A 
ATOM      3  C   LIG    1       -3.969   0.934  -0.776  0.00  0.00    +0.002 A 
ATOM      4  C   LIG    1       -4.673   1.796   0.058  0.00  0.00    +0.015 A 
ATOM      5  C   LIG    1       -4.041   2.412   1.145  0.00  0.00    +0.065 A 
ATOM      6  C   LIG    1       -4.806   3.333   2.047  0.00  0.00    +0.196 A 
ATOM      7  C   LIG    1       -4.005   3.882   3.161  0.00  0.00    +0.040 A 
ATOM      8  C   LIG    1       -4.806   4.726   4.156  0.00  0.00    +0.051 C 
ATOM      9  C   LIG    1       -2.695   3.543   3.301  0.00  0.00    +0.142 A 
ATOM     10  O   LIG    1       -2.020   2.747   2.430  0.00  0.00    -0.454 OA
ATOM     11  O   LIG    1       -5.995   3.588   1.843  0.00  0.00    -0.287 OA
ATOM     12  C   LIG    1       -2.678   2.148   1.373  0.00  0.00    +0.153 A 
ENDROOT
BRANCH   9  13
ATOM     13  C   LIG    1       -1.732   4.059   4.310  0.00  0.00    +0.018 A 
ATOM     14  C   LIG    1       -0.762   3.200   4.846  0.00  0.00    +0.011 A 
ATOM     15  C   LIG    1        0.152   3.661   5.790  0.00  0.00    +0.001 A 
ATOM     16  C   LIG    1        0.104   4.989   6.205  0.00  0.00    +0.000 A 
ATOM     17  C   LIG    1       -0.848   5.858   5.680  0.00  0.00    +0.001 A 
ATOM     18  C   LIG    1       -1.760   5.394   4.735  0.00  0.00    +0.011 A 
ENDBRANCH   9  13
BRANCH   1  19
ATOM     19  C   LIG    1       -0.484   0.980   0.777  0.00  0.00    +0.343 C 
ATOM     20  O   LIG    1        0.204   1.543   1.633  0.00  0.00    -0.245 OA
BRANCH  19  21
ATOM     21  O   LIG    1        0.000   0.001  -0.030  0.00  0.00    -0.460 OA
BRANCH  21  22
ATOM     22  C   LIG    1        1.351  -0.438   0.066  0.00  0.00    +0.248 C 
BRANCH  22  23
ATOM     23  C   LIG    1        1.587  -1.644  -0.867  0.00  0.00    +0.125 C 
BRANCH  23  24
ATOM     24  N   LIG    1        0.727  -2.797  -0.574  0.00  0.00    -0.299 NA
ATOM     25  C   LIG    1        0.831  -3.794  -1.649  0.00  0.00    +0.084 C 
ATOM     26  C   LIG    1       -0.104  -5.000  -1.419  0.00  0.00    +0.015 C 
ATOM     27  C   LIG    1        0.117  -5.644  -0.043  0.00  0.00    +0.002 C 
ATOM     28  C   LIG    1        0.046  -4.573   1.054  0.00  0.00    +0.015 C 
ATOM     29  C   LIG    1        0.973  -3.375   0.759  0.00  0.00    +0.084 C 
ENDBRANCH  23  24
ENDBRANCH  22  23
ENDBRANCH  21  22
ENDBRANCH  19  21
ENDBRANCH   1  19
TORSDOF 6
