REMARK  Name = DB01263
REMARK                            x       y       z     vdW  Elec       q    Type
REMARK                         _______ _______ _______ _____ _____    ______ ____
ROOT
ATOM      1  C   LIG    1        8.556   0.598   0.307  0.00  0.00    +0.121 A 
ATOM      2  C   LIG    1        7.848   1.735  -0.078  0.00  0.00    +0.047 A 
ATOM      3  C   LIG    1        6.457   1.729  -0.101  0.00  0.00    +0.027 A 
ATOM      4  C   LIG    1        5.737   0.583   0.259  0.00  0.00    +0.030 A 
ATOM      5  C   LIG    1        6.454  -0.554   0.661  0.00  0.00    +0.027 A 
ATOM      6  C   LIG    1        7.847  -0.550   0.685  0.00  0.00    +0.047 A 
ENDROOT
BRANCH   4   7
ATOM      7  N   LIG    1        4.343   0.595   0.218  0.00  0.00    -0.327 N 
ATOM      8  C   LIG    1        3.646   1.084  -0.979  0.00  0.00    +0.124 C 
ATOM      9  C   LIG    1        2.178   1.496  -0.739  0.00  0.00    +0.124 C 
ATOM     10  N   LIG    1        1.355   0.465  -0.094  0.00  0.00    -0.327 N 
ATOM     11  C   LIG    1        2.049  -0.043   1.098  0.00  0.00    +0.124 C 
ATOM     12  C   LIG    1        3.526  -0.436   0.873  0.00  0.00    +0.124 C 
BRANCH  10  13
ATOM     13  C   LIG    1       -0.039   0.486  -0.143  0.00  0.00    +0.030 A 
ATOM     14  C   LIG    1       -0.743   1.630  -0.548  0.00  0.00    +0.025 A 
ATOM     15  C   LIG    1       -2.134   1.635  -0.596  0.00  0.00    +0.028 A 
ATOM     16  C   LIG    1       -2.858   0.487  -0.248  0.00  0.00    +0.053 A 
ATOM     17  C   LIG    1       -2.162  -0.660   0.155  0.00  0.00    +0.028 A 
ATOM     18  C   LIG    1       -0.771  -0.657   0.205  0.00  0.00    +0.025 A 
BRANCH  16  19
ATOM     19  N   LIG    1       -4.274   0.497  -0.297  0.00  0.00    -0.250 N 
ATOM     20  C   LIG    1       -5.085   1.506   0.075  0.00  0.00    +0.230 A 
ATOM     21  N   LIG    1       -6.300   1.248  -0.089  0.00  0.00    -0.157 NA
ATOM     22  N   LIG    1       -6.304   0.014  -0.596  0.00  0.00    -0.207 N 
ATOM     23  C   LIG    1       -5.064  -0.489  -0.783  0.00  0.00    +0.351 A 
ATOM     24  O   LIG    1       -4.742  -1.574  -1.274  0.00  0.00    -0.244 OA
BRANCH  22  25
ATOM     25  C   LIG    1       -7.559  -0.691  -0.951  0.00  0.00    +0.140 C 
BRANCH  25  26
ATOM     26  C   LIG    1       -8.556  -0.699   0.242  0.00  0.00    +0.026 C 
ATOM     27  C   LIG    1       -9.777  -1.616   0.064  0.00  0.00    +0.006 C 
ENDBRANCH  25  26
BRANCH  25  28
ATOM     28  C   LIG    1       -8.191  -0.179  -2.284  0.00  0.00    +0.136 C 
ATOM     29  C   LIG    1       -7.277  -0.352  -3.511  0.00  0.00    +0.040 C 
BRANCH  28  30
ATOM     30  O   LIG    1       -8.551   1.188  -2.202  0.00  0.00    -0.390 OA
ATOM     31  H   LIG    1       -9.107   1.311  -1.429  0.00  0.00    +0.210 HD
ENDBRANCH  28  30
ENDBRANCH  25  28
ENDBRANCH  22  25
ENDBRANCH  16  19
ENDBRANCH  10  13
ENDBRANCH   4   7
BRANCH   1  32
ATOM     32  O   LIG    1        9.933   0.694   0.282  0.00  0.00    -0.492 OA
BRANCH  32  33
ATOM     33  C   LIG    1       10.726  -0.427   0.664  0.00  0.00    +0.235 C 
BRANCH  33  37
ATOM     34  C   LIG    1       13.203   1.679  -0.948  0.00  0.00    +0.117 C 
ATOM     35  O   LIG    1       13.672   1.702   0.408  0.00  0.00    -0.366 OA
ATOM     36  C   LIG    1       12.767   1.034   1.285  0.00  0.00    +0.168 C 
ATOM     37  C   LIG    1       12.222  -0.120   0.442  0.00  0.00    +0.055 C 
ATOM     38  C   LIG    1       12.603   0.251  -0.989  0.00  0.00    +0.051 C 
BRANCH  34  39
ATOM     39  C   LIG    1       14.363   1.909  -1.937  0.00  0.00    +0.021 A 
ATOM     40  C   LIG    1       14.393   1.244  -3.174  0.00  0.00    +0.012 A 
ATOM     41  C   LIG    1       15.430   1.465  -4.079  0.00  0.00    +0.039 A 
ATOM     42  C   LIG    1       16.449   2.362  -3.766  0.00  0.00    +0.126 A 
ATOM     43  F   LIG    1       17.454   2.577  -4.644  0.00  0.00    -0.205 F 
ATOM     44  C   LIG    1       16.426   3.042  -2.551  0.00  0.00    +0.077 A 
ATOM     45  C   LIG    1       15.389   2.823  -1.642  0.00  0.00    +0.132 A 
ATOM     46  F   LIG    1       15.386   3.518  -0.481  0.00  0.00    -0.205 F 
ENDBRANCH  34  39
BRANCH  34  47
ATOM     47  C   LIG    1       12.136   2.817  -1.075  0.00  0.00    +0.185 C 
BRANCH  47  48
ATOM     48  N   LIG    1       11.528   2.903  -2.402  0.00  0.00    -0.249 N 
ATOM     49  C   LIG    1       10.392   2.308  -2.877  0.00  0.00    +0.219 A 
ATOM     50  N   LIG    1       10.205   2.627  -4.132  0.00  0.00    -0.223 NA
ATOM     51  C   LIG    1       11.247   3.410  -4.370  0.00  0.00    +0.244 A 
ATOM     52  N   LIG    1       12.088   3.622  -3.380  0.00  0.00    -0.158 NA
ENDBRANCH  47  48
ENDBRANCH  34  47
ENDBRANCH  33  37
ENDBRANCH  32  33
ENDBRANCH   1  32
TORSDOF 13
