REMARK  Name = DB01600
REMARK                            x       y       z     vdW  Elec       q    Type
REMARK                         _______ _______ _______ _____ _____    ______ ____
ROOT
ATOM      1  S   LIG    1        2.329  -0.212  -1.385  0.00  0.00    -0.089 S 
ATOM      2  C   LIG    1        3.881  -0.206  -0.585  0.00  0.00    +0.060 A 
ATOM      3  C   LIG    1        3.699  -0.049   0.784  0.00  0.00    +0.019 A 
ATOM      4  C   LIG    1        2.361   0.093   1.158  0.00  0.00    +0.013 A 
ATOM      5  C   LIG    1        1.450   0.018   0.103  0.00  0.00    +0.004 A 
ENDROOT
BRANCH   2   6
ATOM      6  C   LIG    1        5.151  -0.409  -1.302  0.00  0.00    +0.200 C 
ATOM      7  O   LIG    1        6.142  -0.748  -0.652  0.00  0.00    -0.286 OA
BRANCH   6   8
ATOM      8  C   LIG    1        5.230  -0.323  -2.797  0.00  0.00    +0.023 A 
ATOM      9  C   LIG    1        4.611   0.719  -3.502  0.00  0.00    +0.012 A 
ATOM     10  C   LIG    1        4.734   0.804  -4.886  0.00  0.00    +0.001 A 
ATOM     11  C   LIG    1        5.493  -0.140  -5.571  0.00  0.00    +0.000 A 
ATOM     12  C   LIG    1        6.140  -1.163  -4.882  0.00  0.00    +0.001 A 
ATOM     13  C   LIG    1        6.018  -1.248  -3.498  0.00  0.00    +0.012 A 
ENDBRANCH   6   8
ENDBRANCH   2   6
BRANCH   5  14
ATOM     14  C   LIG    1       -0.070   0.137   0.106  0.00  0.00    +0.131 C 
ATOM     15  C   LIG    1       -0.499   1.621   0.105  0.00  0.00    +0.025 C 
BRANCH  14  16
ATOM     16  C   LIG    1       -0.717  -0.664   1.255  0.00  0.00    +0.312 C 
ATOM     17  O   LIG    1       -1.362  -0.158   2.172  0.00  0.00    -0.250 OA
BRANCH  16  18
ATOM     18  O   LIG    1       -0.481  -2.003   1.127  0.00  0.00    -0.480 OA
ATOM     19  H   LIG    1       -0.876  -2.513   1.837  0.00  0.00    +0.295 HD
ENDBRANCH  16  18
ENDBRANCH  14  16
ENDBRANCH   5  14
TORSDOF 5
