REMARK  Name = DB01173
REMARK                            x       y       z     vdW  Elec       q    Type
REMARK                         _______ _______ _______ _____ _____    ______ ____
ROOT
ATOM      1  C   LIG    1       -0.662   1.201   0.017  0.00  0.00    +0.179 C 
ENDROOT
BRANCH   1   2
ATOM      2  C   LIG    1       -2.167   1.198   0.319  0.00  0.00    -0.012 A 
ATOM      3  C   LIG    1       -2.998   0.350  -0.428  0.00  0.00    +0.007 A 
ATOM      4  C   LIG    1       -4.369   0.299  -0.189  0.00  0.00    +0.000 A 
ATOM      5  C   LIG    1       -4.930   1.093   0.807  0.00  0.00    +0.000 A 
ATOM      6  C   LIG    1       -4.119   1.935   1.563  0.00  0.00    +0.004 A 
ATOM      7  C   LIG    1       -2.739   1.995   1.333  0.00  0.00    -0.044 A 
ATOM      8  C   LIG    1       -1.905   2.936   2.192  0.00  0.00    +0.044 C 
ENDBRANCH   1   2
BRANCH   1   9
ATOM      9  C   LIG    1       -0.341   1.841  -1.339  0.00  0.00    -0.014 A 
ATOM     10  C   LIG    1       -0.282   1.065  -2.503  0.00  0.00    +0.006 A 
ATOM     11  C   LIG    1        0.031   1.657  -3.723  0.00  0.00    +0.000 A 
ATOM     12  C   LIG    1        0.288   3.025  -3.780  0.00  0.00    +0.000 A 
ATOM     13  C   LIG    1        0.238   3.805  -2.627  0.00  0.00    +0.000 A 
ATOM     14  C   LIG    1       -0.073   3.212  -1.406  0.00  0.00    +0.006 A 
ENDBRANCH   1   9
BRANCH   1  15
ATOM     15  O   LIG    1       -0.182  -0.145   0.090  0.00  0.00    -0.366 OA
BRANCH  15  16
ATOM     16  C   LIG    1        1.231  -0.292   0.225  0.00  0.00    +0.176 C 
BRANCH  16  17
ATOM     17  C   LIG    1        1.606  -1.786   0.157  0.00  0.00    +0.112 C 
BRANCH  17  18
ATOM     18  N   LIG    1        1.250  -2.424  -1.116  0.00  0.00    -0.306 NA
ATOM     19  C   LIG    1        1.420  -3.870  -1.007  0.00  0.00    +0.104 C 
ATOM     20  C   LIG    1        2.065  -1.934  -2.227  0.00  0.00    +0.104 C 
ENDBRANCH  17  18
ENDBRANCH  16  17
ENDBRANCH  15  16
ENDBRANCH   1  15
TORSDOF 6
