REMARK  Name = DB01068
REMARK                            x       y       z     vdW  Elec       q    Type
REMARK                         _______ _______ _______ _____ _____    ______ ____
ROOT
ATOM      1  C   LIG    1        4.223  -2.574   0.129  0.00  0.00    +0.076 C 
ATOM      2  C   LIG    1        3.517  -1.272  -0.060  0.00  0.00    +0.024 A 
ATOM      3  C   LIG    1        2.164  -1.292  -0.445  0.00  0.00    +0.044 A 
ATOM      4  C   LIG    1        1.410  -0.122  -0.602  0.00  0.00    +0.122 A 
ATOM      5  C   LIG    1        2.036   1.103  -0.365  0.00  0.00    +0.034 A 
ATOM      6  C   LIG    1        3.374   1.151   0.011  0.00  0.00    +0.026 A 
ATOM      7  C   LIG    1        4.130  -0.012   0.176  0.00  0.00    +0.043 A 
ATOM      8  N   LIG    1        5.495   0.127   0.492  0.00  0.00    -0.283 N 
ATOM      9  H   LIG    1        5.733   0.952   1.022  0.00  0.00    +0.155 HD
ATOM     10  C   LIG    1        6.571  -0.596   0.121  0.00  0.00    +0.239 C 
ATOM     11  C   LIG    1        6.249  -1.786  -0.808  0.00  0.00    +0.238 C 
ATOM     12  O   LIG    1        7.719  -0.323   0.464  0.00  0.00    -0.273 OA
ATOM     13  N   LIG    1        5.441  -2.822  -0.184  0.00  0.00    -0.273 NA
ENDROOT
BRANCH   1  20
ATOM     14 CL   LIG    1        3.128  -4.860  -1.714  0.00  0.00    -0.083 Cl
ATOM     15  C   LIG    1        2.909  -4.727   0.001  0.00  0.00    +0.050 A 
ATOM     16  C   LIG    1        2.165  -5.718   0.646  0.00  0.00    +0.020 A 
ATOM     17  C   LIG    1        1.945  -5.655   2.021  0.00  0.00    +0.001 A 
ATOM     18  C   LIG    1        2.468  -4.598   2.762  0.00  0.00    +0.001 A 
ATOM     19  C   LIG    1        3.213  -3.604   2.130  0.00  0.00    +0.011 A 
ATOM     20  C   LIG    1        3.444  -3.659   0.748  0.00  0.00    +0.019 A 
ENDBRANCH   1  20
BRANCH   4  21
ATOM     21  N   LIG    1       -0.015  -0.182  -1.009  0.00  0.00    +0.006 N 
ATOM     22  O   LIG    1       -0.632   0.871  -1.145  0.00  0.00    -0.130 OA
BRANCH  21  23
ATOM     23  O   LIG    1       -0.529  -1.281  -1.195  0.00  0.00    -0.396 OA
ATOM     24  H   LIG    1       -1.428  -1.341  -1.453  0.00  0.00    +0.329 HD
ENDBRANCH  21  23
ENDBRANCH   4  21
TORSDOF 3
