REMARK  Name = DB01320
REMARK                            x       y       z     vdW  Elec       q    Type
REMARK                         _______ _______ _______ _____ _____    ______ ____
ROOT
ATOM      1  N   LIG    1        2.008  -1.176  -0.193  0.00  0.00    -0.199 N 
ATOM      2  C   LIG    1        2.298  -1.796   0.975  0.00  0.00    +0.312 C 
ATOM      3  N   LIG    1        2.648  -3.037   0.621  0.00  0.00    -0.277 N 
ATOM      4  H   LIG    1        2.625  -3.806   1.274  0.00  0.00    +0.152 HD
ATOM      5  C   LIG    1        2.674  -3.303  -0.799  0.00  0.00    +0.164 C 
ATOM      6  O   LIG    1        2.468  -1.278   2.079  0.00  0.00    -0.252 OA
ATOM      7  C   LIG    1        2.261  -1.910  -1.297  0.00  0.00    +0.257 C 
ATOM      8  O   LIG    1        2.143  -1.563  -2.475  0.00  0.00    -0.272 OA
ENDROOT
BRANCH   5   9
ATOM      9  C   LIG    1        1.616  -4.376  -1.207  0.00  0.00    -0.011 A 
ATOM     10  C   LIG    1        1.057  -5.249  -0.257  0.00  0.00    +0.006 A 
ATOM     11  C   LIG    1        0.116  -6.204  -0.632  0.00  0.00    +0.000 A 
ATOM     12  C   LIG    1       -0.271  -6.307  -1.964  0.00  0.00    +0.000 A 
ATOM     13  C   LIG    1        0.278  -5.465  -2.925  0.00  0.00    +0.000 A 
ATOM     14  C   LIG    1        1.216  -4.508  -2.548  0.00  0.00    +0.006 A 
ENDBRANCH   5   9
BRANCH   5  15
ATOM     15  C   LIG    1        4.127  -3.688  -1.210  0.00  0.00    -0.011 A 
ATOM     16  C   LIG    1        5.154  -2.726  -1.222  0.00  0.00    +0.006 A 
ATOM     17  C   LIG    1        6.455  -3.070  -1.576  0.00  0.00    +0.000 A 
ATOM     18  C   LIG    1        6.751  -4.386  -1.915  0.00  0.00    +0.000 A 
ATOM     19  C   LIG    1        5.758  -5.359  -1.897  0.00  0.00    +0.000 A 
ATOM     20  C   LIG    1        4.457  -5.013  -1.541  0.00  0.00    +0.006 A 
ENDBRANCH   5  15
BRANCH   1  21
ATOM     21  C   LIG    1        1.393   0.158  -0.244  0.00  0.00    +0.292 C 
BRANCH  21  22
ATOM     22  O   LIG    1       -0.007  -0.004  -0.092  0.00  0.00    -0.267 OA
BRANCH  22  23
ATOM     23  P   LIG    1       -0.961   1.308   0.042  0.00  0.00    +0.474 P 
ATOM     24  O   LIG    1       -0.808   2.327  -1.032  0.00  0.00    -0.227 OA
BRANCH  23  25
ATOM     25  O   LIG    1       -0.652   1.831   1.548  0.00  0.00    -0.303 OA
ATOM     26  H   LIG    1       -0.751   1.168   2.257  0.00  0.00    +0.222 HD
ENDBRANCH  23  25
BRANCH  23  27
ATOM     27  O   LIG    1       -2.447   0.667   0.175  0.00  0.00    -0.303 OA
ATOM     28  H   LIG    1       -3.103   0.980  -0.477  0.00  0.00    +0.222 HD
ENDBRANCH  23  27
ENDBRANCH  22  23
ENDBRANCH  21  22
ENDBRANCH   1  21
TORSDOF 7
