REMARK  Name = DB01205
REMARK                            x       y       z     vdW  Elec       q    Type
REMARK                         _______ _______ _______ _____ _____    ______ ____
ROOT
ATOM      1  F   LIG    1       -8.848   4.798  -0.223  0.00  0.00    -0.205 F 
ATOM      2  C   LIG    1       -7.665   4.148  -0.157  0.00  0.00    +0.124 A 
ATOM      3  C   LIG    1       -7.489   2.954  -0.845  0.00  0.00    +0.040 A 
ATOM      4  C   LIG    1       -6.273   2.281  -0.770  0.00  0.00    +0.030 A 
ATOM      5  C   LIG    1       -5.212   2.793  -0.009  0.00  0.00    +0.060 A 
ATOM      6  C   LIG    1       -5.377   4.025   0.680  0.00  0.00    +0.063 A 
ATOM      7  C   LIG    1       -4.352   4.691   1.600  0.00  0.00    +0.249 C 
ATOM      8  N   LIG    1       -3.029   4.610   1.264  0.00  0.00    -0.295 N 
ATOM      9  C   LIG    1       -2.028   5.206   2.156  0.00  0.00    +0.132 C 
ATOM     10  C   LIG    1       -2.523   4.032   0.017  0.00  0.00    +0.163 C 
ATOM     11  C   LIG    1       -2.729   2.535   0.021  0.00  0.00    +0.075 A 
ATOM     12  C   LIG    1       -1.886   1.414   0.017  0.00  0.00    +0.170 A 
ATOM     13  N   LIG    1       -2.605   0.298   0.031  0.00  0.00    -0.228 NA
ATOM     14  C   LIG    1       -3.854   0.681   0.037  0.00  0.00    +0.205 A 
ATOM     15  O   LIG    1       -4.762   5.292   2.598  0.00  0.00    -0.270 OA
ATOM     16  N   LIG    1       -4.012   2.045   0.028  0.00  0.00    -0.300 N 
ATOM     17  C   LIG    1       -6.622   4.674   0.602  0.00  0.00    +0.053 A 
ENDROOT
BRANCH  12  18
ATOM     18  C   LIG    1       -0.417   1.441   0.017  0.00  0.00    +0.360 C 
ATOM     19  O   LIG    1        0.245   2.482   0.033  0.00  0.00    -0.243 OA
BRANCH  18  20
ATOM     20  O   LIG    1        0.111   0.190  -0.001  0.00  0.00    -0.460 OA
BRANCH  20  21
ATOM     21  C   LIG    1        1.518  -0.008  -0.002  0.00  0.00    +0.229 C 
ATOM     22  C   LIG    1        1.821  -1.510  -0.005  0.00  0.00    +0.048 C 
ENDBRANCH  20  21
ENDBRANCH  18  20
ENDBRANCH  12  18
TORSDOF 3
