REMARK  Name = DB01070
REMARK                            x       y       z     vdW  Elec       q    Type
REMARK                         _______ _______ _______ _____ _____    ______ ____
ROOT
ATOM      1  C   LIG    1       -2.860  -1.969   0.689  0.00  0.00    +0.008 C 
ATOM      2  C   LIG    1       -4.380  -2.014   0.961  0.00  0.00    +0.005 C 
ATOM      3  C   LIG    1       -4.723  -1.874   2.466  0.00  0.00    +0.031 C 
ATOM      4  C   LIG    1       -3.999  -0.676   3.106  0.00  0.00    -0.066 C 
ATOM      5  C   LIG    1       -4.581   0.301   3.841  0.00  0.00    -0.001 C 
ATOM      6  C   LIG    1       -2.491  -0.731   2.810  0.00  0.00    +0.021 C 
ATOM      7  C   LIG    1       -1.523   0.289   3.415  0.00  0.00    +0.009 C 
ATOM      8  C   LIG    1       -0.263   0.149   2.552  0.00  0.00    +0.005 C 
ATOM      9  C   LIG    1       -0.641  -0.693   1.298  0.00  0.00    +0.002 C 
ATOM     10  C   LIG    1       -2.209  -0.687   1.283  0.00  0.00    -0.022 C 
ATOM     11  C   LIG    1       -2.765   0.605   0.605  0.00  0.00    +0.012 C 
ENDROOT
BRANCH   5  12
ATOM     12  C   LIG    1       -6.002   0.414   4.153  0.00  0.00    -0.000 C 
ATOM     13  C   LIG    1       -6.586   1.371   4.917  0.00  0.00    -0.064 C 
ATOM     14  C   LIG    1       -8.101   1.446   5.212  0.00  0.00    +0.012 C 
ATOM     15  C   LIG    1       -8.962   0.404   4.465  0.00  0.00    +0.012 C 
ATOM     16  C   LIG    1       -8.325   1.366   6.742  0.00  0.00    +0.010 C 
ATOM     17  C   LIG    1       -7.522   2.416   7.533  0.00  0.00    +0.032 C 
ATOM     18  C   LIG    1       -6.033   2.429   7.136  0.00  0.00    +0.119 C 
ATOM     19  C   LIG    1       -5.840   2.523   5.606  0.00  0.00    +0.062 C 
BRANCH  18  20
ATOM     20  O   LIG    1       -5.356   3.482   7.792  0.00  0.00    -0.391 OA
ATOM     21  H   LIG    1       -4.753   3.102   8.435  0.00  0.00    +0.210 HD
ENDBRANCH  18  20
ENDBRANCH   5  12
BRANCH   9  22
ATOM     22  C   LIG    1        0.128  -0.258   0.004  0.00  0.00    +0.012 C 
ATOM     23  C   LIG    1       -0.258  -1.082  -1.246  0.00  0.00    +0.012 C 
BRANCH  22  24
ATOM     24  C   LIG    1        1.639  -0.215   0.247  0.00  0.00    -0.027 C 
ATOM     25  C   LIG    1        2.575  -1.023  -0.286  0.00  0.00    -0.027 C 
BRANCH  25  26
ATOM     26  C   LIG    1        4.067  -0.931   0.007  0.00  0.00    +0.011 C 
ATOM     27  C   LIG    1        4.841  -0.637  -1.295  0.00  0.00    +0.012 C 
BRANCH  26  28
ATOM     28  C   LIG    1        4.602  -2.182   0.769  0.00  0.00    -0.011 C 
ATOM     29  C   LIG    1        3.809  -2.469   2.064  0.00  0.00    +0.008 C 
ATOM     30  C   LIG    1        6.107  -2.091   1.100  0.00  0.00    +0.008 C 
ENDBRANCH  26  28
ENDBRANCH  25  26
ENDBRANCH  22  24
ENDBRANCH   9  22
TORSDOF 6
