REMARK  Name = DB01175
REMARK                            x       y       z     vdW  Elec       q    Type
REMARK                         _______ _______ _______ _____ _____    ______ ____
ROOT
ATOM      1  C   LIG    1       -0.078   2.271  -1.125  0.00  0.00    -0.006 A 
ATOM      2  C   LIG    1       -0.003   2.049  -2.503  0.00  0.00    +0.008 A 
ATOM      3  C   LIG    1        0.641   2.980  -3.321  0.00  0.00    +0.019 A 
ATOM      4  C   LIG    1        1.217   4.127  -2.763  0.00  0.00    +0.052 A 
ATOM      5  C   LIG    1        1.154   4.335  -1.381  0.00  0.00    +0.025 A 
ATOM      6  C   LIG    1        0.515   3.394  -0.573  0.00  0.00    -0.014 A 
ATOM      7  C   LIG    1        0.323   3.342   0.916  0.00  0.00    +0.197 C 
ATOM      8  O   LIG    1       -0.191   2.045   1.195  0.00  0.00    -0.360 OA
ATOM      9  C   LIG    1       -0.700   1.450  -0.005  0.00  0.00    +0.120 C 
ENDROOT
BRANCH   9  10
ATOM     10  C   LIG    1       -2.241   1.487  -0.052  0.00  0.00    -0.011 A 
ATOM     11  C   LIG    1       -2.979   2.052   0.998  0.00  0.00    +0.009 A 
ATOM     12  C   LIG    1       -4.370   2.067   0.955  0.00  0.00    +0.039 A 
ATOM     13  C   LIG    1       -5.035   1.512  -0.136  0.00  0.00    +0.123 A 
ATOM     14  F   LIG    1       -6.386   1.524  -0.176  0.00  0.00    -0.205 F 
ATOM     15  C   LIG    1       -4.317   0.943  -1.184  0.00  0.00    +0.039 A 
ATOM     16  C   LIG    1       -2.926   0.929  -1.141  0.00  0.00    +0.009 A 
ENDBRANCH   9  10
BRANCH   4  17
ATOM     17  C   LIG    1        1.887   5.097  -3.617  0.00  0.00    +0.099 C 
ATOM     18  N   LIG    1        2.420   5.868  -4.296  0.00  0.00    -0.191 NA
ENDBRANCH   4  17
BRANCH   9  19
ATOM     19  C   LIG    1       -0.196  -0.020   0.041  0.00  0.00    +0.046 C 
BRANCH  19  20
ATOM     20  C   LIG    1        1.338  -0.196   0.157  0.00  0.00    +0.019 C 
BRANCH  20  21
ATOM     21  C   LIG    1        1.813  -1.666   0.168  0.00  0.00    +0.084 C 
BRANCH  21  22
ATOM     22  N   LIG    1        1.424  -2.427  -1.026  0.00  0.00    -0.308 NA
ATOM     23  C   LIG    1        1.767  -3.835  -0.849  0.00  0.00    +0.104 C 
ATOM     24  C   LIG    1        2.065  -1.923  -2.240  0.00  0.00    +0.104 C 
ENDBRANCH  21  22
ENDBRANCH  20  21
ENDBRANCH  19  20
ENDBRANCH   9  19
TORSDOF 6
