REMARK  Name = DB01535
REMARK                            x       y       z     vdW  Elec       q    Type
REMARK                         _______ _______ _______ _____ _____    ______ ____
ROOT
ATOM      1  C   LIG    1        1.345   0.097   0.427  0.00  0.00    +0.135 C 
ATOM      2  C   LIG    1        2.146   1.244  -0.296  0.00  0.00    +0.019 C 
ATOM      3  C   LIG    1        3.674   1.050  -0.371  0.00  0.00    -0.076 C 
ATOM      4  N   LIG    1        3.962  -0.252  -1.152  0.00  0.00    +0.380 N 
ATOM      5  H   LIG    1        3.545  -0.171  -2.068  0.00  0.00    -0.082 HD
ATOM      6  C   LIG    1        3.315  -1.466  -0.449  0.00  0.00    -0.076 C 
ATOM      7  C   LIG    1        1.793  -1.233  -0.286  0.00  0.00    +0.019 C 
ENDROOT
BRANCH   1   8
ATOM      8  N   LIG    1       -0.161   0.279   0.414  0.00  0.00    -0.255 N 
ATOM      9  C   LIG    1       -1.035  -0.597   1.023  0.00  0.00    +0.220 C 
ATOM     10  O   LIG    1       -0.659  -1.630   1.581  0.00  0.00    -0.275 OA
BRANCH   8  11
ATOM     11  C   LIG    1       -0.697   1.222  -0.488  0.00  0.00    +0.037 A 
ATOM     12  C   LIG    1       -0.851   2.551  -0.080  0.00  0.00    +0.023 A 
ATOM     13  C   LIG    1       -1.357   3.492  -0.973  0.00  0.00    +0.002 A 
ATOM     14  C   LIG    1       -1.700   3.102  -2.266  0.00  0.00    +0.000 A 
ATOM     15  C   LIG    1       -1.542   1.781  -2.679  0.00  0.00    +0.002 A 
ATOM     16  C   LIG    1       -1.036   0.836  -1.791  0.00  0.00    +0.023 A 
ENDBRANCH   8  11
BRANCH   9  17
ATOM     17  C   LIG    1       -2.547  -0.286   1.102  0.00  0.00    +0.093 C 
ATOM     18  C   LIG    1       -2.890   0.642   2.279  0.00  0.00    +0.013 C 
ENDBRANCH   9  17
ENDBRANCH   1   8
BRANCH   1  19
ATOM     19  C   LIG    1        1.770   0.192   1.941  0.00  0.00    +0.331 C 
ATOM     20  O   LIG    1        1.450   1.169   2.626  0.00  0.00    -0.248 OA
BRANCH  19  21
ATOM     21  O   LIG    1        2.485  -0.860   2.400  0.00  0.00    -0.466 OA
ATOM     22  C   LIG    1        2.920  -0.910   3.751  0.00  0.00    +0.280 C 
ENDBRANCH  19  21
ENDBRANCH   1  19
BRANCH   4  23
ATOM     23  C   LIG    1        5.482  -0.501  -1.319  0.00  0.00    -0.074 C 
BRANCH  23  24
ATOM     24  C   LIG    1        6.116   0.513  -2.292  0.00  0.00    +0.016 C 
BRANCH  24  25
ATOM     25  C   LIG    1        7.570   0.179  -2.591  0.00  0.00    -0.049 A 
ATOM     26  C   LIG    1        7.896  -0.591  -3.712  0.00  0.00    +0.003 A 
ATOM     27  C   LIG    1        9.227  -0.900  -3.979  0.00  0.00    +0.000 A 
ATOM     28  C   LIG    1       10.227  -0.441  -3.125  0.00  0.00    +0.000 A 
ATOM     29  C   LIG    1        9.909   0.326  -2.006  0.00  0.00    +0.000 A 
ATOM     30  C   LIG    1        8.579   0.636  -1.738  0.00  0.00    +0.003 A 
ENDBRANCH  24  25
ENDBRANCH  23  24
ENDBRANCH   4  23
TORSDOF 8
