REMARK  Name = DB01437
REMARK                            x       y       z     vdW  Elec       q    Type
REMARK                         _______ _______ _______ _____ _____    ______ ____
ROOT
ATOM      1  O   LIG    1        0.041  -1.649   1.925  0.00  0.00    -0.274 OA
ATOM      2  C   LIG    1       -0.536  -0.712   1.371  0.00  0.00    +0.230 C 
ATOM      3  C   LIG    1       -0.026  -0.015   0.054  0.00  0.00    +0.072 C 
ATOM      4  C   LIG    1       -0.584   1.444   0.065  0.00  0.00    +0.030 C 
ATOM      5  C   LIG    1       -2.119   1.494   0.194  0.00  0.00    +0.097 C 
ATOM      6  C   LIG    1       -2.611   0.644   1.386  0.00  0.00    +0.219 C 
ATOM      7  O   LIG    1       -3.711   0.801   1.911  0.00  0.00    -0.275 OA
ATOM      8  N   LIG    1       -1.751  -0.309   1.816  0.00  0.00    -0.256 N 
ATOM      9  H   LIG    1       -2.085  -0.828   2.615  0.00  0.00    +0.157 HD
ENDROOT
BRANCH   3  10
ATOM     10  C   LIG    1       -0.502  -0.799  -1.213  0.00  0.00    -0.032 A 
ATOM     11  C   LIG    1       -1.131  -2.061  -1.172  0.00  0.00    +0.004 A 
ATOM     12  C   LIG    1       -1.520  -2.708  -2.341  0.00  0.00    +0.000 A 
ATOM     13  C   LIG    1       -1.279  -2.113  -3.574  0.00  0.00    +0.000 A 
ATOM     14  C   LIG    1       -0.645  -0.877  -3.646  0.00  0.00    +0.000 A 
ATOM     15  C   LIG    1       -0.258  -0.232  -2.476  0.00  0.00    +0.004 A 
ENDBRANCH   3  10
BRANCH   3  16
ATOM     16  C   LIG    1        1.544  -0.018   0.072  0.00  0.00    +0.017 C 
ATOM     17  C   LIG    1        2.252   0.721   1.228  0.00  0.00    +0.005 C 
ENDBRANCH   3  16
TORSDOF 2
