REMARK  Name = DB01234
REMARK                            x       y       z     vdW  Elec       q    Type
REMARK                         _______ _______ _______ _____ _____    ______ ____
ROOT
ATOM      1  C   LIG    1       -3.623  -1.773   5.648  0.00  0.00    -0.009 C 
ATOM      2  C   LIG    1       -3.430  -2.462   4.285  0.00  0.00    +0.044 C 
ATOM      3  C   LIG    1       -2.740  -3.825   4.577  0.00  0.00    +0.023 C 
ATOM      4  C   LIG    1       -2.656  -1.531   3.260  0.00  0.00    +0.153 C 
ATOM      5  F   LIG    1       -3.392  -0.412   3.170  0.00  0.00    -0.238 F 
ATOM      6  C   LIG    1       -1.246  -0.995   3.724  0.00  0.00    +0.154 C 
ATOM      7  C   LIG    1       -0.534  -0.150   2.627  0.00  0.00    +0.044 C 
ATOM      8  C   LIG    1       -0.442  -0.862   1.239  0.00  0.00    +0.010 C 
ATOM      9  C   LIG    1        0.461  -2.143   1.330  0.00  0.00    +0.015 C 
ATOM     10  C   LIG    1       -1.901  -1.183   0.824  0.00  0.00    +0.005 C 
ATOM     11  C   LIG    1       -1.838  -1.524  -0.673  0.00  0.00    +0.011 C 
ATOM     12  C   LIG    1       -0.619  -0.739  -1.217  0.00  0.00    +0.026 C 
ATOM     13  C   LIG    1       -0.934   0.102  -2.473  0.00  0.00    +0.011 C 
ATOM     14  C   LIG    1       -0.037   0.051   0.014  0.00  0.00    +0.134 C 
ATOM     15  C   LIG    1       -2.632  -2.140   1.808  0.00  0.00    +0.034 C 
ATOM     16  C   LIG    1       -4.063  -2.481   1.327  0.00  0.00    +0.011 C 
ATOM     17  C   LIG    1       -4.812  -3.408   2.299  0.00  0.00    +0.032 C 
ATOM     18  C   LIG    1       -4.835  -2.766   3.686  0.00  0.00    -0.053 C 
ATOM     19  C   LIG    1       -5.995  -2.467   4.318  0.00  0.00    +0.051 C 
ATOM     20  C   LIG    1       -6.101  -1.826   5.629  0.00  0.00    +0.179 C 
ATOM     21  O   LIG    1       -7.176  -1.580   6.173  0.00  0.00    -0.288 OA
ATOM     22  C   LIG    1       -4.809  -1.501   6.226  0.00  0.00    +0.047 C 
ENDROOT
BRANCH   6  23
ATOM     23  O   LIG    1       -0.375  -1.984   4.234  0.00  0.00    -0.389 OA
ATOM     24  H   LIG    1       -0.803  -2.414   4.978  0.00  0.00    +0.210 HD
ENDBRANCH   6  23
BRANCH  14  25
ATOM     25  O   LIG    1       -0.605   1.358   0.098  0.00  0.00    -0.380 OA
ATOM     26  H   LIG    1       -1.561   1.274   0.095  0.00  0.00    +0.211 HD
ENDBRANCH  14  25
BRANCH  14  27
ATOM     27  C   LIG    1        1.509   0.278  -0.091  0.00  0.00    +0.190 C 
ATOM     28  O   LIG    1        2.210  -0.469  -0.781  0.00  0.00    -0.292 OA
BRANCH  27  29
ATOM     29  C   LIG    1        2.135   1.457   0.688  0.00  0.00    +0.233 C 
BRANCH  29  30
ATOM     30  O   LIG    1        3.543   1.479   0.529  0.00  0.00    -0.387 OA
ATOM     31  H   LIG    1        3.891   2.247   0.987  0.00  0.00    +0.210 HD
ENDBRANCH  29  30
ENDBRANCH  27  29
ENDBRANCH  14  27
TORSDOF 5
