REMARK  Name = DB01043
REMARK                            x       y       z     vdW  Elec       q    Type
REMARK                         _______ _______ _______ _____ _____    ______ ____
ROOT
ATOM      1  C   LIG    1        1.422  -0.010   0.002  0.00  0.00    +0.018 C 
ATOM      2  C   LIG    1        1.970  -1.464   0.002  0.00  0.00    +0.025 C 
ATOM      3  C   LIG    1        3.521  -1.498   0.001  0.00  0.00    -0.008 C 
ATOM      4  C   LIG    1        4.024  -0.739   1.258  0.00  0.00    +0.010 C 
ATOM      5  C   LIG    1        3.524   0.735   1.291  0.00  0.00    -0.030 C 
ATOM      6  C   LIG    1        4.040   1.462   2.550  0.00  0.00    +0.011 C 
ATOM      7  C   LIG    1        4.025   1.444   0.001  0.00  0.00    +0.013 C 
ATOM      8  C   LIG    1        3.522   0.735  -1.290  0.00  0.00    -0.030 C 
ATOM      9  C   LIG    1        4.037   1.462  -2.549  0.00  0.00    +0.011 C 
ATOM     10  C   LIG    1        4.022  -0.738  -1.257  0.00  0.00    +0.010 C 
ATOM     11  C   LIG    1        1.968   0.717   1.263  0.00  0.00    +0.028 C 
ATOM     12  C   LIG    1        1.966   0.718  -1.259  0.00  0.00    +0.028 C 
ENDROOT
BRANCH   1  13
ATOM     13  N   LIG    1       -0.030  -0.013   0.004  0.00  0.00    -0.325 NA
ATOM     14  H   LIG    1       -0.366  -0.463  -0.835  0.00  0.00    +0.119 HD
ATOM     15  H   LIG    1       -0.369   0.938  -0.023  0.00  0.00    +0.119 HD
ENDBRANCH   1  13
TORSDOF 1
