REMARK  Name = DB01424
REMARK                            x       y       z     vdW  Elec       q    Type
REMARK                         _______ _______ _______ _____ _____    ______ ____
ROOT
ATOM      1  C   LIG    1        0.045  -0.212  -0.092  0.00  0.00    +0.150 C 
ATOM      2  C   LIG    1       -0.794  -1.261  -0.003  0.00  0.00    +0.088 C 
ATOM      3  C   LIG    1       -0.534  -2.745   0.198  0.00  0.00    +0.034 C 
ATOM      4  N   LIG    1       -2.084  -0.783  -0.150  0.00  0.00    -0.213 NA
ATOM      5  C   LIG    1       -3.071  -1.141   0.873  0.00  0.00    +0.129 C 
ATOM      6  N   LIG    1       -2.005   0.598  -0.336  0.00  0.00    -0.200 N 
ATOM      7  C   LIG    1       -0.717   1.005  -0.311  0.00  0.00    +0.258 C 
ATOM      8  O   LIG    1       -0.289   2.152  -0.462  0.00  0.00    -0.272 OA
ENDROOT
BRANCH   6   9
ATOM      9  C   LIG    1       -3.130   1.396  -0.657  0.00  0.00    +0.053 A 
ATOM     10  C   LIG    1       -3.303   2.658  -0.070  0.00  0.00    +0.025 A 
ATOM     11  C   LIG    1       -4.416   3.430  -0.389  0.00  0.00    +0.002 A 
ATOM     12  C   LIG    1       -5.358   2.945  -1.293  0.00  0.00    +0.000 A 
ATOM     13  C   LIG    1       -5.198   1.692  -1.881  0.00  0.00    +0.002 A 
ATOM     14  C   LIG    1       -4.085   0.918  -1.565  0.00  0.00    +0.025 A 
ENDBRANCH   6   9
BRANCH   1  15
ATOM     15  N   LIG    1        1.424  -0.222  -0.007  0.00  0.00    -0.292 NA
ATOM     16  C   LIG    1        2.072   0.292   1.194  0.00  0.00    +0.105 C 
ATOM     17  C   LIG    1        2.224  -0.016  -1.208  0.00  0.00    +0.105 C 
ENDBRANCH   1  15
TORSDOF 2
