REMARK  Name = DB01143
REMARK                            x       y       z     vdW  Elec       q    Type
REMARK                         _______ _______ _______ _____ _____    ______ ____
ROOT
ATOM      1  C   LIG    1        1.432  -0.050   0.015  0.00  0.00    +0.092 C 
ENDROOT
BRANCH   1   2
ATOM      2  N   LIG    1       -0.023  -0.034  -0.046  0.00  0.00    -0.315 NA
ATOM      3  H   LIG    1       -0.406  -0.597   0.700  0.00  0.00    +0.122 HD
BRANCH   2   4
ATOM      4  C   LIG    1       -0.533   1.328   0.050  0.00  0.00    +0.082 C 
BRANCH   4   5
ATOM      5  C   LIG    1       -2.071   1.348  -0.010  0.00  0.00    +0.030 C 
BRANCH   5   6
ATOM      6  C   LIG    1       -2.655   0.835  -1.341  0.00  0.00    +0.079 C 
BRANCH   6   7
ATOM      7  N   LIG    1       -4.101   0.940  -1.331  0.00  0.00    -0.330 NA
ATOM      8  H   LIG    1       -4.470   0.613  -2.213  0.00  0.00    +0.118 HD
ATOM      9  H   LIG    1       -4.371   1.909  -1.251  0.00  0.00    +0.118 HD
ENDBRANCH   6   7
ENDBRANCH   5   6
ENDBRANCH   4   5
ENDBRANCH   2   4
ENDBRANCH   1   2
BRANCH   1  10
ATOM     10  C   LIG    1        1.944  -1.494  -0.070  0.00  0.00    +0.096 C 
BRANCH  10  11
ATOM     11  S   LIG    1        3.752  -1.628  -0.036  0.00  0.00    -0.040 S 
BRANCH  11  12
ATOM     12  P   LIG    1        3.914  -3.743   0.124  0.00  0.00    +0.386 P 
ATOM     13  O   LIG    1        2.985  -4.508  -0.751  0.00  0.00    -0.246 OA
BRANCH  12  14
ATOM     14  O   LIG    1        3.728  -3.997   1.718  0.00  0.00    -0.316 OA
ATOM     15  H   LIG    1        4.149  -4.801   2.077  0.00  0.00    +0.221 HD
ENDBRANCH  12  14
BRANCH  12  16
ATOM     16  O   LIG    1        5.498  -4.015  -0.114  0.00  0.00    -0.316 OA
ATOM     17  H   LIG    1        5.864  -4.819   0.301  0.00  0.00    +0.221 HD
ENDBRANCH  12  16
ENDBRANCH  11  12
ENDBRANCH  10  11
ENDBRANCH   1  10
TORSDOF 10
