REMARK  Name = DB01348
REMARK                            x       y       z     vdW  Elec       q    Type
REMARK                         _______ _______ _______ _____ _____    ______ ____
ROOT
ATOM      1  CA  LIG    1        0.142   1.697  -0.330  0.00  0.00    +0.138 C 
ATOM      2  CB  LIG    1        0.321   2.304  -1.738  0.00  0.00    +0.034 C 
ENDROOT
BRANCH   1  10
ATOM      3  S   LIG    1       -2.117   6.265   1.326  0.00  0.00    -0.141 S 
ATOM      4  C   LIG    1       -0.496   7.019   1.571  0.00  0.00    +0.081 C 
ATOM      5  C   LIG    1       -0.209   6.967   3.072  0.00  0.00    +0.081 C 
ATOM      6  S   LIG    1       -0.942   5.470   3.799  0.00  0.00    -0.141 S 
ATOM      7  C   LIG    1       -1.719   4.782   2.303  0.00  0.00    +0.080 C 
ATOM      8  C   LIG    1       -0.825   3.786   1.542  0.00  0.00    +0.137 C 
ATOM      9  N   LIG    1       -1.744   2.835   0.896  0.00  0.00    -0.285 N 
ATOM     10  C   LIG    1       -1.354   1.817   0.082  0.00  0.00    +0.233 C 
ATOM     11  O   LIG    1       -2.156   0.992  -0.369  0.00  0.00    -0.274 OA
ATOM     12  CA  LIG    1       -3.127   2.996   1.390  0.00  0.00    +0.187 C 
ATOM     13  C   LIG    1       -2.953   3.928   2.597  0.00  0.00    +0.064 C 
BRANCH  12  14
ATOM     14  C   LIG    1       -4.114   3.538   0.327  0.00  0.00    +0.326 C 
ATOM     15  OXT LIG    1       -3.794   3.920  -0.781  0.00  0.00    -0.249 OA
BRANCH  14  16
ATOM     16  O   LIG    1       -5.388   3.500   0.814  0.00  0.00    -0.479 OA
ATOM     17  H   LIG    1       -6.029   3.820   0.176  0.00  0.00    +0.295 HD
ENDBRANCH  14  16
ENDBRANCH  12  14
ENDBRANCH   1  10
BRANCH   1  18
ATOM     18  N   LIG    1        0.515   0.266  -0.206  0.00  0.00    -0.294 NA
ATOM     19  H   LIG    1        0.274  -0.034   0.728  0.00  0.00    +0.123 HD
BRANCH  18  20
ATOM     20  C   LIG    1        1.966  -0.006  -0.374  0.00  0.00    +0.164 C 
BRANCH  20  21
ATOM     21  C   LIG    1        2.320  -0.400  -1.808  0.00  0.00    +0.324 C 
ATOM     22  O   LIG    1        3.451  -0.224  -2.265  0.00  0.00    -0.249 OA
BRANCH  21  23
ATOM     23  O   LIG    1        1.296  -0.975  -2.491  0.00  0.00    -0.464 OA
BRANCH  23  24
ATOM     24  C   LIG    1        1.463  -1.401  -3.836  0.00  0.00    +0.229 C 
ATOM     25  C   LIG    1        0.128  -1.934  -4.364  0.00  0.00    +0.048 C 
ENDBRANCH  23  24
ENDBRANCH  21  23
ENDBRANCH  20  21
BRANCH  20  26
ATOM     26  C   LIG    1        2.423  -1.114   0.612  0.00  0.00    +0.035 C 
BRANCH  26  27
ATOM     27  C   LIG    1        3.950  -1.239   0.827  0.00  0.00    +0.037 C 
BRANCH  27  28
ATOM     28  C   LIG    1        4.585   0.000   1.446  0.00  0.00    -0.047 A 
ATOM     29  C   LIG    1        4.476   0.225   2.821  0.00  0.00    +0.003 A 
ATOM     30  C   LIG    1        5.050   1.361   3.388  0.00  0.00    +0.000 A 
ATOM     31  C   LIG    1        5.731   2.267   2.577  0.00  0.00    +0.000 A 
ATOM     32  C   LIG    1        5.843   2.048   1.206  0.00  0.00    +0.000 A 
ATOM     33  C   LIG    1        5.271   0.913   0.639  0.00  0.00    +0.003 A 
ENDBRANCH  27  28
ENDBRANCH  26  27
ENDBRANCH  20  26
ENDBRANCH  18  20
ENDBRANCH   1  18
TORSDOF 11
