REMARK  Name = DB01365
REMARK                            x       y       z     vdW  Elec       q    Type
REMARK                         _______ _______ _______ _____ _____    ______ ____
ROOT
ATOM      1  C   LIG    1        1.915  -1.390  -0.080  0.00  0.00    +0.056 C 
ENDROOT
BRANCH   1   2
ATOM      2  C   LIG    1        1.433  -2.173  -1.302  0.00  0.00    -0.046 A 
ATOM      3  C   LIG    1        2.221  -2.224  -2.456  0.00  0.00    +0.004 A 
ATOM      4  C   LIG    1        1.785  -2.941  -3.567  0.00  0.00    +0.000 A 
ATOM      5  C   LIG    1        0.564  -3.610  -3.520  0.00  0.00    +0.000 A 
ATOM      6  C   LIG    1       -0.225  -3.570  -2.373  0.00  0.00    +0.000 A 
ATOM      7  C   LIG    1        0.211  -2.852  -1.262  0.00  0.00    +0.004 A 
ENDBRANCH   1   2
BRANCH   1   8
ATOM      8  C   LIG    1        1.486   0.108  -0.005  0.00  0.00    +0.017 C 
ATOM      9  C   LIG    1        2.045   0.713   1.307  0.00  0.00    +0.027 C 
ATOM     10  C   LIG    1        2.031   0.898  -1.222  0.00  0.00    +0.027 C 
BRANCH   8  11
ATOM     11  N   LIG    1        0.015   0.151   0.017  0.00  0.00    -0.314 NA
ATOM     12  H   LIG    1       -0.344  -0.458   0.738  0.00  0.00    +0.122 HD
ATOM     13  C   LIG    1       -0.624   1.460   0.090  0.00  0.00    +0.101 C 
ENDBRANCH   8  11
ENDBRANCH   1   8
TORSDOF 3
