REMARK  Name = DB01232
REMARK                            x       y       z     vdW  Elec       q    Type
REMARK                         _______ _______ _______ _____ _____    ______ ____
ROOT
ATOM      1  C   LIG    1        1.469   0.433   0.496  0.00  0.00    +0.107 C 
ENDROOT
BRANCH   1   2
ATOM      2  N   LIG    1        1.859   0.847  -0.858  0.00  0.00    -0.308 N 
ATOM      3  H   LIG    1        1.345   1.624  -1.249  0.00  0.00    +0.149 HD
ATOM      4  C   LIG    1        2.782   0.246  -1.629  0.00  0.00    +0.234 C 
ATOM      5  O   LIG    1        3.448  -0.732  -1.280  0.00  0.00    -0.274 OA
BRANCH   4   6
ATOM      6  C   LIG    1        2.948   0.819  -3.057  0.00  0.00    +0.168 C 
BRANCH   6   7
ATOM      7  N   LIG    1        4.367   1.037  -3.360  0.00  0.00    -0.298 N 
ATOM      8  H   LIG    1        4.795   0.355  -3.970  0.00  0.00    +0.150 HD
ATOM      9  C   LIG    1        5.135   2.026  -2.857  0.00  0.00    +0.263 C 
ATOM     10  O   LIG    1        4.690   2.892  -2.100  0.00  0.00    -0.269 OA
BRANCH   9  11
ATOM     11  C   LIG    1        6.595   2.035  -3.264  0.00  0.00    +0.126 A 
ATOM     12  C   LIG    1        7.476   2.964  -2.697  0.00  0.00    +0.033 A 
ATOM     13  C   LIG    1        8.816   2.965  -3.077  0.00  0.00    +0.012 A 
ATOM     14  C   LIG    1        9.270   2.025  -4.032  0.00  0.00    +0.000 A 
ATOM     15  C   LIG    1       10.615   1.965  -4.470  0.00  0.00    +0.010 A 
ATOM     16  C   LIG    1       11.000   1.017  -5.415  0.00  0.00    +0.001 A 
ATOM     17  C   LIG    1       10.073   0.121  -5.939  0.00  0.00    +0.002 A 
ATOM     18  C   LIG    1        8.742   0.154  -5.529  0.00  0.00    +0.028 A 
ATOM     19  C   LIG    1        8.319   1.106  -4.569  0.00  0.00    +0.072 A 
ATOM     20  N   LIG    1        7.012   1.119  -4.185  0.00  0.00    -0.242 NA
ENDBRANCH   9  11
ENDBRANCH   6   7
BRANCH   6  21
ATOM     21  C   LIG    1        2.350  -0.113  -4.151  0.00  0.00    +0.127 C 
BRANCH  21  22
ATOM     22  C   LIG    1        0.823  -0.291  -4.104  0.00  0.00    +0.213 C 
ATOM     23  O   LIG    1        0.096   0.586  -3.641  0.00  0.00    -0.276 OA
ATOM     24  N   LIG    1        0.332  -1.429  -4.601  0.00  0.00    -0.329 N 
ATOM     25  H   LIG    1        0.950  -2.132  -4.978  0.00  0.00    +0.145 HD
ATOM     26  H   LIG    1       -0.664  -1.596  -4.594  0.00  0.00    +0.145 HD
ENDBRANCH  21  22
ENDBRANCH   6  21
ENDBRANCH   4   6
ENDBRANCH   1   2
BRANCH   1  27
ATOM     27  C   LIG    1       -0.075   0.506   0.648  0.00  0.00    +0.149 C 
BRANCH  27  28
ATOM     28  O   LIG    1       -0.524   1.844   0.790  0.00  0.00    -0.389 OA
ATOM     29  H   LIG    1       -0.239   2.345   0.023  0.00  0.00    +0.210 HD
ENDBRANCH  27  28
BRANCH  27  30
ATOM     30  C   LIG    1       -0.619  -0.376   1.799  0.00  0.00    +0.118 C 
BRANCH  30  31
ATOM     31  N   LIG    1       -2.069  -0.617   1.652  0.00  0.00    -0.289 NA
ATOM     32  C   LIG    1       -2.798  -0.108   2.824  0.00  0.00    +0.089 C 
ATOM     33  C   LIG    1       -4.335  -0.172   2.663  0.00  0.00    +0.006 C 
ATOM     34  C   LIG    1       -4.751  -1.644   2.405  0.00  0.00    -0.005 C 
ATOM     35  C   LIG    1       -6.292  -1.767   2.307  0.00  0.00    +0.004 C 
ATOM     36  C   LIG    1       -6.889  -0.835   1.230  0.00  0.00    +0.000 C 
ATOM     37  C   LIG    1       -6.422   0.626   1.407  0.00  0.00    +0.000 C 
ATOM     38  C   LIG    1       -3.971  -2.238   1.210  0.00  0.00    +0.032 C 
ATOM     39  C   LIG    1       -4.887   0.724   1.521  0.00  0.00    +0.005 C 
ATOM     40  C   LIG    1       -2.435  -2.021   1.325  0.00  0.00    +0.143 C 
BRANCH  40  41
ATOM     41  C   LIG    1       -1.783  -2.453  -0.018  0.00  0.00    +0.231 C 
ATOM     42  O   LIG    1       -1.957  -1.782  -1.039  0.00  0.00    -0.274 OA
ATOM     43  N   LIG    1       -1.018  -3.563   0.015  0.00  0.00    -0.309 N 
ATOM     44  H   LIG    1       -0.960  -4.054   0.894  0.00  0.00    +0.149 HD
BRANCH  43  45
ATOM     45  C   LIG    1       -0.194  -4.134  -1.065  0.00  0.00    +0.026 C 
ATOM     46  C   LIG    1       -1.033  -4.468  -2.324  0.00  0.00    +0.031 C 
ATOM     47  C   LIG    1        0.957  -3.167  -1.436  0.00  0.00    +0.031 C 
ATOM     48  C   LIG    1        0.424  -5.444  -0.533  0.00  0.00    +0.031 C 
ENDBRANCH  43  45
ENDBRANCH  40  41
ENDBRANCH  30  31
ENDBRANCH  27  30
ENDBRANCH   1  27
BRANCH   1  49
ATOM     49  C   LIG    1        2.255   1.186   1.605  0.00  0.00    +0.060 C 
BRANCH  49  50
ATOM     50  C   LIG    1        3.760   0.943   1.577  0.00  0.00    -0.046 A 
ATOM     51  C   LIG    1        4.280  -0.258   2.067  0.00  0.00    +0.004 A 
ATOM     52  C   LIG    1        5.652  -0.492   2.018  0.00  0.00    +0.000 A 
ATOM     53  C   LIG    1        6.499   0.475   1.479  0.00  0.00    +0.000 A 
ATOM     54  C   LIG    1        5.987   1.675   0.991  0.00  0.00    +0.000 A 
ATOM     55  C   LIG    1        4.616   1.911   1.044  0.00  0.00    +0.004 A 
ENDBRANCH  49  50
ENDBRANCH   1  49
TORSDOF 14
