REMARK  Name = DB01151
REMARK                            x       y       z     vdW  Elec       q    Type
REMARK                         _______ _______ _______ _____ _____    ______ ____
ROOT
ATOM      1  N   LIG    1       -2.038   0.449   0.160  0.00  0.00    -0.300 N 
ATOM      2  C   LIG    1       -2.655   0.757   1.391  0.00  0.00    +0.037 A 
ATOM      3  C   LIG    1       -2.221   0.085   2.546  0.00  0.00    +0.024 A 
ATOM      4  C   LIG    1       -2.722   0.395   3.807  0.00  0.00    +0.002 A 
ATOM      5  C   LIG    1       -3.673   1.398   3.943  0.00  0.00    +0.000 A 
ATOM      6  C   LIG    1       -4.125   2.074   2.814  0.00  0.00    +0.005 A 
ATOM      7  C   LIG    1       -3.631   1.765   1.540  0.00  0.00    -0.026 A 
ATOM      8  C   LIG    1       -4.197   2.459   0.320  0.00  0.00    +0.042 C 
ATOM      9  C   LIG    1       -4.844   1.474  -0.653  0.00  0.00    +0.042 C 
ATOM     10  C   LIG    1       -3.907   0.649  -1.528  0.00  0.00    -0.026 A 
ATOM     11  C   LIG    1       -4.382   0.298  -2.801  0.00  0.00    +0.005 A 
ATOM     12  C   LIG    1       -3.610  -0.435  -3.692  0.00  0.00    +0.000 A 
ATOM     13  C   LIG    1       -2.340  -0.841  -3.317  0.00  0.00    +0.002 A 
ATOM     14  C   LIG    1       -1.858  -0.516  -2.054  0.00  0.00    +0.024 A 
ATOM     15  C   LIG    1       -2.610   0.230  -1.121  0.00  0.00    +0.037 A 
ENDROOT
BRANCH   1  16
ATOM     16  C   LIG    1       -0.631   0.911   0.125  0.00  0.00    +0.112 C 
BRANCH  16  17
ATOM     17  C   LIG    1        0.389  -0.188   0.501  0.00  0.00    +0.034 C 
BRANCH  17  18
ATOM     18  C   LIG    1        1.791   0.090  -0.066  0.00  0.00    +0.082 C 
BRANCH  18  19
ATOM     19  N   LIG    1        2.713  -0.959   0.345  0.00  0.00    -0.319 NA
ATOM     20  H   LIG    1        2.751  -1.004   1.354  0.00  0.00    +0.122 HD
ATOM     21  C   LIG    1        4.042  -0.711  -0.189  0.00  0.00    +0.101 C 
ENDBRANCH  18  19
ENDBRANCH  17  18
ENDBRANCH  16  17
ENDBRANCH   1  16
TORSDOF 4
