REMARK  Name = DB01108
REMARK                            x       y       z     vdW  Elec       q    Type
REMARK                         _______ _______ _______ _____ _____    ______ ____
ROOT
ATOM      1  C   LIG    1       -0.691  -1.347  -0.233  0.00  0.00    +0.059 C 
ATOM      2  C   LIG    1       -2.104  -1.370   0.433  0.00  0.00    +0.008 C 
ATOM      3  C   LIG    1       -1.914  -1.462   1.975  0.00  0.00    +0.015 C 
ATOM      4  C   LIG    1       -2.951  -2.575  -0.128  0.00  0.00    +0.002 C 
ATOM      5  C   LIG    1       -2.260  -3.973   0.018  0.00  0.00    +0.005 C 
ATOM      6  C   LIG    1       -3.145  -5.149  -0.464  0.00  0.00    +0.010 C 
ATOM      7  C   LIG    1       -4.534  -5.136   0.223  0.00  0.00    -0.003 C 
ATOM      8  C   LIG    1       -4.402  -5.380   1.759  0.00  0.00    +0.014 C 
ATOM      9  C   LIG    1       -5.568  -6.123  -0.373  0.00  0.00    +0.121 C 
ATOM     10  C   LIG    1       -6.949  -5.479  -0.122  0.00  0.00    +0.032 C 
ATOM     11  C   LIG    1       -6.691  -3.982   0.146  0.00  0.00    +0.007 C 
ATOM     12  C   LIG    1       -5.200  -3.795  -0.163  0.00  0.00    +0.001 C 
ATOM     13  C   LIG    1       -4.432  -2.572   0.407  0.00  0.00    -0.003 C 
ATOM     14  C   LIG    1       -5.132  -1.242   0.029  0.00  0.00    +0.007 C 
ATOM     15  C   LIG    1       -4.354  -0.005   0.505  0.00  0.00    +0.039 C 
ATOM     16  C   LIG    1       -2.888  -0.074   0.026  0.00  0.00    +0.109 C 
ATOM     17  O   LIG    1       -2.696   0.468  -1.255  0.00  0.00    -0.356 OA
ATOM     18  C   LIG    1       -2.163   1.232  -0.191  0.00  0.00    +0.217 C 
ATOM     19  C   LIG    1       -0.654   1.144   0.023  0.00  0.00    +0.139 C 
ATOM     20  C   LIG    1        0.019  -0.026   0.031  0.00  0.00    +0.070 C 
ENDROOT
BRANCH   9  21
ATOM     21  O   LIG    1       -5.468  -7.489  -0.019  0.00  0.00    -0.391 OA
ATOM     22  H   LIG    1       -4.704  -7.864  -0.462  0.00  0.00    +0.210 HD
ENDBRANCH   9  21
BRANCH  19  23
ATOM     23  O   LIG    1       -0.036   2.342   0.211  0.00  0.00    -0.507 OA
ATOM     24  H   LIG    1       -0.682   3.049   0.157  0.00  0.00    +0.292 HD
ENDBRANCH  19  23
BRANCH  20  25
ATOM     25  C   LIG    1        1.434  -0.052   0.224  0.00  0.00    +0.098 C 
ATOM     26  N   LIG    1        2.580  -0.096   0.380  0.00  0.00    -0.191 NA
ENDBRANCH  20  25
TORSDOF 3
