REMARK  Name = DB01327
REMARK                            x       y       z     vdW  Elec       q    Type
REMARK                         _______ _______ _______ _____ _____    ______ ____
ROOT
ATOM      1  C   LIG    1       -2.473  -0.505  -0.294  0.00  0.00    +0.169 C 
ATOM      2  CA  LIG    1       -3.738   0.386  -0.414  0.00  0.00    +0.191 C 
ATOM      3  C   LIG    1       -2.750   1.589  -0.417  0.00  0.00    +0.244 C 
ATOM      4  O   LIG    1       -2.848   2.799  -0.620  0.00  0.00    -0.273 OA
ATOM      5  S   LIG    1       -1.844  -1.476  -1.699  0.00  0.00    -0.131 S 
ATOM      6  C   LIG    1       -0.148  -1.615  -1.035  0.00  0.00    +0.104 C 
ATOM      7  C   LIG    1        0.479  -0.264  -0.637  0.00  0.00    -0.021 C 
ATOM      8  CA  LIG    1       -0.298   0.805  -0.274  0.00  0.00    +0.123 C 
ATOM      9  N   LIG    1       -1.667   0.731  -0.182  0.00  0.00    -0.249 N 
ENDROOT
BRANCH   2  10
ATOM     10  N   LIG    1       -4.514   0.259  -1.653  0.00  0.00    -0.300 N 
ATOM     11  H   LIG    1       -4.091  -0.289  -2.387  0.00  0.00    +0.150 HD
ATOM     12  C   LIG    1       -5.699   0.849  -1.891  0.00  0.00    +0.235 C 
ATOM     13  O   LIG    1       -6.264   1.581  -1.075  0.00  0.00    -0.274 OA
BRANCH  12  14
ATOM     14  C   LIG    1       -6.305   0.590  -3.280  0.00  0.00    +0.242 C 
BRANCH  14  15
ATOM     15  N   LIG    1       -7.695   1.008  -3.435  0.00  0.00    -0.223 N 
ATOM     16  N   LIG    1       -8.698   0.288  -2.918  0.00  0.00    -0.044 NA
ATOM     17  N   LIG    1       -9.839   1.003  -3.237  0.00  0.00    -0.023 NA
ATOM     18  N   LIG    1       -9.504   2.159  -3.939  0.00  0.00    -0.117 NA
ATOM     19  C   LIG    1       -8.199   2.134  -4.038  0.00  0.00    +0.245 A 
ENDBRANCH  14  15
ENDBRANCH  12  14
ENDBRANCH   2  10
BRANCH   8  20
ATOM     20  C   LIG    1        0.292   2.104   0.022  0.00  0.00    +0.351 C 
ATOM     21  O   LIG    1        1.051   2.708  -0.734  0.00  0.00    -0.244 OA
BRANCH  20  22
ATOM     22  OXT LIG    1       -0.086   2.584   1.244  0.00  0.00    -0.476 OA
ATOM     23  HXT LIG    1        0.297   3.444   1.432  0.00  0.00    +0.295 HD
ENDBRANCH  20  22
ENDBRANCH   8  20
BRANCH   7  24
ATOM     24  C   LIG    1        2.017  -0.258  -0.711  0.00  0.00    +0.110 C 
BRANCH  24  25
ATOM     25  S   LIG    1        2.850  -1.677   0.082  0.00  0.00    -0.093 S 
BRANCH  25  26
ATOM     26  C   LIG    1        2.949  -1.222   1.790  0.00  0.00    +0.159 A 
ATOM     27  S   LIG    1        2.345   0.266   2.475  0.00  0.00    -0.044 S 
ATOM     28  C   LIG    1        2.899  -0.284   4.030  0.00  0.00    +0.100 A 
ATOM     29  C   LIG    1        2.745   0.505   5.309  0.00  0.00    +0.075 C 
ATOM     30  N   LIG    1        3.467  -1.463   3.974  0.00  0.00    -0.146 NA
ATOM     31  N   LIG    1        3.494  -1.998   2.693  0.00  0.00    -0.135 NA
ENDBRANCH  25  26
ENDBRANCH  24  25
ENDBRANCH   7  24
TORSDOF 8
