REMARK  Name = DB01076
REMARK                            x       y       z     vdW  Elec       q    Type
REMARK                         _______ _______ _______ _____ _____    ______ ____
ROOT
ATOM      1  C   LIG    1       -0.871  -0.973  -0.074  0.00  0.00    +0.058 A 
ATOM      2  C   LIG    1       -2.113  -0.394  -0.320  0.00  0.00    +0.020 A 
ATOM      3  C   LIG    1       -1.876   0.954  -0.652  0.00  0.00    +0.066 A 
ATOM      4  C   LIG    1       -0.506   1.214  -0.504  0.00  0.00    +0.035 A 
ATOM      5  N   LIG    1        0.105  -0.002  -0.223  0.00  0.00    -0.342 N 
ENDROOT
BRANCH   1  10
ATOM      6  F   LIG    1        0.115  -6.314   1.399  0.00  0.00    -0.205 F 
ATOM      7  C   LIG    1       -0.116  -5.030   1.043  0.00  0.00    +0.123 A 
ATOM      8  C   LIG    1       -0.852  -4.201   1.887  0.00  0.00    +0.039 A 
ATOM      9  C   LIG    1       -1.091  -2.879   1.521  0.00  0.00    +0.013 A 
ATOM     10  C   LIG    1       -0.587  -2.387   0.314  0.00  0.00    -0.001 A 
ATOM     11  C   LIG    1        0.139  -3.227  -0.535  0.00  0.00    +0.013 A 
ATOM     12  C   LIG    1        0.379  -4.548  -0.167  0.00  0.00    +0.039 A 
ENDBRANCH   1  10
BRANCH   2  13
ATOM     13  C   LIG    1       -3.426  -1.110  -0.266  0.00  0.00    -0.015 A 
ATOM     14  C   LIG    1       -3.636  -2.227  -1.080  0.00  0.00    +0.008 A 
ATOM     15  C   LIG    1       -4.850  -2.906  -1.034  0.00  0.00    +0.001 A 
ATOM     16  C   LIG    1       -5.853  -2.466  -0.172  0.00  0.00    +0.000 A 
ATOM     17  C   LIG    1       -5.651  -1.357   0.645  0.00  0.00    +0.001 A 
ATOM     18  C   LIG    1       -4.436  -0.680   0.600  0.00  0.00    +0.008 A 
ENDBRANCH   2  13
BRANCH   3  19
ATOM     19  C   LIG    1       -2.886   1.919  -0.978  0.00  0.00    +0.251 C 
ATOM     20  N   LIG    1       -3.425   2.495   0.118  0.00  0.00    -0.281 N 
ATOM     21  H   LIG    1       -3.039   2.208   1.006  0.00  0.00    +0.155 HD
ATOM     22  O   LIG    1       -3.175   2.146  -2.152  0.00  0.00    -0.270 OA
BRANCH  20  23
ATOM     23  C   LIG    1       -4.449   3.455   0.212  0.00  0.00    +0.034 A 
ATOM     24  C   LIG    1       -5.244   3.884  -0.864  0.00  0.00    +0.023 A 
ATOM     25  C   LIG    1       -6.237   4.839  -0.657  0.00  0.00    +0.002 A 
ATOM     26  C   LIG    1       -6.440   5.363   0.617  0.00  0.00    +0.000 A 
ATOM     27  C   LIG    1       -5.662   4.939   1.690  0.00  0.00    +0.002 A 
ATOM     28  C   LIG    1       -4.669   3.984   1.487  0.00  0.00    +0.023 A 
ENDBRANCH  20  23
ENDBRANCH   3  19
BRANCH   4  29
ATOM     29  C   LIG    1        0.305   2.512  -0.660  0.00  0.00    +0.030 C 
ATOM     30  C   LIG    1        0.471   2.876  -2.145  0.00  0.00    +0.014 C 
ATOM     31  C   LIG    1       -0.276   3.689   0.147  0.00  0.00    +0.014 C 
ENDBRANCH   4  29
BRANCH   5  32
ATOM     32  C   LIG    1        1.537  -0.201   0.038  0.00  0.00    +0.124 C 
BRANCH  32  33
ATOM     33  C   LIG    1        1.876   0.085   1.518  0.00  0.00    +0.053 C 
BRANCH  33  34
ATOM     34  C   LIG    1        3.364  -0.130   1.870  0.00  0.00    +0.119 C 
BRANCH  34  35
ATOM     35  O   LIG    1        4.155   0.762   1.106  0.00  0.00    -0.392 OA
ATOM     36  H   LIG    1        3.932   1.661   1.357  0.00  0.00    +0.210 HD
ENDBRANCH  34  35
BRANCH  34  37
ATOM     37  C   LIG    1        3.642   0.053   3.383  0.00  0.00    +0.063 C 
BRANCH  37  38
ATOM     38  C   LIG    1        5.040  -0.404   3.872  0.00  0.00    +0.128 C 
BRANCH  38  39
ATOM     39  O   LIG    1        6.047   0.436   3.334  0.00  0.00    -0.391 OA
ATOM     40  H   LIG    1        5.899   1.331   3.648  0.00  0.00    +0.210 HD
ENDBRANCH  38  39
BRANCH  38  41
ATOM     41  C   LIG    1        5.138  -0.411   5.418  0.00  0.00    +0.151 C 
BRANCH  41  42
ATOM     42  C   LIG    1        6.424  -1.054   5.955  0.00  0.00    +0.307 C 
ATOM     43  O   LIG    1        6.595  -2.270   6.011  0.00  0.00    -0.251 OA
BRANCH  42  44
ATOM     44  O   LIG    1        7.336  -0.118   6.347  0.00  0.00    -0.481 OA
ATOM     45  H   LIG    1        8.146  -0.515   6.676  0.00  0.00    +0.295 HD
ENDBRANCH  42  44
ENDBRANCH  41  42
ENDBRANCH  38  41
ENDBRANCH  37  38
ENDBRANCH  34  37
ENDBRANCH  33  34
ENDBRANCH  32  33
ENDBRANCH   5  32
TORSDOF 15
