REMARK  Name = DB01440
REMARK                            x       y       z     vdW  Elec       q    Type
REMARK                         _______ _______ _______ _____ _____    ______ ____
ROOT
ATOM      1  C   LIG    1       -0.036   0.012  -0.005  0.00  0.00    +0.122 C 
ENDROOT
BRANCH   1   3
ATOM      2  O   LIG    1       -1.062   1.987  -0.990  0.00  0.00    -0.251 OA
ATOM      3  C   LIG    1       -0.598   1.437   0.007  0.00  0.00    +0.305 C 
BRANCH   3   4
ATOM      4  O   LIG    1       -0.519   2.003   1.246  0.00  0.00    -0.481 OA
ATOM      5  H   LIG    1       -0.869   2.897   1.260  0.00  0.00    +0.295 HD
ENDBRANCH   3   4
ENDBRANCH   1   3
BRANCH   1   6
ATOM      6  C   LIG    1        1.505  -0.018   0.056  0.00  0.00    +0.039 C 
BRANCH   6   7
ATOM      7  C   LIG    1        2.069  -1.447  -0.018  0.00  0.00    +0.156 C 
BRANCH   7   8
ATOM      8  O   LIG    1        3.480  -1.435   0.040  0.00  0.00    -0.395 OA
ATOM      9  H   LIG    1        3.795  -2.341  -0.007  0.00  0.00    +0.209 HD
ENDBRANCH   7   8
ENDBRANCH   6   7
ENDBRANCH   1   6
TORSDOF 5
