REMARK  Name = DB01351
REMARK                            x       y       z     vdW  Elec       q    Type
REMARK                         _______ _______ _______ _____ _____    ______ ____
ROOT
ATOM      1  O   LIG    1       -0.316   1.756   2.454  0.00  0.00    -0.274 OA
ATOM      2  C   LIG    1       -0.034   2.171   1.330  0.00  0.00    +0.235 C 
ATOM      3  C   LIG    1       -0.536   1.514  -0.007  0.00  0.00    +0.123 C 
ATOM      4  C   LIG    1       -0.095   2.237  -1.331  0.00  0.00    +0.235 C 
ATOM      5  N   LIG    1        0.710   3.306  -1.135  0.00  0.00    -0.239 N 
ATOM      6  H   LIG    1        1.010   3.770  -1.980  0.00  0.00    +0.159 HD
ATOM      7  C   LIG    1        1.172   3.858   0.013  0.00  0.00    +0.312 C 
ATOM      8  O   LIG    1        1.907   4.843   0.021  0.00  0.00    -0.252 OA
ATOM      9  O   LIG    1       -0.429   1.878  -2.459  0.00  0.00    -0.274 OA
ATOM     10  N   LIG    1        0.761   3.249   1.152  0.00  0.00    -0.239 N 
ATOM     11  H   LIG    1        1.099   3.672   2.004  0.00  0.00    +0.159 HD
ENDROOT
BRANCH   3  12
ATOM     12  C   LIG    1       -2.103   1.533   0.031  0.00  0.00    +0.022 C 
ATOM     13  C   LIG    1       -2.805   2.910   0.073  0.00  0.00    +0.005 C 
ENDBRANCH   3  12
BRANCH   3  14
ATOM     14  C   LIG    1        0.050   0.060  -0.057  0.00  0.00    +0.026 C 
BRANCH  14  15
ATOM     15  C   LIG    1        1.596  -0.097  -0.120  0.00  0.00    +0.004 C 
BRANCH  15  16
ATOM     16  C   LIG    1        2.098  -1.559  -0.065  0.00  0.00    -0.017 C 
ATOM     17  C   LIG    1        1.657  -2.391  -1.286  0.00  0.00    +0.007 C 
ATOM     18  C   LIG    1        3.628  -1.611   0.102  0.00  0.00    +0.007 C 
ENDBRANCH  15  16
ENDBRANCH  14  15
ENDBRANCH   3  14
TORSDOF 4
