REMARK  Name = DB01273
REMARK                            x       y       z     vdW  Elec       q    Type
REMARK                         _______ _______ _______ _____ _____    ______ ____
ROOT
ATOM      1  C   LIG    1        0.406   0.438   0.919  0.00  0.00    -0.037 A 
ATOM      2  C   LIG    1       -0.146  -0.825   0.707  0.00  0.00    -0.037 A 
ATOM      3  C   LIG    1        0.302  -1.730   1.844  0.00  0.00    +0.034 C 
ATOM      4  C   LIG    1        0.448  -0.693   2.961  0.00  0.00    +0.019 C 
ATOM      5  C   LIG    1        1.685  -2.393   1.586  0.00  0.00    +0.089 C 
ATOM      6  N   LIG    1        2.763  -1.427   1.308  0.00  0.00    -0.315 NA
ATOM      7  H   LIG    1        3.687  -1.835   1.330  0.00  0.00    +0.122 HD
ATOM      8  C   LIG    1        2.682  -0.113   1.968  0.00  0.00    +0.089 C 
ATOM      9  C   LIG    1       -0.950  -1.081  -0.401  0.00  0.00    +0.034 A 
ATOM     10  C   LIG    1       -1.209  -0.040  -1.326  0.00  0.00    +0.089 A 
ATOM     11  N   LIG    1       -1.995  -0.283  -2.414  0.00  0.00    -0.252 NA
ATOM     12  C   LIG    1       -2.212   0.747  -3.270  0.00  0.00    +0.131 A 
ATOM     13  C   LIG    1       -1.661   2.009  -3.058  0.00  0.00    +0.131 A 
ATOM     14  N   LIG    1       -0.876   2.277  -1.984  0.00  0.00    -0.252 NA
ATOM     15  C   LIG    1       -0.642   1.258  -1.108  0.00  0.00    +0.089 A 
ATOM     16  C   LIG    1        0.171   1.484   0.029  0.00  0.00    +0.034 A 
ATOM     17  C   LIG    1        1.225   0.383   2.199  0.00  0.00    +0.034 C 
ENDROOT
TORSDOF 0
