REMARK  Name = DB01142
REMARK                            x       y       z     vdW  Elec       q    Type
REMARK                         _______ _______ _______ _____ _____    ______ ____
ROOT
ATOM      1  C   LIG    1        0.058   3.391   1.361  0.00  0.00    -0.011 C 
ATOM      2  C   LIG    1       -0.297   2.096   1.558  0.00  0.00    -0.017 C 
ATOM      3  C   LIG    1       -0.079   4.032   0.033  0.00  0.00    +0.024 A 
ATOM      4  C   LIG    1       -1.309   4.079  -0.638  0.00  0.00    +0.012 A 
ATOM      5  C   LIG    1       -1.409   4.672  -1.896  0.00  0.00    +0.001 A 
ATOM      6  C   LIG    1       -0.279   5.224  -2.496  0.00  0.00    +0.004 A 
ATOM      7  C   LIG    1        0.947   5.188  -1.833  0.00  0.00    +0.046 A 
ATOM      8  C   LIG    1        1.046   4.606  -0.567  0.00  0.00    +0.129 A 
ATOM      9  O   LIG    1        2.244   4.556   0.093  0.00  0.00    -0.487 OA
ATOM     10  C   LIG    1        2.362   5.483   1.164  0.00  0.00    +0.265 C 
ATOM     11  C   LIG    1        1.544   5.197   2.433  0.00  0.00    -0.003 A 
ATOM     12  C   LIG    1        1.874   5.938   3.576  0.00  0.00    +0.007 A 
ATOM     13  C   LIG    1        1.213   5.750   4.784  0.00  0.00    +0.000 A 
ATOM     14  C   LIG    1        0.198   4.808   4.872  0.00  0.00    +0.001 A 
ATOM     15  C   LIG    1       -0.149   4.063   3.750  0.00  0.00    +0.009 A 
ATOM     16  C   LIG    1        0.501   4.236   2.514  0.00  0.00    -0.011 A 
ENDROOT
BRANCH   2  17
ATOM     17  C   LIG    1       -0.768   1.077   0.524  0.00  0.00    +0.043 C 
BRANCH  17  18
ATOM     18  C   LIG    1        0.088  -0.208   0.466  0.00  0.00    +0.088 C 
BRANCH  18  19
ATOM     19  N   LIG    1        1.525   0.031   0.280  0.00  0.00    -0.308 NA
ATOM     20  C   LIG    1        2.257  -1.226   0.400  0.00  0.00    +0.104 C 
ATOM     21  C   LIG    1        1.825   0.644  -1.012  0.00  0.00    +0.104 C 
ENDBRANCH  18  19
ENDBRANCH  17  18
ENDBRANCH   2  17
TORSDOF 3
