REMARK  Name = DB01633
REMARK                            x       y       z     vdW  Elec       q    Type
REMARK                         _______ _______ _______ _____ _____    ______ ____
ROOT
ATOM      1  C   LIG    1        3.909  -1.325  -0.319  0.00  0.00    +0.282 C 
ATOM      2  C   LIG    1        3.602  -0.687   1.044  0.00  0.00    +0.201 C 
ATOM      3  C   LIG    1        2.080  -0.435   1.187  0.00  0.00    +0.179 C 
ATOM      4  C   LIG    1        1.487   0.270  -0.054  0.00  0.00    +0.183 C 
ATOM      5  C   LIG    1        1.977  -0.421  -1.353  0.00  0.00    +0.178 C 
ATOM      6  O   LIG    1        3.406  -0.499  -1.336  0.00  0.00    -0.341 OA
ENDROOT
BRANCH   3   7
ATOM      7  O   LIG    1        1.811   0.297   2.369  0.00  0.00    -0.386 OA
ATOM      8  H   LIG    1        0.946   0.707   2.282  0.00  0.00    +0.210 HD
ENDBRANCH   3   7
BRANCH   2   9
ATOM      9  O   LIG    1        4.092  -1.487   2.106  0.00  0.00    -0.384 OA
ATOM     10  H   LIG    1        3.699  -1.174   2.925  0.00  0.00    +0.210 HD
ENDBRANCH   2   9
BRANCH   1  11
ATOM     11  O   LIG    1        5.298  -1.420  -0.432  0.00  0.00    -0.340 OA
BRANCH  11  17
ATOM     12  F   LIG    1        8.199  -1.244  -4.245  0.00  0.00    -0.237 F 
ATOM     13  C   LIG    1        7.388  -2.030  -3.530  0.00  0.00    +0.252 C 
ATOM     14  C   LIG    1        8.156  -3.216  -2.921  0.00  0.00    +0.284 C 
ATOM     15  O   LIG    1        7.289  -4.009  -2.145  0.00  0.00    -0.340 OA
ATOM     16  C   LIG    1        6.662  -3.335  -1.040  0.00  0.00    +0.178 C 
ATOM     17  C   LIG    1        5.798  -2.156  -1.553  0.00  0.00    +0.184 C 
ATOM     18  C   LIG    1        6.643  -1.222  -2.443  0.00  0.00    +0.185 C 
BRANCH  14  19
ATOM     19  O   LIG    1        9.235  -2.743  -2.209  0.00  0.00    -0.365 OA
ATOM     20  H   LIG    1        9.867  -2.382  -2.836  0.00  0.00    +0.213 HD
ENDBRANCH  14  19
BRANCH  18  21
ATOM     21  O   LIG    1        5.849  -0.214  -3.040  0.00  0.00    -0.386 OA
ATOM     22  H   LIG    1        5.202   0.083  -2.394  0.00  0.00    +0.210 HD
ENDBRANCH  18  21
BRANCH  16  23
ATOM     23  C   LIG    1        5.832  -4.363  -0.244  0.00  0.00    +0.190 C 
BRANCH  23  24
ATOM     24  O   LIG    1        6.666  -5.349   0.331  0.00  0.00    -0.392 OA
ATOM     25  H   LIG    1        6.119  -5.960   0.830  0.00  0.00    +0.210 HD
ENDBRANCH  23  24
ENDBRANCH  16  23
ENDBRANCH  11  17
ENDBRANCH   1  11
BRANCH   5  26
ATOM     26  C   LIG    1        1.581   0.325  -2.644  0.00  0.00    +0.190 C 
BRANCH  26  27
ATOM     27  O   LIG    1        0.208   0.171  -2.940  0.00  0.00    -0.392 OA
ATOM     28  H   LIG    1        0.014   0.647  -3.751  0.00  0.00    +0.210 HD
ENDBRANCH  26  27
ENDBRANCH   5  26
BRANCH   4  29
ATOM     29  O   LIG    1        0.058   0.212   0.012  0.00  0.00    -0.340 OA
BRANCH  29  30
ATOM     30  C   LIG    1       -0.614   1.432   0.134  0.00  0.00    +0.282 C 
ATOM     31  C   LIG    1       -2.122   1.137   0.056  0.00  0.00    +0.201 C 
ATOM     32  C   LIG    1       -2.931   2.434   0.311  0.00  0.00    +0.179 C 
ATOM     33  C   LIG    1       -2.432   3.190   1.563  0.00  0.00    +0.177 C 
ATOM     34  C   LIG    1       -0.889   3.320   1.541  0.00  0.00    +0.178 C 
ATOM     35  O   LIG    1       -0.326   2.014   1.379  0.00  0.00    -0.341 OA
BRANCH  33  36
ATOM     36  O   LIG    1       -3.057   4.457   1.676  0.00  0.00    -0.386 OA
ATOM     37  H   LIG    1       -4.005   4.323   1.748  0.00  0.00    +0.210 HD
ENDBRANCH  33  36
BRANCH  32  38
ATOM     38  O   LIG    1       -4.323   2.170   0.392  0.00  0.00    -0.386 OA
ATOM     39  H   LIG    1       -4.480   1.574   1.129  0.00  0.00    +0.210 HD
ENDBRANCH  32  38
BRANCH  31  40
ATOM     40  O   LIG    1       -2.466   0.558  -1.190  0.00  0.00    -0.384 OA
ATOM     41  H   LIG    1       -1.987  -0.270  -1.283  0.00  0.00    +0.210 HD
ENDBRANCH  31  40
BRANCH  34  42
ATOM     42  C   LIG    1       -0.319   3.929   2.840  0.00  0.00    +0.190 C 
BRANCH  42  43
ATOM     43  O   LIG    1        1.075   4.131   2.731  0.00  0.00    -0.392 OA
ATOM     44  H   LIG    1        1.394   4.514   3.551  0.00  0.00    +0.210 HD
ENDBRANCH  42  43
ENDBRANCH  34  42
ENDBRANCH  29  30
ENDBRANCH   4  29
TORSDOF 17
