REMARK  Name = DB01111
REMARK                            x       y       z     vdW  Elec       q    Type
REMARK                         _______ _______ _______ _____ _____    ______ ____
ROOT
ATOM      1  C   LIG    1        2.712   1.323   0.939  0.00  0.00    +0.160 C 
ATOM      2  C   LIG    1        1.871   2.626   0.771  0.00  0.00    +0.234 C 
ATOM      3  N   LIG    1        2.071   3.590  -0.153  0.00  0.00    -0.302 N 
ATOM      4  H   LIG    1        1.436   4.370  -0.068  0.00  0.00    +0.150 HD
ATOM      5  C   LIG    1        2.943   3.756  -1.319  0.00  0.00    +0.159 C 
ATOM      6  C   LIG    1        2.463   2.885  -2.505  0.00  0.00    +0.234 C 
ATOM      7  N   LIG    1        3.289   2.591  -3.529  0.00  0.00    -0.302 N 
ATOM      8  H   LIG    1        2.918   1.984  -4.246  0.00  0.00    +0.150 HD
ATOM      9  C   LIG    1        4.623   3.113  -3.831  0.00  0.00    +0.159 C 
ATOM     10  C   LIG    1        5.646   2.034  -4.273  0.00  0.00    +0.234 C 
ATOM     11  N   LIG    1        5.385   1.005  -5.115  0.00  0.00    -0.302 N 
ATOM     12  H   LIG    1        6.192   0.431  -5.310  0.00  0.00    +0.150 HD
ATOM     13  C   LIG    1        4.186   0.449  -5.770  0.00  0.00    +0.160 C 
ATOM     14  C   LIG    1        3.415  -0.500  -4.820  0.00  0.00    +0.234 C 
ATOM     15  N   LIG    1        2.699  -1.559  -5.254  0.00  0.00    -0.302 N 
ATOM     16  H   LIG    1        2.361  -2.139  -4.500  0.00  0.00    +0.150 HD
ATOM     17  C   LIG    1        2.099  -1.988  -6.525  0.00  0.00    +0.160 C 
ATOM     18  C   LIG    1        0.671  -1.409  -6.611  0.00  0.00    +0.234 C 
ATOM     19  N   LIG    1       -0.322  -1.900  -5.838  0.00  0.00    -0.300 N 
ATOM     20  H   LIG    1       -1.179  -1.363  -5.832  0.00  0.00    +0.150 HD
ATOM     21  C   LIG    1       -0.492  -3.243  -5.261  0.00  0.00    +0.187 C 
ATOM     22  C   LIG    1        0.556  -3.760  -4.243  0.00  0.00    +0.236 C 
ATOM     23  N   LIG    1        0.953  -3.044  -3.175  0.00  0.00    -0.314 N 
ATOM     24  H   LIG    1        1.683  -3.458  -2.614  0.00  0.00    +0.149 HD
ATOM     25  C   LIG    1        0.457  -1.778  -2.652  0.00  0.00    +0.106 C 
ATOM     26  C   LIG    1        0.969  -1.597  -1.206  0.00  0.00    +0.050 C 
ATOM     27  C   LIG    1        0.467  -0.339  -0.463  0.00  0.00    +0.160 C 
ATOM     28  C   LIG    1        0.852  -0.446   1.029  0.00  0.00    +0.234 C 
ATOM     29  O   LIG    1        0.214  -1.227   1.734  0.00  0.00    -0.274 OA
ATOM     30  O   LIG    1        1.058  -4.859  -4.470  0.00  0.00    -0.274 OA
ATOM     31  O   LIG    1        0.471  -0.454  -7.357  0.00  0.00    -0.274 OA
ATOM     32  O   LIG    1        3.544  -0.338  -3.607  0.00  0.00    -0.274 OA
ATOM     33  O   LIG    1        6.780   2.148  -3.811  0.00  0.00    -0.274 OA
ATOM     34  O   LIG    1        1.312   2.459  -2.487  0.00  0.00    -0.274 OA
ATOM     35  O   LIG    1        0.984   2.811   1.604  0.00  0.00    -0.274 OA
ATOM     36  N   LIG    1        1.888   0.256   1.535  0.00  0.00    -0.302 N 
ATOM     37  H   LIG    1        2.102   0.091   2.508  0.00  0.00    +0.150 HD
ENDROOT
BRANCH  27  38
ATOM     38  N   LIG    1       -0.980  -0.207  -0.598  0.00  0.00    -0.302 N 
ATOM     39  H   LIG    1       -1.490  -1.074  -0.682  0.00  0.00    +0.150 HD
ATOM     40  C   LIG    1       -1.643   0.951  -0.719  0.00  0.00    +0.234 C 
ATOM     41  O   LIG    1       -1.129   2.066  -0.615  0.00  0.00    -0.274 OA
BRANCH  40  42
ATOM     42  C   LIG    1       -3.136   0.812  -1.076  0.00  0.00    +0.160 C 
BRANCH  42  43
ATOM     43  N   LIG    1       -3.891   2.027  -0.762  0.00  0.00    -0.302 N 
ATOM     44  H   LIG    1       -4.151   2.608  -1.546  0.00  0.00    +0.150 HD
ATOM     45  C   LIG    1       -4.173   2.422   0.490  0.00  0.00    +0.236 C 
ATOM     46  O   LIG    1       -3.880   1.774   1.497  0.00  0.00    -0.274 OA
BRANCH  45  47
ATOM     47  C   LIG    1       -4.881   3.784   0.635  0.00  0.00    +0.187 C 
BRANCH  47  48
ATOM     48  N   LIG    1       -5.691   3.796   1.855  0.00  0.00    -0.300 N 
ATOM     49  H   LIG    1       -5.218   4.109   2.689  0.00  0.00    +0.150 HD
ATOM     50  C   LIG    1       -6.905   3.232   1.956  0.00  0.00    +0.234 C 
ATOM     51  O   LIG    1       -7.565   2.826   0.998  0.00  0.00    -0.274 OA
BRANCH  50  52
ATOM     52  C   LIG    1       -7.404   3.003   3.396  0.00  0.00    +0.160 C 
BRANCH  52  53
ATOM     53  N   LIG    1       -6.681   1.879   4.010  0.00  0.00    -0.304 N 
ATOM     54  H   LIG    1       -6.092   2.131   4.790  0.00  0.00    +0.149 HD
ATOM     55  C   LIG    1       -6.689   0.592   3.609  0.00  0.00    +0.214 C 
ATOM     56  O   LIG    1       -7.386   0.172   2.685  0.00  0.00    -0.276 OA
BRANCH  55  57
ATOM     57  C   LIG    1       -5.793  -0.382   4.389  0.00  0.00    +0.096 C 
BRANCH  57  58
ATOM     58  C   LIG    1       -4.537  -0.869   3.622  0.00  0.00    +0.009 C 
BRANCH  58  59
ATOM     59  C   LIG    1       -4.807  -1.607   2.292  0.00  0.00    +0.001 C 
BRANCH  59  60
ATOM     60  C   LIG    1       -3.549  -2.274   1.697  0.00  0.00    +0.003 C 
BRANCH  60  61
ATOM     61  C   LIG    1       -3.772  -2.995   0.341  0.00  0.00    -0.014 C 
ATOM     62  C   LIG    1       -2.447  -3.552  -0.214  0.00  0.00    +0.007 C 
BRANCH  61  63
ATOM     63  C   LIG    1       -4.881  -4.079   0.362  0.00  0.00    -0.000 C 
ATOM     64  C   LIG    1       -4.671  -5.223   1.368  0.00  0.00    +0.004 C 
ENDBRANCH  61  63
ENDBRANCH  60  61
ENDBRANCH  59  60
ENDBRANCH  58  59
ENDBRANCH  57  58
ENDBRANCH  55  57
ENDBRANCH  52  53
BRANCH  52  65
ATOM     65  C   LIG    1       -8.944   2.871   3.517  0.00  0.00    +0.047 C 
BRANCH  65  66
ATOM     66  C   LIG    1       -9.721   4.104   3.015  0.00  0.00    +0.085 C 
BRANCH  66  67
ATOM     67  N   LIG    1      -11.141   3.930   3.290  0.00  0.00    -0.296 NA
ATOM     68  H   LIG    1      -11.308   3.829   4.282  0.00  0.00    +0.124 HD
BRANCH  67  69
ATOM     69  C   LIG    1      -11.975   5.001   2.751  0.00  0.00    +0.282 C 
BRANCH  69  70
ATOM     70  S   LIG    1      -11.786   6.612   3.746  0.00  0.00    +0.093 S 
ATOM     71  O   LIG    1      -11.801   6.172   5.146  0.00  0.00    -0.146 OA
ATOM     72  O   LIG    1      -10.509   7.171   3.292  0.00  0.00    -0.146 OA
BRANCH  70  73
ATOM     73  O   LIG    1      -12.961   7.394   3.345  0.00  0.00    -0.253 OA
ATOM     74  H   LIG    1      -12.954   8.247   3.806  0.00  0.00    +0.245 HD
ENDBRANCH  70  73
ENDBRANCH  69  70
ENDBRANCH  67  69
ENDBRANCH  66  67
ENDBRANCH  65  66
ENDBRANCH  52  65
ENDBRANCH  50  52
ENDBRANCH  47  48
BRANCH  47  75
ATOM     75  C   LIG    1       -3.788   4.891   0.662  0.00  0.00    +0.141 C 
ATOM     76  C   LIG    1       -2.694   4.753   1.742  0.00  0.00    +0.040 C 
BRANCH  75  77
ATOM     77  O   LIG    1       -4.409   6.152   0.817  0.00  0.00    -0.390 OA
ATOM     78  H   LIG    1       -4.994   6.299   0.070  0.00  0.00    +0.210 HD
ENDBRANCH  75  77
ENDBRANCH  47  75
ENDBRANCH  45  47
ENDBRANCH  42  43
BRANCH  42  79
ATOM     79  C   LIG    1       -3.316   0.388  -2.552  0.00  0.00    +0.047 C 
BRANCH  79  80
ATOM     80  C   LIG    1       -2.762   1.389  -3.590  0.00  0.00    +0.085 C 
BRANCH  80  81
ATOM     81  N   LIG    1       -2.487   0.702  -4.845  0.00  0.00    -0.296 NA
ATOM     82  H   LIG    1       -3.310   0.197  -5.142  0.00  0.00    +0.124 HD
BRANCH  81  83
ATOM     83  C   LIG    1       -2.046   1.606  -5.906  0.00  0.00    +0.282 C 
BRANCH  83  84
ATOM     84  S   LIG    1       -0.333   2.362  -5.542  0.00  0.00    +0.093 S 
ATOM     85  O   LIG    1       -0.625   3.490  -4.651  0.00  0.00    -0.146 OA
ATOM     86  O   LIG    1        0.422   1.268  -4.921  0.00  0.00    -0.146 OA
BRANCH  84  87
ATOM     87  O   LIG    1        0.151   2.757  -6.868  0.00  0.00    -0.253 OA
ATOM     88  H   LIG    1        1.030   3.159  -6.785  0.00  0.00    +0.245 HD
ENDBRANCH  84  87
ENDBRANCH  83  84
ENDBRANCH  81  83
ENDBRANCH  80  81
ENDBRANCH  79  80
ENDBRANCH  42  79
ENDBRANCH  40  42
ENDBRANCH  27  38
BRANCH  21  89
ATOM     89  C   LIG    1       -1.927  -3.440  -4.688  0.00  0.00    +0.141 C 
ATOM     90  C   LIG    1       -2.247  -4.847  -4.147  0.00  0.00    +0.040 C 
BRANCH  89  91
ATOM     91  O   LIG    1       -2.876  -3.141  -5.694  0.00  0.00    -0.390 OA
ATOM     92  H   LIG    1       -2.827  -3.819  -6.373  0.00  0.00    +0.210 HD
ENDBRANCH  89  91
ENDBRANCH  21  89
BRANCH   1  93
ATOM     93  C   LIG    1        3.641   0.823  -0.204  0.00  0.00    +0.047 C 
BRANCH  93  94
ATOM     94  C   LIG    1        4.422  -0.471   0.114  0.00  0.00    +0.085 C 
BRANCH  94  95
ATOM     95  N   LIG    1        5.310  -0.279   1.251  0.00  0.00    -0.296 NA
ATOM     96  H   LIG    1        4.769   0.021   2.050  0.00  0.00    +0.124 HD
BRANCH  95  97
ATOM     97  C   LIG    1        5.999  -1.520   1.578  0.00  0.00    +0.282 C 
BRANCH  97  98
ATOM     98  S   LIG    1        7.143  -1.220   3.057  0.00  0.00    +0.093 S 
ATOM     99  O   LIG    1        8.090  -0.210   2.573  0.00  0.00    -0.146 OA
ATOM    100  O   LIG    1        6.237  -0.754   4.113  0.00  0.00    -0.146 OA
BRANCH  98 101
ATOM    101  O   LIG    1        7.733  -2.540   3.302  0.00  0.00    -0.253 OA
ATOM    102  H   LIG    1        8.344  -2.487   4.054  0.00  0.00    +0.245 HD
ENDBRANCH  98 101
ENDBRANCH  97  98
ENDBRANCH  95  97
ENDBRANCH  94  95
ENDBRANCH  93  94
ENDBRANCH   1  93
BRANCH  17 103
ATOM    103  C   LIG    1        2.962  -1.838  -7.802  0.00  0.00    +0.047 C 
BRANCH 103 104
ATOM    104  C   LIG    1        2.356  -2.535  -9.036  0.00  0.00    +0.085 C 
BRANCH 104 105
ATOM    105  N   LIG    1        3.317  -2.517 -10.129  0.00  0.00    -0.296 NA
ATOM    106  H   LIG    1        3.550  -1.561 -10.360  0.00  0.00    +0.124 HD
BRANCH 105 107
ATOM    107  C   LIG    1        2.767  -3.177 -11.306  0.00  0.00    +0.282 C 
BRANCH 107 108
ATOM    108  S   LIG    1        4.101  -3.282 -12.649  0.00  0.00    +0.093 S 
ATOM    109  O   LIG    1        4.488  -1.885 -12.872  0.00  0.00    -0.146 OA
ATOM    110  O   LIG    1        5.145  -4.119 -12.047  0.00  0.00    -0.146 OA
BRANCH 108 111
ATOM    111  O   LIG    1        3.398  -3.905 -13.776  0.00  0.00    -0.253 OA
ATOM    112  H   LIG    1        4.008  -4.002 -14.524  0.00  0.00    +0.245 HD
ENDBRANCH 108 111
ENDBRANCH 107 108
ENDBRANCH 105 107
ENDBRANCH 104 105
ENDBRANCH 103 104
ENDBRANCH  17 103
BRANCH  13 113
ATOM    113  C   LIG    1        3.339   1.463  -6.582  0.00  0.00    +0.047 C 
BRANCH 113 114
ATOM    114  C   LIG    1        4.127   2.042  -7.775  0.00  0.00    +0.085 C 
BRANCH 114 115
ATOM    115  N   LIG    1        3.459   3.218  -8.314  0.00  0.00    -0.296 NA
ATOM    116  H   LIG    1        3.258   3.862  -7.562  0.00  0.00    +0.124 HD
BRANCH 115 117
ATOM    117  C   LIG    1        4.318   3.869  -9.297  0.00  0.00    +0.282 C 
BRANCH 117 118
ATOM    118  S   LIG    1        3.512   5.481  -9.879  0.00  0.00    +0.093 S 
ATOM    119  O   LIG    1        4.509   6.046 -10.795  0.00  0.00    -0.146 OA
ATOM    120  O   LIG    1        2.269   5.049 -10.528  0.00  0.00    -0.146 OA
BRANCH 118 121
ATOM    121  O   LIG    1        3.326   6.248  -8.642  0.00  0.00    -0.253 OA
ATOM    122  H   LIG    1        2.913   7.101  -8.849  0.00  0.00    +0.245 HD
ENDBRANCH 118 121
ENDBRANCH 117 118
ENDBRANCH 115 117
ENDBRANCH 114 115
ENDBRANCH 113 114
ENDBRANCH  13 113
BRANCH   9 123
ATOM    123  C   LIG    1        4.522   4.281  -4.853  0.00  0.00    +0.034 C 
BRANCH 123 124
ATOM    124  C   LIG    1        5.491   5.466  -4.614  0.00  0.00    -0.015 C 
ATOM    125  C   LIG    1        6.962   5.116  -4.919  0.00  0.00    +0.007 C 
ATOM    126  C   LIG    1        5.033   6.720  -5.391  0.00  0.00    +0.007 C 
ENDBRANCH 123 124
ENDBRANCH   9 123
BRANCH   5 127
ATOM    127  C   LIG    1        2.904   5.260  -1.696  0.00  0.00    +0.034 C 
BRANCH 127 128
ATOM    128  C   LIG    1        3.878   6.155  -0.894  0.00  0.00    -0.015 C 
ATOM    129  C   LIG    1        4.014   7.549  -1.545  0.00  0.00    +0.007 C 
ATOM    130  C   LIG    1        3.518   6.260   0.602  0.00  0.00    +0.007 C 
ENDBRANCH 127 128
ENDBRANCH   5 127
TORSDOF 51
