REMARK  Name = DB01265
REMARK                            x       y       z     vdW  Elec       q    Type
REMARK                         _______ _______ _______ _____ _____    ______ ____
ROOT
ATOM      1  O4*   T A  1        2.267  -0.568   0.799  0.00  0.00    -0.348 OA
ATOM      2  C4*   T A  1        3.553  -1.028   0.382  0.00  0.00    +0.175 C 
ATOM      3  C3*   T A  1        3.660  -0.581  -1.088  0.00  0.00    +0.150 C 
ATOM      4  C2*   T A  1        2.210  -0.467  -1.534  0.00  0.00    +0.088 C 
ATOM      5  C1*   T A  1        1.588   0.066  -0.247  0.00  0.00    +0.226 C 
ENDROOT
BRANCH   5   6
ATOM      6  N1    T A  1        0.139  -0.026  -0.085  0.00  0.00    -0.274 N 
ATOM      7  C2    T A  1       -0.445  -1.278  -0.012  0.00  0.00    +0.331 A 
ATOM      8  N3    T A  1       -1.812  -1.249   0.081  0.00  0.00    -0.275 N 
ATOM      9  H3    T A  1       -2.254  -2.155   0.141  0.00  0.00    +0.173 HD
ATOM     10  C4    T A  1       -2.669  -0.187   0.106  0.00  0.00    +0.257 A 
ATOM     11  C5    T A  1       -1.992   1.105   0.016  0.00  0.00    +0.030 A 
ATOM     12  C5M   T A  1       -2.847   2.366   0.025  0.00  0.00    +0.051 C 
ATOM     13  O4    T A  1       -3.886  -0.346   0.196  0.00  0.00    -0.267 OA
ATOM     14  O2    T A  1        0.143  -2.360  -0.020  0.00  0.00    -0.246 OA
ATOM     15  C6    T A  1       -0.643   1.112  -0.075  0.00  0.00    +0.101 A 
ENDBRANCH   5   6
BRANCH   3  16
ATOM     16  O3*   T A  1        4.365   0.640  -1.232  0.00  0.00    -0.389 OA
ATOM     17  H3*   T A  1        3.937   1.306  -0.689  0.00  0.00    +0.210 HD
ENDBRANCH   3  16
BRANCH   2  18
ATOM     18  C5*   T A  1        3.589  -2.552   0.615  0.00  0.00    +0.190 C 
BRANCH  18  19
ATOM     19  O5*   T A  1        4.864  -3.076   0.306  0.00  0.00    -0.392 OA
ATOM     20  H5*   T A  1        4.851  -4.023   0.462  0.00  0.00    +0.210 HD
ENDBRANCH  18  19
ENDBRANCH   2  18
TORSDOF 4
