REMARK  Name = DB01090
REMARK                            x       y       z     vdW  Elec       q    Type
REMARK                         _______ _______ _______ _____ _____    ______ ____
ROOT
ATOM      1  C   LIG    1        1.404  -0.085   0.002  0.00  0.00    -0.004 C 
ENDROOT
BRANCH   1   2
ATOM      2  C   LIG    1       -0.132  -0.029   0.079  0.00  0.00    -0.018 C 
BRANCH   2   3
ATOM      3  C   LIG    1       -0.661   1.422   0.043  0.00  0.00    -0.075 C 
BRANCH   3   4
ATOM      4  N   LIG    1       -2.215   1.517   0.063  0.00  0.00    +0.378 N 
ATOM      5  C   LIG    1       -2.787   0.931   1.382  0.00  0.00    -0.092 C 
ATOM      6  C   LIG    1       -2.663   2.991  -0.099  0.00  0.00    -0.076 C 
ATOM      7  C   LIG    1       -4.087   2.929  -0.665  0.00  0.00    -0.020 C 
ATOM      8  C   LIG    1       -4.225   1.562  -1.339  0.00  0.00    -0.020 C 
ATOM      9  C   LIG    1       -2.872   0.860  -1.175  0.00  0.00    -0.076 C 
ENDBRANCH   3   4
ENDBRANCH   2   3
ENDBRANCH   1   2
BRANCH   1  10
ATOM     10  C   LIG    1        1.959  -1.520   0.051  0.00  0.00    -0.018 C 
BRANCH  10  11
ATOM     11  C   LIG    1        3.506  -1.539  -0.012  0.00  0.00    -0.075 C 
BRANCH  11  12
ATOM     12  N   LIG    1        4.172  -2.951  -0.015  0.00  0.00    +0.378 N 
ATOM     13  C   LIG    1        5.709  -2.718  -0.003  0.00  0.00    -0.092 C 
ATOM     14  C   LIG    1        3.772  -3.860   1.173  0.00  0.00    -0.076 C 
ATOM     15  C   LIG    1        4.129  -5.283   0.727  0.00  0.00    -0.020 C 
ATOM     16  C   LIG    1        4.120  -5.270  -0.805  0.00  0.00    -0.020 C 
ATOM     17  C   LIG    1        3.789  -3.832  -1.228  0.00  0.00    -0.076 C 
ENDBRANCH  11  12
ENDBRANCH  10  11
ENDBRANCH   1  10
TORSDOF 6
