REMARK  Name = DB01026
REMARK                            x       y       z     vdW  Elec       q    Type
REMARK                         _______ _______ _______ _____ _____    ______ ____
ROOT
ATOM      1  C   LIG    1        3.314  -2.829   0.617  0.00  0.00    +0.217 C 
ATOM      2  O   LIG    1        2.103  -2.163   0.434  0.00  0.00    -0.334 OA
ATOM      3  C   LIG    1        1.818  -1.999  -0.941  0.00  0.00    +0.185 C 
ATOM      4  C   LIG    1        3.091  -2.473  -1.644  0.00  0.00    +0.198 C 
ATOM      5  O   LIG    1        4.001  -2.663  -0.583  0.00  0.00    -0.341 OA
ENDROOT
BRANCH   1   9
ATOM      6  C   LIG    1        2.563  -7.078   1.351  0.00  0.00    +0.042 A 
ATOM      7  C   LIG    1        1.511  -6.167   1.347  0.00  0.00    +0.020 A 
ATOM      8  C   LIG    1        1.760  -4.816   1.113  0.00  0.00    +0.012 A 
ATOM      9  C   LIG    1        3.064  -4.348   0.883  0.00  0.00    +0.031 A 
ATOM     10  C   LIG    1        4.120  -5.282   0.885  0.00  0.00    +0.051 A 
ATOM     11 CL   LIG    1        5.762  -4.822   0.585  0.00  0.00    -0.083 Cl
ATOM     12  C   LIG    1        3.863  -6.635   1.120  0.00  0.00    +0.040 A 
ATOM     13 CL   LIG    1        2.259  -8.752   1.639  0.00  0.00    -0.083 Cl
ENDBRANCH   1   9
BRANCH   1  14
ATOM     14  C   LIG    1        4.048  -2.109   1.761  0.00  0.00    +0.193 C 
BRANCH  14  15
ATOM     15  N   LIG    1        4.160  -0.672   1.530  0.00  0.00    -0.331 N 
ATOM     16  C   LIG    1        5.086  -0.012   0.758  0.00  0.00    +0.199 A 
ATOM     17  N   LIG    1        4.899   1.286   0.711  0.00  0.00    -0.244 NA
ATOM     18  C   LIG    1        3.830   1.496   1.460  0.00  0.00    +0.130 A 
ATOM     19  C   LIG    1        3.329   0.318   1.990  0.00  0.00    +0.107 A 
ENDBRANCH  14  15
ENDBRANCH   1  14
BRANCH   3  20
ATOM     20  C   LIG    1        1.502  -0.512  -1.177  0.00  0.00    +0.263 C 
BRANCH  20  21
ATOM     21  O   LIG    1        0.330  -0.150  -0.449  0.00  0.00    -0.489 OA
BRANCH  21  22
ATOM     22  C   LIG    1       -0.049   1.178  -0.398  0.00  0.00    +0.121 A 
ATOM     23  C   LIG    1        0.626   2.221  -1.047  0.00  0.00    +0.047 A 
ATOM     24  C   LIG    1        0.164   3.530  -0.943  0.00  0.00    +0.027 A 
ATOM     25  C   LIG    1       -0.977   3.844  -0.186  0.00  0.00    +0.030 A 
ATOM     26  C   LIG    1       -1.646   2.785   0.450  0.00  0.00    +0.027 A 
ATOM     27  C   LIG    1       -1.185   1.476   0.349  0.00  0.00    +0.047 A 
BRANCH  25  28
ATOM     28  N   LIG    1       -1.465   5.156  -0.107  0.00  0.00    -0.327 N 
ATOM     29  C   LIG    1       -2.115   5.652   1.124  0.00  0.00    +0.124 C 
ATOM     30  C   LIG    1       -2.997   6.910   0.970  0.00  0.00    +0.126 C 
ATOM     31  N   LIG    1       -2.238   7.937   0.248  0.00  0.00    -0.299 N 
ATOM     32  C   LIG    1       -1.906   9.114   0.842  0.00  0.00    +0.213 C 
ATOM     33  O   LIG    1       -2.235   9.402   1.994  0.00  0.00    -0.276 OA
ATOM     34  C   LIG    1       -1.171  10.188   0.031  0.00  0.00    +0.109 C 
ATOM     35  C   LIG    1       -1.735   7.526  -1.067  0.00  0.00    +0.126 C 
ATOM     36  C   LIG    1       -0.878   6.251  -0.905  0.00  0.00    +0.124 C 
ENDBRANCH  25  28
ENDBRANCH  21  22
ENDBRANCH  20  21
ENDBRANCH   3  20
TORSDOF 7
