REMARK  Name = DB01128
REMARK                            x       y       z     vdW  Elec       q    Type
REMARK                         _______ _______ _______ _____ _____    ______ ____
ROOT
ATOM      1  C   LIG    1        1.450  -0.710   0.189  0.00  0.00    +0.250 C 
ATOM      2  N   LIG    1        2.005   0.494   0.466  0.00  0.00    -0.283 N 
ATOM      3  H   LIG    1        1.382   1.286   0.400  0.00  0.00    +0.155 HD
ATOM      4  O   LIG    1        2.044  -1.783   0.315  0.00  0.00    -0.272 OA
ENDROOT
BRANCH   2   5
ATOM      5  C   LIG    1        3.311   0.818   0.881  0.00  0.00    +0.034 A 
ATOM      6  C   LIG    1        3.506   2.130   1.312  0.00  0.00    +0.024 A 
ATOM      7  C   LIG    1        4.760   2.556   1.739  0.00  0.00    +0.021 A 
ATOM      8  C   LIG    1        5.849   1.681   1.736  0.00  0.00    +0.064 A 
ATOM      9  C   LIG    1        5.680   0.350   1.291  0.00  0.00    +0.074 A 
ATOM     10  C   LIG    1        4.406  -0.061   0.865  0.00  0.00    +0.037 A 
BRANCH   9  11
ATOM     11  C   LIG    1        6.845  -0.657   1.254  0.00  0.00    +0.419 C 
ATOM     12  F   LIG    1        7.343  -0.821   2.481  0.00  0.00    -0.166 F 
ATOM     13  F   LIG    1        6.481  -1.859   0.804  0.00  0.00    -0.166 F 
ATOM     14  F   LIG    1        7.812  -0.204   0.455  0.00  0.00    -0.166 F 
ENDBRANCH   9  11
BRANCH   8  15
ATOM     15  C   LIG    1        7.133   2.200   2.200  0.00  0.00    +0.100 C 
ATOM     16  N   LIG    1        8.150   2.611   2.567  0.00  0.00    -0.191 NA
ENDBRANCH   8  15
ENDBRANCH   2   5
BRANCH   1  17
ATOM     17  C   LIG    1       -0.035  -0.742  -0.288  0.00  0.00    +0.158 C 
ATOM     18  C   LIG    1       -0.908  -1.465   0.765  0.00  0.00    +0.053 C 
BRANCH  17  19
ATOM     19  O   LIG    1       -0.578   0.570  -0.361  0.00  0.00    -0.378 OA
ATOM     20  H   LIG    1       -1.487   0.507  -0.665  0.00  0.00    +0.211 HD
ENDBRANCH  17  19
BRANCH  17  21
ATOM     21  C   LIG    1       -0.181  -1.455  -1.669  0.00  0.00    +0.215 C 
BRANCH  21  22
ATOM     22  S   LIG    1        0.233  -0.373  -3.182  0.00  0.00    +0.000 S 
ATOM     23  O   LIG    1        0.266  -1.245  -4.361  0.00  0.00    -0.169 OA
ATOM     24  O   LIG    1        1.387   0.476  -2.865  0.00  0.00    -0.169 OA
BRANCH  22  25
ATOM     25  C   LIG    1       -1.197   0.688  -3.389  0.00  0.00    +0.088 A 
ATOM     26  C   LIG    1       -1.100   2.064  -3.161  0.00  0.00    +0.030 A 
ATOM     27  C   LIG    1       -2.221   2.872  -3.328  0.00  0.00    +0.040 A 
ATOM     28  C   LIG    1       -3.431   2.304  -3.722  0.00  0.00    +0.124 A 
ATOM     29  C   LIG    1       -3.530   0.933  -3.952  0.00  0.00    +0.040 A 
ATOM     30  F   LIG    1       -4.519   3.090  -3.883  0.00  0.00    -0.205 F 
ATOM     31  C   LIG    1       -2.410   0.122  -3.786  0.00  0.00    +0.030 A 
ENDBRANCH  22  25
ENDBRANCH  21  22
ENDBRANCH  17  21
ENDBRANCH   1  17
TORSDOF 8
