REMARK  Name = DB01248
REMARK                            x       y       z     vdW  Elec       q    Type
REMARK                         _______ _______ _______ _____ _____    ______ ____
ROOT
ATOM      1  C   LIG    1        0.563   2.842  -4.987  0.00  0.00    +0.167 C 
ATOM      2  O   LIG    1        0.013   4.125  -5.523  0.00  0.00    -0.368 OA
ATOM      3  C   LIG    1       -0.522   4.493  -4.181  0.00  0.00    +0.211 C 
ATOM      4  C   LIG    1        0.067   1.655  -5.833  0.00  0.00    +0.068 C 
ATOM      5  C   LIG    1       -0.965   0.714  -5.181  0.00  0.00    +0.131 C 
ATOM      6  C   LIG    1       -2.003   1.420  -4.234  0.00  0.00    +0.065 C 
ATOM      7  C   LIG    1       -2.867   2.428  -5.067  0.00  0.00    +0.022 C 
ATOM      8  C   LIG    1       -1.209   2.169  -3.064  0.00  0.00    +0.097 C 
ATOM      9  C   LIG    1       -2.086   2.677  -1.818  0.00  0.00    +0.217 C 
ATOM     10  C   LIG    1       -2.082   1.837  -0.436  0.00  0.00    +0.116 C 
ATOM     11  C   LIG    1       -2.824   0.449  -0.540  0.00  0.00    +0.022 C 
ATOM     12  C   LIG    1       -2.899  -0.275   0.854  0.00  0.00    +0.018 C 
ATOM     13  C   LIG    1       -4.315   0.634  -0.989  0.00  0.00    +0.018 C 
ATOM     14  C   LIG    1       -1.906  -0.402  -1.478  0.00  0.00    -0.023 C 
ATOM     15  C   LIG    1       -0.591  -0.568  -1.133  0.00  0.00    -0.030 C 
ATOM     16  C   LIG    1        0.394  -1.454  -1.898  0.00  0.00    +0.043 C 
ATOM     17  C   LIG    1       -0.024   0.225   0.060  0.00  0.00    +0.205 C 
ATOM     18  C   LIG    1       -2.427  -0.884  -2.841  0.00  0.00    +0.208 C 
ATOM     19  C   LIG    1       -0.605   1.673   0.078  0.00  0.00    +0.088 C 
ATOM     20  C   LIG    1       -2.971   0.273  -3.730  0.00  0.00    +0.174 C 
ATOM     21  O   LIG    1       -4.157   0.250  -4.082  0.00  0.00    -0.294 OA
ATOM     22  C   LIG    1       -0.064   3.134  -3.595  0.00  0.00    +0.170 C 
ENDROOT
BRANCH   5  23
ATOM     23  O   LIG    1       -1.544  -0.062  -6.224  0.00  0.00    -0.391 OA
ATOM     24  H   LIG    1       -0.842  -0.523  -6.689  0.00  0.00    +0.210 HD
ENDBRANCH   5  23
BRANCH  10  25
ATOM     25  O   LIG    1       -2.771   2.679   0.485  0.00  0.00    -0.384 OA
ATOM     26  H   LIG    1       -2.763   2.258   1.347  0.00  0.00    +0.210 HD
ENDBRANCH  10  25
BRANCH  18  27
ATOM     27  O   LIG    1       -3.417  -1.876  -2.626  0.00  0.00    -0.380 OA
ATOM     28  H   LIG    1       -3.684  -2.231  -3.477  0.00  0.00    +0.211 HD
ENDBRANCH  18  27
BRANCH   9  29
ATOM     29  O   LIG    1       -1.706   4.042  -1.552  0.00  0.00    -0.454 OA
BRANCH  29  30
ATOM     30  C   LIG    1       -2.604   5.070  -1.476  0.00  0.00    +0.340 C 
ATOM     31  O   LIG    1       -3.821   4.923  -1.614  0.00  0.00    -0.245 OA
BRANCH  30  32
ATOM     32  C   LIG    1       -1.961   6.396  -1.192  0.00  0.00    +0.059 A 
ATOM     33  C   LIG    1       -2.772   7.525  -1.004  0.00  0.00    +0.015 A 
ATOM     34  C   LIG    1       -2.203   8.768  -0.739  0.00  0.00    +0.001 A 
ATOM     35  C   LIG    1       -0.819   8.892  -0.662  0.00  0.00    +0.000 A 
ATOM     36  C   LIG    1        0.002   7.784  -0.851  0.00  0.00    +0.001 A 
ATOM     37  C   LIG    1       -0.566   6.541  -1.115  0.00  0.00    +0.015 A 
ENDBRANCH  30  32
ENDBRANCH  29  30
ENDBRANCH   9  29
BRANCH  17  38
ATOM     38  O   LIG    1        1.403   0.345   0.062  0.00  0.00    -0.455 OA
BRANCH  38  39
ATOM     39  C   LIG    1        2.192  -0.455   0.824  0.00  0.00    +0.339 C 
ATOM     40  O   LIG    1        1.821  -1.480   1.403  0.00  0.00    -0.248 OA
BRANCH  39  41
ATOM     41  C   LIG    1        3.632   0.099   0.935  0.00  0.00    +0.247 C 
BRANCH  41  42
ATOM     42  O   LIG    1        4.444  -0.835   1.634  0.00  0.00    -0.379 OA
ATOM     43  H   LIG    1        4.134  -0.894   2.540  0.00  0.00    +0.211 HD
ENDBRANCH  41  42
BRANCH  41  44
ATOM     44  C   LIG    1        3.681   1.501   1.627  0.00  0.00    +0.146 C 
BRANCH  44  45
ATOM     45  C   LIG    1        5.072   2.165   1.532  0.00  0.00    -0.024 A 
ATOM     46  C   LIG    1        5.682   2.295   0.277  0.00  0.00    +0.005 A 
ATOM     47  C   LIG    1        6.931   2.897   0.152  0.00  0.00    +0.000 A 
ATOM     48  C   LIG    1        7.581   3.377   1.285  0.00  0.00    +0.000 A 
ATOM     49  C   LIG    1        6.991   3.262   2.540  0.00  0.00    +0.000 A 
ATOM     50  C   LIG    1        5.742   2.659   2.664  0.00  0.00    +0.005 A 
ENDBRANCH  44  45
BRANCH  44  51
ATOM     51  N   LIG    1        3.134   1.442   3.003  0.00  0.00    -0.271 N 
ATOM     52  H   LIG    1        3.485   0.699   3.589  0.00  0.00    +0.153 HD
ATOM     53  C   LIG    1        2.314   2.389   3.615  0.00  0.00    +0.401 C 
ATOM     54  O   LIG    1        2.032   2.361   4.812  0.00  0.00    -0.226 OA
BRANCH  53  55
ATOM     55  O   LIG    1        1.850   3.324   2.730  0.00  0.00    -0.445 OA
BRANCH  55  56
ATOM     56  C   LIG    1        0.994   4.434   3.063  0.00  0.00    +0.107 C 
ATOM     57  C   LIG    1        0.721   5.133   1.717  0.00  0.00    +0.055 C 
ATOM     58  C   LIG    1       -0.354   3.969   3.670  0.00  0.00    +0.055 C 
ATOM     59  C   LIG    1        1.718   5.418   4.014  0.00  0.00    +0.055 C 
ENDBRANCH  55  56
ENDBRANCH  53  55
ENDBRANCH  44  51
ENDBRANCH  41  44
ENDBRANCH  39  41
ENDBRANCH  38  39
ENDBRANCH  17  38
BRANCH  22  60
ATOM     60  O   LIG    1        0.927   3.226  -2.546  0.00  0.00    -0.453 OA
BRANCH  60  61
ATOM     61  C   LIG    1        2.055   3.989  -2.545  0.00  0.00    +0.305 C 
ATOM     62  C   LIG    1        2.866   3.788  -1.275  0.00  0.00    +0.136 C 
ATOM     63  O   LIG    1        2.435   4.760  -3.425  0.00  0.00    -0.251 OA
ENDBRANCH  60  61
ENDBRANCH  22  60
TORSDOF 17
