REMARK  Name = DB01260
REMARK                            x       y       z     vdW  Elec       q    Type
REMARK                         _______ _______ _______ _____ _____    ______ ____
ROOT
ATOM      1  C   LIG    1        0.277  -0.170  -0.023  0.00  0.00    +0.164 C 
ATOM      2  C   LIG    1       -0.307  -0.734  -1.350  0.00  0.00    +0.162 C 
ATOM      3  O   LIG    1       -0.891   0.383  -1.996  0.00  0.00    -0.343 OA
ATOM      4  C   LIG    1       -0.795   1.519  -1.207  0.00  0.00    +0.166 C 
ATOM      5  C   LIG    1        0.234   2.470  -1.816  0.00  0.00    +0.074 C 
ATOM      6  C   LIG    1       -2.177   2.140  -1.067  0.00  0.00    +0.074 C 
ATOM      7  C   LIG    1       -1.389  -1.768  -0.966  0.00  0.00    +0.039 C 
ATOM      8  C   LIG    1       -1.609  -1.516   0.532  0.00  0.00    +0.004 C 
ATOM      9  C   LIG    1       -2.395  -2.544   1.394  0.00  0.00    -0.000 C 
ATOM     10  C   LIG    1       -2.561  -1.986   2.854  0.00  0.00    +0.035 C 
ATOM     11  C   LIG    1       -1.203  -1.485   3.474  0.00  0.00    +0.120 C 
ATOM     12  C   LIG    1       -0.422  -0.561   2.496  0.00  0.00    +0.042 C 
ATOM     13  C   LIG    1       -3.427  -2.941   3.770  0.00  0.00    +0.013 C 
ATOM     14  C   LIG    1       -2.778  -4.319   4.080  0.00  0.00    +0.020 C 
ATOM     15  C   LIG    1       -3.740  -2.284   5.124  0.00  0.00    -0.012 C 
ATOM     16  C   LIG    1       -4.973  -2.013   5.599  0.00  0.00    +0.047 C 
ATOM     17  C   LIG    1       -6.206  -2.308   4.876  0.00  0.00    +0.179 C 
ATOM     18  O   LIG    1       -7.325  -2.072   5.328  0.00  0.00    -0.288 OA
ATOM     19  C   LIG    1       -5.983  -2.905   3.559  0.00  0.00    +0.051 C 
ATOM     20  C   LIG    1       -4.771  -3.200   3.031  0.00  0.00    -0.056 C 
ATOM     21  C   LIG    1       -4.622  -3.793   1.630  0.00  0.00    +0.032 C 
ATOM     22  C   LIG    1       -3.783  -2.832   0.776  0.00  0.00    +0.008 C 
ATOM     23  O   LIG    1       -0.374   1.094   0.051  0.00  0.00    -0.332 OA
ATOM     24  C   LIG    1       -0.203  -1.182   1.084  0.00  0.00    +0.012 C 
ATOM     25  C   LIG    1        0.726  -2.445   1.147  0.00  0.00    +0.015 C 
ENDROOT
BRANCH   1  26
ATOM     26  C   LIG    1        1.819   0.052  -0.035  0.00  0.00    +0.193 C 
ATOM     27  O   LIG    1        2.555  -0.602  -0.779  0.00  0.00    -0.292 OA
BRANCH  26  28
ATOM     28  C   LIG    1        2.371   1.141   0.904  0.00  0.00    +0.233 C 
BRANCH  28  29
ATOM     29  O   LIG    1        3.779   1.242   0.785  0.00  0.00    -0.387 OA
ATOM     30  H   LIG    1        4.087   1.944   1.363  0.00  0.00    +0.210 HD
ENDBRANCH  28  29
ENDBRANCH  26  28
ENDBRANCH   1  26
BRANCH  11  31
ATOM     31  O   LIG    1       -0.363  -2.512   3.960  0.00  0.00    -0.391 OA
ATOM     32  H   LIG    1       -0.846  -3.013   4.621  0.00  0.00    +0.210 HD
ENDBRANCH  11  31
TORSDOF 4
