REMARK  Name = DB01092
REMARK                            x       y       z     vdW  Elec       q    Type
REMARK                         _______ _______ _______ _____ _____    ______ ____
ROOT
ATOM      1  C   LIG    1        5.605  -4.177  -1.485  0.00  0.00    +0.075 C 
ATOM      2  C   LIG    1        6.442  -2.883  -1.624  0.00  0.00    +0.036 C 
ATOM      3  C   LIG    1        7.807  -3.159  -0.977  0.00  0.00    +0.011 C 
ATOM      4  C   LIG    1        7.742  -4.565  -0.335  0.00  0.00    +0.027 C 
ATOM      5  C   LIG    1        6.207  -4.886  -0.225  0.00  0.00    +0.006 C 
ATOM      6  C   LIG    1        5.883  -6.411  -0.147  0.00  0.00    +0.015 C 
ATOM      7  C   LIG    1        5.650  -4.184   1.050  0.00  0.00    +0.041 C 
ATOM      8  C   LIG    1        4.111  -4.132   1.112  0.00  0.00    +0.119 C 
ATOM      9  C   LIG    1        3.501  -3.339  -0.100  0.00  0.00    +0.037 C 
ATOM     10  C   LIG    1        1.900  -3.128  -0.111  0.00  0.00    +0.054 C 
ATOM     11  C   LIG    1        1.361  -2.295   1.135  0.00  0.00    +0.128 C 
ATOM     12  C   LIG    1        1.866  -0.831   1.172  0.00  0.00    +0.063 C 
ATOM     13  C   LIG    1        1.516  -0.037  -0.104  0.00  0.00    +0.127 C 
ATOM     14  C   LIG    1        2.007  -0.827  -1.336  0.00  0.00    +0.067 C 
ATOM     15  C   LIG    1        1.501  -2.308  -1.428  0.00  0.00    +0.079 C 
ATOM     16  C   LIG    1        2.037  -2.993  -2.710  0.00  0.00    +0.036 C 
ATOM     17  C   LIG    1        3.556  -3.176  -2.668  0.00  0.00    +0.009 C 
ATOM     18  C   LIG    1        4.037  -3.992  -1.435  0.00  0.00    +0.028 C 
ENDROOT
BRANCH   4  19
ATOM     19  C   LIG    1        8.582  -5.602  -1.090  0.00  0.00    -0.022 C 
ATOM     20  C   LIG    1        8.974  -5.666  -2.371  0.00  0.00    +0.094 C 
ATOM     21  C   LIG    1        9.784  -6.846  -2.571  0.00  0.00    +0.332 C 
ATOM     22  O   LIG    1       10.301  -7.219  -3.622  0.00  0.00    -0.246 OA
ATOM     23  O   LIG    1        9.891  -7.482  -1.401  0.00  0.00    -0.457 OA
ATOM     24  C   LIG    1        9.188  -6.793  -0.391  0.00  0.00    +0.264 C 
ENDBRANCH   4  19
BRANCH   1  25
ATOM     25  O   LIG    1        5.833  -4.990  -2.633  0.00  0.00    -0.388 OA
ATOM     26  H   LIG    1        5.396  -5.834  -2.499  0.00  0.00    +0.210 HD
ENDBRANCH   1  25
BRANCH  11  27
ATOM     27  O   LIG    1       -0.054  -2.295   1.251  0.00  0.00    -0.391 OA
ATOM     28  H   LIG    1       -0.420  -1.876   0.467  0.00  0.00    +0.210 HD
ENDBRANCH  11  27
BRANCH  15  29
ATOM     29  O   LIG    1        0.094  -2.234  -1.617  0.00  0.00    -0.388 OA
ATOM     30  H   LIG    1       -0.080  -1.727  -2.414  0.00  0.00    +0.210 HD
ENDBRANCH  15  29
BRANCH   8  31
ATOM     31  O   LIG    1        3.772  -3.659   2.397  0.00  0.00    -0.391 OA
ATOM     32  H   LIG    1        4.014  -2.732   2.457  0.00  0.00    +0.210 HD
ENDBRANCH   8  31
BRANCH  10  33
ATOM     33  C   LIG    1        1.168  -4.528  -0.145  0.00  0.00    +0.168 C 
BRANCH  33  34
ATOM     34  O   LIG    1        1.235  -5.256   1.065  0.00  0.00    -0.394 OA
ATOM     35  H   LIG    1        0.705  -6.051   0.973  0.00  0.00    +0.209 HD
ENDBRANCH  33  34
ENDBRANCH  10  33
BRANCH  13  36
ATOM     36  O   LIG    1        0.109   0.189  -0.180  0.00  0.00    -0.345 OA
BRANCH  36  37
ATOM     37  C   LIG    1       -0.333   1.516  -0.247  0.00  0.00    +0.282 C 
ATOM     38  C   LIG    1       -0.096   2.095  -1.656  0.00  0.00    +0.201 C 
ATOM     39  C   LIG    1       -1.009   1.381  -2.679  0.00  0.00    +0.179 C 
ATOM     40  C   LIG    1       -2.482   1.394  -2.215  0.00  0.00    +0.174 C 
ATOM     41  C   LIG    1       -2.588   0.897  -0.750  0.00  0.00    +0.149 C 
ATOM     42  C   LIG    1       -4.004   1.052  -0.167  0.00  0.00    +0.041 C 
ATOM     43  O   LIG    1       -1.689   1.612   0.112  0.00  0.00    -0.343 OA
BRANCH  40  44
ATOM     44  O   LIG    1       -3.295   0.619  -3.082  0.00  0.00    -0.387 OA
ATOM     45  H   LIG    1       -3.270   1.016  -3.957  0.00  0.00    +0.210 HD
ENDBRANCH  40  44
BRANCH  39  46
ATOM     46  O   LIG    1       -0.845   1.905  -3.987  0.00  0.00    -0.386 OA
ATOM     47  H   LIG    1       -1.091   2.833  -3.972  0.00  0.00    +0.210 HD
ENDBRANCH  39  46
BRANCH  38  48
ATOM     48  O   LIG    1       -0.281   3.500  -1.650  0.00  0.00    -0.384 OA
ATOM     49  H   LIG    1        0.393   3.896  -1.091  0.00  0.00    +0.210 HD
ENDBRANCH  38  48
ENDBRANCH  36  37
ENDBRANCH  13  36
TORSDOF 12
