REMARK  Name = DB01280
REMARK                            x       y       z     vdW  Elec       q    Type
REMARK                         _______ _______ _______ _____ _____    ______ ____
ROOT
ATOM      1  N   LIG    1        0.111  -0.049  -0.126  0.00  0.00    -0.285 N 
ATOM      2  C   LIG    1       -0.753  -1.126  -0.183  0.00  0.00    +0.203 A 
ATOM      3  N   LIG    1       -2.027  -0.826  -0.126  0.00  0.00    -0.229 NA
ATOM      4  C   LIG    1       -2.033   0.539  -0.049  0.00  0.00    +0.169 A 
ATOM      5  C   LIG    1       -3.069   1.482   0.031  0.00  0.00    +0.247 A 
ATOM      6  N   LIG    1       -2.797   2.818   0.092  0.00  0.00    -0.178 NA
ATOM      7  C   LIG    1       -1.488   3.183   0.074  0.00  0.00    +0.218 A 
ATOM      8  N   LIG    1       -0.405   2.363   0.005  0.00  0.00    -0.195 NA
ATOM      9  C   LIG    1       -0.717   1.060  -0.057  0.00  0.00    +0.171 A 
ENDROOT
BRANCH   1  14
ATOM     10  O4* LIG    1        2.120   0.772   0.734  0.00  0.00    -0.346 OA
ATOM     11  C4* LIG    1        3.418   1.203   0.337  0.00  0.00    +0.177 C 
ATOM     12  C3* LIG    1        3.601   0.650  -1.091  0.00  0.00    +0.178 C 
ATOM     13  C2* LIG    1        2.189   0.290  -1.565  0.00  0.00    +0.195 C 
ATOM     14  C1* LIG    1        1.559  -0.081  -0.216  0.00  0.00    +0.253 C 
BRANCH  13  15
ATOM     15  O2* LIG    1        1.527   1.351  -2.232  0.00  0.00    -0.385 OA
ATOM     16  H2* LIG    1        0.692   1.026  -2.575  0.00  0.00    +0.210 HD
ENDBRANCH  13  15
BRANCH  12  17
ATOM     17  O3* LIG    1        4.465  -0.474  -1.117  0.00  0.00    -0.386 OA
ATOM     18  H3* LIG    1        4.124  -1.136  -0.511  0.00  0.00    +0.210 HD
ENDBRANCH  12  17
BRANCH  11  19
ATOM     19  C5* LIG    1        3.528   2.736   0.512  0.00  0.00    +0.190 C 
BRANCH  19  20
ATOM     20  O5* LIG    1        2.720   3.466  -0.389  0.00  0.00    -0.392 OA
ATOM     21  H5* LIG    1        2.819   4.402  -0.201  0.00  0.00    +0.210 HD
ENDBRANCH  19  20
ENDBRANCH  11  19
ENDBRANCH   1  14
BRANCH   7  22
ATOM     22  N   LIG    1       -1.226   4.546   0.130  0.00  0.00    -0.327 N 
ATOM     23  H   LIG    1       -0.268   4.864   0.098  0.00  0.00    +0.145 HD
ATOM     24  H   LIG    1       -1.997   5.197   0.164  0.00  0.00    +0.145 HD
ENDBRANCH   7  22
BRANCH   5  25
ATOM     25  O   LIG    1       -4.369   1.013   0.041  0.00  0.00    -0.478 OA
ATOM     26  C   LIG    1       -5.437   1.952   0.134  0.00  0.00    +0.279 C 
ENDBRANCH   5  25
TORSDOF 7
