REMARK  Name = DB01222
REMARK                            x       y       z     vdW  Elec       q    Type
REMARK                         _______ _______ _______ _____ _____    ______ ____
ROOT
ATOM      1  C   LIG    1        0.432  -0.334   0.128  0.00  0.00    +0.164 C 
ATOM      2  O   LIG    1       -0.137   0.964   0.245  0.00  0.00    -0.334 OA
ATOM      3  C   LIG    1       -0.510   1.460  -1.001  0.00  0.00    +0.252 C 
ATOM      4  O   LIG    1       -0.639   0.370  -1.849  0.00  0.00    -0.345 OA
ATOM      5  C   LIG    1       -0.168  -0.810  -1.225  0.00  0.00    +0.161 C 
ATOM      6  C   LIG    1       -1.334  -1.767  -0.894  0.00  0.00    +0.039 C 
ATOM      7  C   LIG    1       -1.548  -1.564   0.613  0.00  0.00    +0.004 C 
ATOM      8  C   LIG    1       -2.410  -2.572   1.424  0.00  0.00    -0.000 C 
ATOM      9  C   LIG    1       -3.814  -2.724   0.793  0.00  0.00    +0.008 C 
ATOM     10  C   LIG    1       -4.726  -3.663   1.596  0.00  0.00    +0.032 C 
ATOM     11  C   LIG    1       -4.832  -3.138   3.028  0.00  0.00    -0.056 C 
ATOM     12  C   LIG    1       -6.019  -2.783   3.574  0.00  0.00    +0.051 C 
ATOM     13  C   LIG    1       -6.199  -2.242   4.922  0.00  0.00    +0.179 C 
ATOM     14  O   LIG    1       -7.297  -1.948   5.389  0.00  0.00    -0.288 OA
ATOM     15  C   LIG    1       -4.948  -2.080   5.657  0.00  0.00    +0.047 C 
ATOM     16  C   LIG    1       -3.739  -2.415   5.164  0.00  0.00    -0.012 C 
ATOM     17  C   LIG    1       -3.473  -3.017   3.775  0.00  0.00    +0.013 C 
ATOM     18  C   LIG    1       -2.925  -4.453   4.008  0.00  0.00    +0.020 C 
ATOM     19  C   LIG    1       -2.541  -2.078   2.910  0.00  0.00    +0.035 C 
ATOM     20  C   LIG    1       -1.155  -1.700   3.556  0.00  0.00    +0.120 C 
ATOM     21  C   LIG    1       -0.309  -0.787   2.624  0.00  0.00    +0.042 C 
ATOM     22  C   LIG    1       -0.125  -1.357   1.186  0.00  0.00    +0.012 C 
ATOM     23  C   LIG    1        0.712  -2.684   1.194  0.00  0.00    +0.015 C 
ENDROOT
BRANCH   1  24
ATOM     24  C   LIG    1        1.986  -0.209   0.139  0.00  0.00    +0.193 C 
ATOM     25  O   LIG    1        2.689  -0.888  -0.614  0.00  0.00    -0.292 OA
BRANCH  24  26
ATOM     26  C   LIG    1        2.592   0.818   1.114  0.00  0.00    +0.233 C 
BRANCH  26  27
ATOM     27  O   LIG    1        4.005   0.830   1.017  0.00  0.00    -0.387 OA
ATOM     28  H   LIG    1        4.348   1.500   1.613  0.00  0.00    +0.210 HD
ENDBRANCH  26  27
ENDBRANCH  24  26
ENDBRANCH   1  24
BRANCH  20  29
ATOM     29  O   LIG    1       -0.389  -2.804   3.995  0.00  0.00    -0.391 OA
ATOM     30  H   LIG    1       -0.911  -3.305   4.627  0.00  0.00    +0.210 HD
ENDBRANCH  20  29
BRANCH   3  31
ATOM     31  C   LIG    1        0.544   2.428  -1.539  0.00  0.00    +0.061 C 
BRANCH  31  32
ATOM     32  C   LIG    1        0.113   3.083  -2.864  0.00  0.00    +0.002 C 
ATOM     33  C   LIG    1        1.155   4.074  -3.401  0.00  0.00    +0.004 C 
ENDBRANCH  31  32
ENDBRANCH   3  31
TORSDOF 6
