REMARK  Name = DB01028
REMARK                            x       y       z     vdW  Elec       q    Type
REMARK                         _______ _______ _______ _____ _____    ______ ____
ROOT
ATOM      1  C   LIG    1        1.420   0.010   0.000  0.00  0.00    +0.387 C 
ATOM      2  F   LIG    1        1.875   0.657   1.077  0.00  0.00    -0.172 F 
ATOM      3  F   LIG    1        1.875   0.657  -1.077  0.00  0.00    -0.172 F 
ENDROOT
BRANCH   1   5
ATOM      4 CL   LIG    1        1.365  -2.316  -1.460  0.00  0.00    -0.095 Cl
ATOM      5  C   LIG    1        1.917  -1.449   0.000  0.00  0.00    +0.270 C 
ATOM      6 CL   LIG    1        1.365  -2.316   1.460  0.00  0.00    -0.095 Cl
ENDBRANCH   1   5
BRANCH   1   7
ATOM      7  O   LIG    1       -0.009   0.009   0.000  0.00  0.00    -0.321 OA
ATOM      8  C   LIG    1       -0.626   1.292   0.000  0.00  0.00    +0.200 C 
ENDBRANCH   1   7
TORSDOF 2
