REMARK  Name = DB01595
REMARK                            x       y       z     vdW  Elec       q    Type
REMARK                         _______ _______ _______ _____ _____    ______ ____
ROOT
ATOM      1  O   LIG    1        7.766  -0.521   0.161  0.00  0.00    -0.273 OA
ATOM      2  C   LIG    1        6.580  -0.720  -0.092  0.00  0.00    +0.239 C 
ATOM      3  C   LIG    1        6.115  -1.836  -1.053  0.00  0.00    +0.238 C 
ATOM      4  N   LIG    1        5.318  -2.869  -0.408  0.00  0.00    -0.273 NA
ATOM      5  C   LIG    1        4.144  -2.594   0.034  0.00  0.00    +0.075 C 
ATOM      6  C   LIG    1        3.497  -1.247  -0.047  0.00  0.00    +0.024 A 
ATOM      7  C   LIG    1        2.126  -1.182  -0.355  0.00  0.00    +0.044 A 
ATOM      8  C   LIG    1        1.423   0.028  -0.403  0.00  0.00    +0.122 A 
ATOM      9  C   LIG    1        2.123   1.208  -0.143  0.00  0.00    +0.034 A 
ATOM     10  C   LIG    1        3.482   1.175   0.145  0.00  0.00    +0.026 A 
ATOM     11  C   LIG    1        4.188  -0.030   0.202  0.00  0.00    +0.043 A 
ATOM     12  N   LIG    1        5.578   0.027   0.415  0.00  0.00    -0.283 N 
ATOM     13  H   LIG    1        5.900   0.806   0.970  0.00  0.00    +0.155 HD
ENDROOT
BRANCH   5  14
ATOM     14  C   LIG    1        3.372  -3.678   0.687  0.00  0.00    +0.001 A 
ATOM     15  C   LIG    1        3.371  -4.974   0.148  0.00  0.00    +0.010 A 
ATOM     16  C   LIG    1        2.648  -5.992   0.764  0.00  0.00    +0.001 A 
ATOM     17  C   LIG    1        1.925  -5.722   1.923  0.00  0.00    +0.000 A 
ATOM     18  C   LIG    1        1.921  -4.443   2.474  0.00  0.00    +0.001 A 
ATOM     19  C   LIG    1        2.644  -3.424   1.860  0.00  0.00    +0.010 A 
ENDBRANCH   5  14
BRANCH   8  20
ATOM     20  N   LIG    1       -0.026   0.057  -0.720  0.00  0.00    +0.006 N 
ATOM     21  O   LIG    1       -0.602   1.142  -0.738  0.00  0.00    -0.130 OA
BRANCH  20  22
ATOM     22  O   LIG    1       -0.600  -1.004  -0.951  0.00  0.00    -0.396 OA
ATOM     23  H   LIG    1       -1.515  -1.007  -1.153  0.00  0.00    +0.329 HD
ENDBRANCH  20  22
ENDBRANCH   8  20
TORSDOF 3
