REMARK  Name = DB01218
REMARK                            x       y       z     vdW  Elec       q    Type
REMARK                         _______ _______ _______ _____ _____    ______ ____
ROOT
ATOM      1 CL   LIG    1        3.942  -5.064   3.957  0.00  0.00    -0.083 Cl
ATOM      2  C   LIG    1        4.403  -5.754   2.437  0.00  0.00    +0.050 A 
ATOM      3  C   LIG    1        4.832  -7.076   2.427  0.00  0.00    +0.040 A 
ATOM      4  C   LIG    1        5.216  -7.689   1.245  0.00  0.00    +0.043 A 
ATOM      5  C   LIG    1        5.177  -6.990   0.044  0.00  0.00    +0.029 A 
ATOM      6  C   LIG    1        4.745  -5.627  -0.009  0.00  0.00    -0.007 A 
ATOM      7  C   LIG    1        4.688  -4.886  -1.231  0.00  0.00    -0.009 A 
ATOM      8  C   LIG    1        5.056  -5.472  -2.485  0.00  0.00    +0.021 A 
ATOM      9  C   LIG    1        4.985  -4.755  -3.680  0.00  0.00    +0.055 A 
ATOM     10  C   LIG    1        4.542  -3.438  -3.658  0.00  0.00    +0.013 A 
ATOM     11  C   LIG    1        4.179  -2.827  -2.467  0.00  0.00    +0.009 A 
ATOM     12  C   LIG    1        4.248  -3.521  -1.224  0.00  0.00    -0.012 A 
ATOM     13  C   LIG    1        3.890  -2.911   0.019  0.00  0.00    -0.011 A 
ATOM     14  C   LIG    1        3.931  -3.660   1.193  0.00  0.00    +0.016 A 
ATOM     15 CL   LIG    1        5.743  -9.333   1.265  0.00  0.00    -0.083 Cl
ATOM     16  C   LIG    1        4.355  -5.006   1.219  0.00  0.00    +0.001 A 
ENDROOT
BRANCH   9  17
ATOM     17  C   LIG    1        5.378  -5.389  -5.015  0.00  0.00    +0.417 C 
ATOM     18  F   LIG    1        6.392  -4.709  -5.549  0.00  0.00    -0.166 F 
ATOM     19  F   LIG    1        5.753  -6.664  -4.891  0.00  0.00    -0.166 F 
ATOM     20  F   LIG    1        4.343  -5.342  -5.855  0.00  0.00    -0.166 F 
ENDBRANCH   9  17
BRANCH  13  21
ATOM     21  C   LIG    1        3.432  -1.440   0.075  0.00  0.00    +0.146 C 
BRANCH  21  22
ATOM     22  O   LIG    1        3.731  -0.805   1.307  0.00  0.00    -0.387 OA
ATOM     23  H   LIG    1        4.685  -0.755   1.401  0.00  0.00    +0.210 HD
ENDBRANCH  21  22
BRANCH  21  24
ATOM     24  C   LIG    1        1.917  -1.307  -0.206  0.00  0.00    +0.051 C 
BRANCH  24  25
ATOM     25  C   LIG    1        1.427   0.145  -0.398  0.00  0.00    +0.087 C 
BRANCH  25  26
ATOM     26  N   LIG    1       -0.033   0.326  -0.293  0.00  0.00    -0.302 NA
BRANCH  26  27
ATOM     27  C   LIG    1       -0.785  -0.353  -1.365  0.00  0.00    +0.084 C 
BRANCH  27  28
ATOM     28  C   LIG    1       -1.199  -1.803  -1.016  0.00  0.00    +0.015 C 
BRANCH  28  29
ATOM     29  C   LIG    1       -1.960  -1.984   0.314  0.00  0.00    -0.002 C 
ATOM     30  C   LIG    1       -3.275  -1.193   0.403  0.00  0.00    +0.004 C 
ENDBRANCH  28  29
ENDBRANCH  27  28
ENDBRANCH  26  27
BRANCH  26  31
ATOM     31  C   LIG    1       -0.383   1.755  -0.282  0.00  0.00    +0.084 C 
BRANCH  31  32
ATOM     32  C   LIG    1        0.116   2.507   0.972  0.00  0.00    +0.015 C 
BRANCH  32  33
ATOM     33  C   LIG    1       -0.600   3.851   1.190  0.00  0.00    -0.002 C 
ATOM     34  C   LIG    1       -0.075   4.618   2.412  0.00  0.00    +0.004 C 
ENDBRANCH  32  33
ENDBRANCH  31  32
ENDBRANCH  26  31
ENDBRANCH  25  26
ENDBRANCH  24  25
ENDBRANCH  21  24
ENDBRANCH  13  21
TORSDOF 12
