REMARK  Name = DB01603
REMARK                            x       y       z     vdW  Elec       q    Type
REMARK                         _______ _______ _______ _____ _____    ______ ____
ROOT
ATOM      1  S   LIG    1       -1.169  -3.768  -1.305  0.00  0.00    -0.127 S 
ATOM      2  C   LIG    1       -2.200  -5.197  -0.857  0.00  0.00    +0.042 C 
ATOM      3  C   LIG    1       -1.424  -6.527  -0.957  0.00  0.00    +0.025 C 
ATOM      4  C   LIG    1       -3.336  -5.237  -1.921  0.00  0.00    +0.025 C 
ATOM      5  CA  LIG    1       -2.713  -4.856   0.587  0.00  0.00    +0.201 C 
ATOM      6  N   LIG    1       -2.835  -3.392   0.641  0.00  0.00    -0.271 N 
ATOM      7  C   LIG    1       -2.216  -2.596   1.611  0.00  0.00    +0.240 C 
ATOM      8  CA  LIG    1       -1.835  -1.545   0.546  0.00  0.00    +0.190 C 
ATOM      9  O   LIG    1       -1.991  -2.750   2.811  0.00  0.00    -0.273 OA
ATOM     10  C   LIG    1       -2.295  -2.600  -0.494  0.00  0.00    +0.165 C 
ENDROOT
BRANCH   8  11
ATOM     11  N   LIG    1       -0.426  -1.154   0.572  0.00  0.00    -0.298 N 
ATOM     12  H   LIG    1        0.057  -1.271   1.451  0.00  0.00    +0.150 HD
ATOM     13  C   LIG    1        0.214  -0.524  -0.430  0.00  0.00    +0.252 C 
ATOM     14  O   LIG    1       -0.332  -0.153  -1.470  0.00  0.00    -0.270 OA
BRANCH  13  15
ATOM     15  C   LIG    1        1.684  -0.278  -0.195  0.00  0.00    +0.120 A 
ATOM     16  C   LIG    1        2.184   1.042  -0.227  0.00  0.00    +0.136 A 
ATOM     17  C   LIG    1        3.557   1.253  -0.017  0.00  0.00    +0.046 A 
ATOM     18  C   LIG    1        4.415   0.186   0.216  0.00  0.00    +0.007 A 
ATOM     19  C   LIG    1        3.920  -1.112   0.243  0.00  0.00    +0.046 A 
ATOM     20  C   LIG    1        2.555  -1.367   0.037  0.00  0.00    +0.136 A 
BRANCH  16  21
ATOM     21  O   LIG    1        1.293   2.080  -0.453  0.00  0.00    -0.494 OA
ATOM     22  C   LIG    1        1.764   3.422  -0.502  0.00  0.00    +0.277 C 
ENDBRANCH  16  21
BRANCH  20  23
ATOM     23  O   LIG    1        2.024  -2.648   0.039  0.00  0.00    -0.494 OA
ATOM     24  C   LIG    1        2.869  -3.770   0.268  0.00  0.00    +0.277 C 
ENDBRANCH  20  23
ENDBRANCH  13  15
ENDBRANCH   8  11
BRANCH   5  25
ATOM     25  C   LIG    1       -3.999  -5.599   1.013  0.00  0.00    +0.327 C 
ATOM     26  OXT LIG    1       -5.087  -5.073   1.125  0.00  0.00    -0.249 OA
BRANCH  25  27
ATOM     27  O   LIG    1       -3.723  -6.909   1.278  0.00  0.00    -0.479 OA
ATOM     28  H   LIG    1       -4.501  -7.393   1.564  0.00  0.00    +0.295 HD
ENDBRANCH  25  27
ENDBRANCH   5  25
TORSDOF 6
