REMARK  Name = DB01638
REMARK                            x       y       z     vdW  Elec       q    Type
REMARK                         _______ _______ _______ _____ _____    ______ ____
ROOT
ATOM      1  C   LIG    1        0.004   0.096   0.175  0.00  0.00    +0.176 C 
ENDROOT
BRANCH   1   2
ATOM      2  O   LIG    1       -0.473   1.433   0.130  0.00  0.00    -0.386 OA
ATOM      3  H   LIG    1       -0.155   1.893   0.910  0.00  0.00    +0.210 HD
ENDBRANCH   1   2
BRANCH   1   4
ATOM      4  C   LIG    1       -0.610  -0.675   1.381  0.00  0.00    +0.171 C 
BRANCH   4   5
ATOM      5  O   LIG    1       -0.251  -0.086   2.622  0.00  0.00    -0.387 OA
ATOM      6  H   LIG    1        0.702  -0.117   2.717  0.00  0.00    +0.210 HD
ENDBRANCH   4   5
BRANCH   4   7
ATOM      7  C   LIG    1       -2.152  -0.779   1.309  0.00  0.00    +0.189 C 
BRANCH   7   8
ATOM      8  O   LIG    1       -2.650  -1.736   2.225  0.00  0.00    -0.392 OA
ATOM      9  H   LIG    1       -3.607  -1.759   2.151  0.00  0.00    +0.210 HD
ENDBRANCH   7   8
ENDBRANCH   4   7
ENDBRANCH   1   4
BRANCH   1  10
ATOM     10  C   LIG    1        1.561   0.049   0.045  0.00  0.00    +0.176 C 
BRANCH  10  11
ATOM     11  O   LIG    1        2.194   0.655   1.161  0.00  0.00    -0.386 OA
ATOM     12  H   LIG    1        2.037   0.113   1.937  0.00  0.00    +0.210 HD
ENDBRANCH  10  11
BRANCH  10  13
ATOM     13  C   LIG    1        2.123   0.677  -1.267  0.00  0.00    +0.171 C 
BRANCH  13  14
ATOM     14  O   LIG    1        1.545   0.064  -2.407  0.00  0.00    -0.387 OA
ATOM     15  H   LIG    1        1.864  -0.840  -2.458  0.00  0.00    +0.210 HD
ENDBRANCH  13  14
BRANCH  13  16
ATOM     16  C   LIG    1        3.665   0.635  -1.410  0.00  0.00    +0.189 C 
BRANCH  16  17
ATOM     17  O   LIG    1        4.173  -0.685  -1.339  0.00  0.00    -0.392 OA
ATOM     18  H   LIG    1        5.130  -0.648  -1.419  0.00  0.00    +0.210 HD
ENDBRANCH  16  17
ENDBRANCH  13  16
ENDBRANCH  10  13
ENDBRANCH   1  10
TORSDOF 11
