REMARK  Name = DB01017
REMARK                            x       y       z     vdW  Elec       q    Type
REMARK                         _______ _______ _______ _____ _____    ______ ____
ROOT
ATOM      1  C   LIG    1        0.215   0.152   0.176  0.00  0.00    +0.033 A 
ATOM      2  C   LIG    1       -0.607   1.298   0.043  0.00  0.00    -0.011 A 
ATOM      3  C   LIG    1       -0.013   2.678  -0.241  0.00  0.00    +0.046 C 
ATOM      4  C   LIG    1       -0.779   3.761   0.532  0.00  0.00    +0.031 C 
ATOM      5  C   LIG    1       -0.132   5.143   0.317  0.00  0.00    +0.018 C 
ATOM      6  C   LIG    1       -1.044   6.303   0.778  0.00  0.00    +0.061 C 
ATOM      7  C   LIG    1       -0.284   7.669   0.780  0.00  0.00    +0.129 C 
ATOM      8  C   LIG    1       -0.021   8.021  -0.698  0.00  0.00    +0.127 C 
ATOM      9  C   LIG    1       -0.839   7.708  -1.746  0.00  0.00    +0.121 C 
ATOM     10  C   LIG    1       -2.111   6.965  -1.504  0.00  0.00    +0.211 C 
ATOM     11  O   LIG    1       -2.958   6.835  -2.394  0.00  0.00    -0.288 OA
ATOM     12  C   LIG    1       -2.349   6.346  -0.088  0.00  0.00    +0.190 C 
ATOM     13  C   LIG    1       -2.932   4.903  -0.193  0.00  0.00    +0.141 C 
ATOM     14  C   LIG    1       -2.255   3.748   0.092  0.00  0.00    +0.044 C 
ATOM     15  C   LIG    1       -2.925   2.410   0.051  0.00  0.00    +0.197 C 
ATOM     16  O   LIG    1       -4.149   2.281  -0.029  0.00  0.00    -0.287 OA
ATOM     17  C   LIG    1       -2.017   1.188   0.181  0.00  0.00    +0.068 A 
ATOM     18  C   LIG    1       -2.564  -0.095   0.435  0.00  0.00    +0.128 A 
ATOM     19  C   LIG    1       -1.744  -1.208   0.571  0.00  0.00    +0.048 A 
ATOM     20  C   LIG    1       -0.372  -1.087   0.450  0.00  0.00    +0.027 A 
ENDROOT
BRANCH   9  21
ATOM     21  C   LIG    1       -0.433   8.097  -3.093  0.00  0.00    +0.248 C 
ATOM     22  N   LIG    1       -1.323   8.814  -3.788  0.00  0.00    -0.325 N 
ATOM     23  H   LIG    1       -2.223   9.035  -3.387  0.00  0.00    +0.145 HD
ATOM     24  H   LIG    1       -1.105   9.125  -4.723  0.00  0.00    +0.145 HD
ATOM     25  O   LIG    1        0.665   7.809  -3.569  0.00  0.00    -0.270 OA
ENDBRANCH   9  21
BRANCH   1  26
ATOM     26  N   LIG    1        1.619   0.244   0.015  0.00  0.00    -0.336 N 
ATOM     27  C   LIG    1        2.464  -0.612   0.845  0.00  0.00    +0.129 C 
ATOM     28  C   LIG    1        2.041   0.358  -1.378  0.00  0.00    +0.129 C 
ENDBRANCH   1  26
BRANCH   7  29
ATOM     29  N   LIG    1       -0.943   8.766   1.533  0.00  0.00    -0.299 NA
ATOM     30  C   LIG    1       -0.301  10.075   1.386  0.00  0.00    +0.105 C 
ATOM     31  C   LIG    1       -1.013   8.478   2.967  0.00  0.00    +0.105 C 
ENDBRANCH   7  29
BRANCH   8  32
ATOM     32  O   LIG    1        1.195   8.638  -0.798  0.00  0.00    -0.509 OA
ATOM     33  H   LIG    1        1.578   8.736   0.076  0.00  0.00    +0.292 HD
ENDBRANCH   8  32
BRANCH  12  34
ATOM     34  O   LIG    1       -3.292   7.185   0.569  0.00  0.00    -0.373 OA
ATOM     35  H   LIG    1       -2.853   8.008   0.800  0.00  0.00    +0.211 HD
ENDBRANCH  12  34
BRANCH  13  36
ATOM     36  O   LIG    1       -4.235   4.952  -0.613  0.00  0.00    -0.507 OA
ATOM     37  H   LIG    1       -4.492   5.868  -0.743  0.00  0.00    +0.292 HD
ENDBRANCH  13  36
BRANCH  18  38
ATOM     38  O   LIG    1       -3.909  -0.331   0.589  0.00  0.00    -0.506 OA
ATOM     39  H   LIG    1       -4.112  -1.252   0.762  0.00  0.00    +0.292 HD
ENDBRANCH  18  38
TORSDOF 7
