REMARK  Name = DB01066
REMARK                            x       y       z     vdW  Elec       q    Type
REMARK                         _______ _______ _______ _____ _____    ______ ____
ROOT
ATOM      1  C   LIG    1        0.232   1.555   4.575  0.00  0.00    -0.009 C 
ATOM      2  C   LIG    1        1.535   0.751   4.724  0.00  0.00    +0.108 C 
ATOM      3  S   LIG    1        2.342   0.390   3.129  0.00  0.00    -0.131 S 
ATOM      4  C   LIG    1        0.866  -0.416   2.425  0.00  0.00    +0.169 C 
ATOM      5  CA  LIG    1        0.655  -0.576   0.893  0.00  0.00    +0.191 C 
ATOM      6  C   LIG    1       -0.352   0.598   1.030  0.00  0.00    +0.244 C 
ATOM      7  O   LIG    1       -0.943   1.334   0.241  0.00  0.00    -0.273 OA
ATOM      8  N   LIG    1       -0.249   0.559   2.428  0.00  0.00    -0.249 N 
ATOM      9  CA  LIG    1       -0.555   1.419   3.458  0.00  0.00    +0.126 C 
ENDROOT
BRANCH   5  10
ATOM     10  N   LIG    1        1.778  -0.252   0.012  0.00  0.00    -0.296 N 
ATOM     11  H   LIG    1        1.710   0.612  -0.507  0.00  0.00    +0.150 HD
ATOM     12  C   LIG    1        2.853  -1.039  -0.176  0.00  0.00    +0.268 C 
ATOM     13  O   LIG    1        3.015  -2.127   0.380  0.00  0.00    -0.268 OA
BRANCH  12  14
ATOM     14  C   LIG    1        3.825  -0.491  -1.138  0.00  0.00    +0.190 C 
ATOM     15  N   LIG    1        4.027  -1.066  -2.274  0.00  0.00    -0.078 NA
BRANCH  14  16
ATOM     16  C   LIG    1        4.590   0.735  -0.795  0.00  0.00    +0.107 A 
ATOM     17  N   LIG    1        4.504   1.295   0.406  0.00  0.00    -0.223 NA
ATOM     18  C   LIG    1        5.256   2.358   0.519  0.00  0.00    +0.156 A 
ATOM     19  S   LIG    1        6.172   2.767  -0.891  0.00  0.00    -0.060 S 
ATOM     20  C   LIG    1        5.467   1.385  -1.675  0.00  0.00    +0.078 A 
BRANCH  18  21
ATOM     21  N   LIG    1        5.349   3.125   1.644  0.00  0.00    -0.338 N 
ATOM     22  H   LIG    1        5.942   3.941   1.683  0.00  0.00    +0.144 HD
ATOM     23  H   LIG    1        4.821   2.904   2.476  0.00  0.00    +0.144 HD
ENDBRANCH  18  21
ENDBRANCH  14  16
BRANCH  15  24
ATOM     24  O   LIG    1        3.234  -2.208  -2.537  0.00  0.00    -0.396 OA
ATOM     25  C   LIG    1        3.585  -2.727  -3.809  0.00  0.00    +0.313 C 
ENDBRANCH  15  24
ENDBRANCH  12  14
ENDBRANCH   5  10
BRANCH   1  26
ATOM     26  C   LIG    1       -0.058   2.462   5.688  0.00  0.00    +0.007 C 
ATOM     27  C   LIG    1       -1.098   2.386   6.546  0.00  0.00    +0.017 C 
BRANCH  27  28
ATOM     28  C   LIG    1       -2.177   1.408   6.642  0.00  0.00    +0.035 A 
ATOM     29  S   LIG    1       -2.001  -0.291   6.270  0.00  0.00    -0.076 S 
ATOM     30  C   LIG    1       -3.653  -0.509   6.723  0.00  0.00    +0.156 A 
ATOM     31  N   LIG    1       -4.269   0.571   7.126  0.00  0.00    -0.252 NA
ATOM     32  C   LIG    1       -3.482   1.632   7.101  0.00  0.00    +0.053 A 
ATOM     33  C   LIG    1       -4.116   2.929   7.560  0.00  0.00    +0.067 C 
ENDBRANCH  27  28
ENDBRANCH   1  26
BRANCH   9  34
ATOM     34  C   LIG    1       -1.768   2.215   3.285  0.00  0.00    +0.352 C 
ATOM     35  OXT LIG    1       -1.820   3.438   3.409  0.00  0.00    -0.244 OA
BRANCH  34  36
ATOM     36  O   LIG    1       -2.860   1.446   2.991  0.00  0.00    -0.476 OA
ATOM     37  H   LIG    1       -3.656   1.972   2.887  0.00  0.00    +0.295 HD
ENDBRANCH  34  36
ENDBRANCH   9  34
TORSDOF 9
