REMARK  Name = DB01086
REMARK                            x       y       z     vdW  Elec       q    Type
REMARK                         _______ _______ _______ _____ _____    ______ ____
ROOT
ATOM      1  C   LIG    1       -1.958   1.350   0.000  0.00  0.00    +0.059 A 
ATOM      2  C   LIG    1       -2.673   2.557   0.000  0.00  0.00    +0.017 A 
ATOM      3  C   LIG    1       -4.066   2.554   0.000  0.00  0.00    +0.023 A 
ATOM      4  C   LIG    1       -4.757   1.344   0.000  0.00  0.00    +0.025 A 
ATOM      5  C   LIG    1       -4.061   0.137   0.000  0.00  0.00    +0.023 A 
ATOM      6  C   LIG    1       -2.669   0.139   0.000  0.00  0.00    +0.017 A 
ENDROOT
BRANCH   4   7
ATOM      7  N   LIG    1       -6.151   1.340   0.000  0.00  0.00    -0.358 N 
ATOM      8  H   LIG    1       -6.644   0.460   0.000  0.00  0.00    +0.142 HD
ATOM      9  H   LIG    1       -6.651   2.217  -0.000  0.00  0.00    +0.142 HD
ENDBRANCH   4   7
BRANCH   1  10
ATOM     10  C   LIG    1       -0.457   1.389   0.000  0.00  0.00    +0.339 C 
ATOM     11  O   LIG    1        0.195   2.438   0.000  0.00  0.00    -0.245 OA
BRANCH  10  12
ATOM     12  O   LIG    1        0.112   0.155   0.000  0.00  0.00    -0.461 OA
BRANCH  12  13
ATOM     13  C   LIG    1        1.525  -0.002   0.000  0.00  0.00    +0.229 C 
ATOM     14  C   LIG    1        1.872  -1.494   0.000  0.00  0.00    +0.048 C 
ENDBRANCH  12  13
ENDBRANCH  10  12
ENDBRANCH   1  10
TORSDOF 4
