REMARK  Name = DB01399
REMARK                            x       y       z     vdW  Elec       q    Type
REMARK                         _______ _______ _______ _____ _____    ______ ____
ROOT
ATOM      1  O   LIG    1        0.102   0.228   0.001  0.00  0.00    -0.421 OA
ENDROOT
BRANCH   1   2
ATOM      2  C   LIG    1        1.475   0.086  -0.040  0.00  0.00    +0.146 A 
ATOM      3  C   LIG    1        2.166   0.078   1.179  0.00  0.00    +0.047 A 
ATOM      4  C   LIG    1        3.550  -0.067   1.211  0.00  0.00    +0.004 A 
ATOM      5  C   LIG    1        4.258  -0.216   0.023  0.00  0.00    +0.001 A 
ATOM      6  C   LIG    1        3.582  -0.224  -1.196  0.00  0.00    +0.018 A 
ATOM      7  C   LIG    1        2.186  -0.076  -1.253  0.00  0.00    +0.101 A 
BRANCH   7   8
ATOM      8  C   LIG    1        1.482  -0.126  -2.595  0.00  0.00    +0.340 C 
ATOM      9  O   LIG    1        0.290  -0.406  -2.714  0.00  0.00    -0.245 OA
BRANCH   8  10
ATOM     10  O   LIG    1        2.275   0.176  -3.666  0.00  0.00    -0.477 OA
ATOM     11  H   LIG    1        1.791   0.143  -4.494  0.00  0.00    +0.295 HD
ENDBRANCH   8  10
ENDBRANCH   7   8
ENDBRANCH   1   2
BRANCH   1  12
ATOM     12  C   LIG    1       -0.462   1.479   0.029  0.00  0.00    +0.348 C 
ATOM     13  O   LIG    1        0.202   2.520   0.047  0.00  0.00    -0.244 OA
BRANCH  12  14
ATOM     14  C   LIG    1       -1.974   1.446   0.029  0.00  0.00    +0.101 A 
ATOM     15  C   LIG    1       -2.652   0.211  -0.004  0.00  0.00    +0.018 A 
ATOM     16  C   LIG    1       -4.044   0.148  -0.008  0.00  0.00    +0.001 A 
ATOM     17  C   LIG    1       -4.794   1.318   0.018  0.00  0.00    +0.004 A 
ATOM     18  C   LIG    1       -4.151   2.551   0.049  0.00  0.00    +0.046 A 
ATOM     19  C   LIG    1       -2.755   2.626   0.055  0.00  0.00    +0.131 A 
BRANCH  19  20
ATOM     20  O   LIG    1       -2.206   3.885   0.089  0.00  0.00    -0.506 OA
ATOM     21  H   LIG    1       -2.866   4.581   0.110  0.00  0.00    +0.292 HD
ENDBRANCH  19  20
ENDBRANCH  12  14
ENDBRANCH   1  12
TORSDOF 6
