REMARK  Name = DB01127
REMARK                            x       y       z     vdW  Elec       q    Type
REMARK                         _______ _______ _______ _____ _____    ______ ____
ROOT
ATOM      1  C   LIG    1        1.392  -0.003   0.053  0.00  0.00    +0.170 C 
ENDROOT
BRANCH   1   9
ATOM      2 CL   LIG    1        4.154   1.448   0.055  0.00  0.00    -0.083 Cl
ATOM      3  C   LIG    1        3.179   1.184   1.461  0.00  0.00    +0.048 A 
ATOM      4  C   LIG    1        3.655   1.647   2.689  0.00  0.00    +0.040 A 
ATOM      5  C   LIG    1        2.913   1.449   3.853  0.00  0.00    +0.042 A 
ATOM      6  C   LIG    1        1.691   0.782   3.793  0.00  0.00    +0.020 A 
ATOM      7  C   LIG    1        1.211   0.317   2.570  0.00  0.00    +0.009 A 
ATOM      8 CL   LIG    1        3.511   2.023   5.367  0.00  0.00    -0.083 Cl
ATOM      9  C   LIG    1        1.941   0.518   1.389  0.00  0.00    +0.001 A 
ENDBRANCH   1   9
BRANCH   1  10
ATOM     10  C   LIG    1        1.908  -1.427  -0.249  0.00  0.00    +0.159 C 
BRANCH  10  11
ATOM     11  N   LIG    1        1.469  -1.876  -1.563  0.00  0.00    -0.334 N 
ATOM     12  C   LIG    1        2.151  -1.786  -2.752  0.00  0.00    +0.199 A 
ATOM     13  N   LIG    1        1.480  -2.254  -3.778  0.00  0.00    -0.244 NA
ATOM     14  C   LIG    1        0.329  -2.656  -3.268  0.00  0.00    +0.130 A 
ATOM     15  C   LIG    1        0.265  -2.441  -1.900  0.00  0.00    +0.107 A 
ENDBRANCH  10  11
ENDBRANCH   1  10
BRANCH   1  16
ATOM     16  O   LIG    1       -0.037  -0.025   0.047  0.00  0.00    -0.366 OA
BRANCH  16  17
ATOM     17  C   LIG    1       -0.671   1.244  -0.087  0.00  0.00    +0.196 C 
BRANCH  17  18
ATOM     18  C   LIG    1       -2.181   1.060  -0.047  0.00  0.00    -0.022 A 
ATOM     19  C   LIG    1       -2.768   0.345   1.001  0.00  0.00    +0.007 A 
ATOM     20  C   LIG    1       -4.149   0.177   1.042  0.00  0.00    +0.020 A 
ATOM     21  C   LIG    1       -4.942   0.726   0.035  0.00  0.00    +0.041 A 
ATOM     22  C   LIG    1       -4.362   1.443  -1.011  0.00  0.00    +0.020 A 
ATOM     23 CL   LIG    1       -6.654   0.515   0.083  0.00  0.00    -0.084 Cl
ATOM     24  C   LIG    1       -2.981   1.611  -1.051  0.00  0.00    +0.007 A 
ENDBRANCH  17  18
ENDBRANCH  16  17
ENDBRANCH   1  16
TORSDOF 6
