REMARK  Name = DB01329
REMARK                            x       y       z     vdW  Elec       q    Type
REMARK                         _______ _______ _______ _____ _____    ______ ____
ROOT
ATOM      1  N   LIG    1       -0.296   1.406   0.533  0.00  0.00    -0.300 N 
ATOM      2  H   LIG    1        0.293   1.545   1.342  0.00  0.00    +0.150 HD
ATOM      3  C   LIG    1        0.276   0.745  -0.498  0.00  0.00    +0.239 C 
ATOM      4  O   LIG    1       -0.261   0.569  -1.593  0.00  0.00    -0.273 OA
ENDROOT
BRANCH   1  11
ATOM      5  N   LIG    1       -2.671   2.818  -1.004  0.00  0.00    -0.249 N 
ATOM      6  CA  LIG    1       -3.140   3.421  -2.144  0.00  0.00    +0.123 C 
ATOM      7  C   LIG    1       -2.670   4.631  -2.580  0.00  0.00    -0.021 C 
ATOM      8  C   LIG    1       -1.547   5.382  -1.837  0.00  0.00    +0.104 C 
ATOM      9  S   LIG    1       -0.448   4.298  -0.855  0.00  0.00    -0.131 S 
ATOM     10  C   LIG    1       -1.798   3.443   0.009  0.00  0.00    +0.169 C 
ATOM     11  CA  LIG    1       -1.628   2.037   0.653  0.00  0.00    +0.191 C 
ATOM     12  C   LIG    1       -2.761   1.592  -0.335  0.00  0.00    +0.244 C 
ATOM     13  O   LIG    1       -3.438   0.577  -0.489  0.00  0.00    -0.273 OA
BRANCH   6  14
ATOM     14  C   LIG    1       -4.194   2.719  -2.857  0.00  0.00    +0.351 C 
ATOM     15  O   LIG    1       -4.064   1.605  -3.362  0.00  0.00    -0.244 OA
BRANCH  14  16
ATOM     16  OXT LIG    1       -5.370   3.414  -2.854  0.00  0.00    -0.476 OA
ATOM     17  HXT LIG    1       -6.073   2.943  -3.307  0.00  0.00    +0.295 HD
ENDBRANCH  14  16
ENDBRANCH   6  14
BRANCH   7  18
ATOM     18  C   LIG    1       -3.145   5.353  -3.849  0.00  0.00    +0.111 C 
BRANCH  18  19
ATOM     19  S   LIG    1       -4.220   6.783  -3.512  0.00  0.00    -0.080 S 
BRANCH  19  20
ATOM     20  C   LIG    1       -3.682   7.845  -4.812  0.00  0.00    +0.209 A 
ATOM     21  N   LIG    1       -4.447   8.224  -5.807  0.00  0.00    -0.102 NA
ATOM     22  N   LIG    1       -3.657   9.044  -6.607  0.00  0.00    -0.022 NA
ATOM     23  N   LIG    1       -2.398   9.171  -6.056  0.00  0.00    -0.043 NA
ATOM     24  N   LIG    1       -2.446   8.444  -4.935  0.00  0.00    -0.223 N 
ATOM     25  C   LIG    1       -1.272   8.348  -4.083  0.00  0.00    +0.177 C 
ENDBRANCH  19  20
ENDBRANCH  18  19
ENDBRANCH   7  18
ENDBRANCH   1  11
BRANCH   3  26
ATOM     26  CA  LIG    1        1.735   0.259  -0.259  0.00  0.00    +0.191 C 
BRANCH  26  27
ATOM     27  N   LIG    1        2.309  -0.501  -1.388  0.00  0.00    -0.284 N 
ATOM     28  H   LIG    1        2.839   0.065  -2.033  0.00  0.00    +0.151 HD
ATOM     29  C   LIG    1        2.000  -1.757  -1.795  0.00  0.00    +0.310 C 
ATOM     30  O   LIG    1        1.213  -2.459  -1.152  0.00  0.00    -0.252 OA
ATOM     31  N   LIG    1        2.677  -2.200  -2.903  0.00  0.00    -0.217 N 
ATOM     32  C   LIG    1        3.118  -1.214  -3.929  0.00  0.00    +0.137 C 
ATOM     33  C   LIG    1        2.811  -1.798  -5.325  0.00  0.00    +0.127 C 
ATOM     34  N   LIG    1        3.492  -3.100  -5.455  0.00  0.00    -0.293 N 
ATOM     35  C   LIG    1        3.735  -3.895  -4.370  0.00  0.00    +0.302 C 
ATOM     36  O   LIG    1        4.469  -4.888  -4.369  0.00  0.00    -0.265 OA
ATOM     37  C   LIG    1        3.065  -3.515  -3.070  0.00  0.00    +0.309 C 
ATOM     38  O   LIG    1        2.866  -4.445  -2.277  0.00  0.00    -0.264 OA
BRANCH  34  39
ATOM     39  C   LIG    1        3.899  -3.546  -6.792  0.00  0.00    +0.105 C 
ATOM     40  C   LIG    1        5.238  -2.945  -7.244  0.00  0.00    +0.024 C 
ENDBRANCH  34  39
ENDBRANCH  26  27
BRANCH  26  41
ATOM     41  C   LIG    1        2.023  -0.443   1.064  0.00  0.00    -0.018 A 
ATOM     42  C   LIG    1        1.053  -1.191   1.748  0.00  0.00    +0.009 A 
ATOM     43  C   LIG    1        1.363  -1.817   2.952  0.00  0.00    +0.046 A 
ATOM     44  C   LIG    1        2.647  -1.704   3.480  0.00  0.00    +0.117 A 
ATOM     45  C   LIG    1        3.624  -0.972   2.809  0.00  0.00    +0.046 A 
ATOM     46  C   LIG    1        3.311  -0.346   1.605  0.00  0.00    +0.009 A 
BRANCH  44  47
ATOM     47  O   LIG    1        2.952  -2.318   4.665  0.00  0.00    -0.507 OA
ATOM     48  H   LIG    1        3.862  -2.180   4.935  0.00  0.00    +0.292 HD
ENDBRANCH  44  47
ENDBRANCH  26  41
ENDBRANCH   3  26
TORSDOF 11
