REMARK  Name = DB01022
REMARK                            x       y       z     vdW  Elec       q    Type
REMARK                         _______ _______ _______ _____ _____    ______ ____
ROOT
ATOM      1  C   LIG    1       -5.024  -1.013  -1.612  0.00  0.00    -0.023 C 
ATOM      2  C   LIG    1       -4.121  -1.669  -2.380  0.00  0.00    -0.076 C 
ATOM      3  C   LIG    1       -4.487  -2.715  -3.428  0.00  0.00    +0.039 C 
ENDROOT
BRANCH   1   4
ATOM      4  C   LIG    1       -6.542  -1.144  -1.607  0.00  0.00    +0.066 C 
BRANCH   4  12
ATOM      5  C   LIG    1       -8.169  -3.011   2.034  0.00  0.00    +0.033 A 
ATOM      6  C   LIG    1       -8.691  -3.640   3.178  0.00  0.00    +0.012 A 
ATOM      7  C   LIG    1       -8.735  -5.028   3.281  0.00  0.00    +0.001 A 
ATOM      8  C   LIG    1       -8.256  -5.814   2.241  0.00  0.00    +0.001 A 
ATOM      9  C   LIG    1       -7.736  -5.210   1.100  0.00  0.00    +0.012 A 
ATOM     10  C   LIG    1       -7.682  -3.811   0.975  0.00  0.00    +0.033 A 
ATOM     11  C   LIG    1       -7.110  -3.218  -0.283  0.00  0.00    +0.191 C 
ATOM     12  C   LIG    1       -7.103  -1.730  -0.301  0.00  0.00    +0.010 C 
ATOM     13  C   LIG    1       -7.578  -0.959   0.722  0.00  0.00    +0.004 C 
ATOM     14  C   LIG    1       -7.508   0.575   0.728  0.00  0.00    +0.048 C 
ATOM     15  O   LIG    1       -6.689  -3.935  -1.194  0.00  0.00    -0.287 OA
ATOM     16  C   LIG    1       -8.151  -1.508   1.978  0.00  0.00    +0.190 C 
ATOM     17  O   LIG    1       -8.590  -0.827   2.909  0.00  0.00    -0.287 OA
ENDBRANCH   4  12
ENDBRANCH   1   4
BRANCH   2  18
ATOM     18  C   LIG    1       -2.610  -1.435  -2.284  0.00  0.00    +0.030 C 
BRANCH  18  19
ATOM     19  C   LIG    1       -2.114  -0.396  -1.254  0.00  0.00    +0.005 C 
BRANCH  19  20
ATOM     20  C   LIG    1       -0.580  -0.232  -1.255  0.00  0.00    +0.003 C 
BRANCH  20  21
ATOM     21  C   LIG    1       -0.023   0.686  -0.137  0.00  0.00    -0.014 C 
ATOM     22  C   LIG    1       -0.541   2.136  -0.260  0.00  0.00    +0.007 C 
BRANCH  21  23
ATOM     23  C   LIG    1        1.525   0.620  -0.095  0.00  0.00    +0.003 C 
BRANCH  23  24
ATOM     24  C   LIG    1        2.168   1.268   1.150  0.00  0.00    +0.001 C 
BRANCH  24  25
ATOM     25  C   LIG    1        3.703   1.114   1.185  0.00  0.00    +0.003 C 
BRANCH  25  26
ATOM     26  C   LIG    1        4.381   1.617   2.487  0.00  0.00    -0.014 C 
ATOM     27  C   LIG    1        4.078   3.104   2.772  0.00  0.00    +0.007 C 
BRANCH  26  28
ATOM     28  C   LIG    1        5.913   1.377   2.488  0.00  0.00    +0.003 C 
BRANCH  28  29
ATOM     29  C   LIG    1        6.345  -0.104   2.495  0.00  0.00    +0.001 C 
BRANCH  29  30
ATOM     30  C   LIG    1        7.873  -0.276   2.609  0.00  0.00    +0.003 C 
BRANCH  30  31
ATOM     31  C   LIG    1        8.368  -1.741   2.537  0.00  0.00    -0.017 C 
ATOM     32  C   LIG    1        9.903  -1.799   2.425  0.00  0.00    +0.007 C 
ATOM     33  C   LIG    1        7.876  -2.598   3.720  0.00  0.00    +0.007 C 
ENDBRANCH  30  31
ENDBRANCH  29  30
ENDBRANCH  28  29
ENDBRANCH  26  28
ENDBRANCH  25  26
ENDBRANCH  24  25
ENDBRANCH  23  24
ENDBRANCH  21  23
ENDBRANCH  20  21
ENDBRANCH  19  20
ENDBRANCH  18  19
ENDBRANCH   2  18
TORSDOF 14
