REMARK  Name = DB01020
REMARK                            x       y       z     vdW  Elec       q    Type
REMARK                         _______ _______ _______ _____ _____    ______ ____
ROOT
ATOM      1  O   LIG    1        3.186  -1.314   0.571  0.00  0.00    -0.367 OA
ATOM      2  C   LIG    1        1.839  -1.440   0.125  0.00  0.00    +0.210 C 
ATOM      3  C   LIG    1        1.353   0.002   0.052  0.00  0.00    +0.265 C 
ATOM      4  C   LIG    1        2.033   0.637   1.256  0.00  0.00    +0.195 C 
ATOM      5  O   LIG    1        1.307   0.474   2.474  0.00  0.00    -0.367 OA
ATOM      6  C   LIG    1        2.232   0.291   3.536  0.00  0.00    +0.194 C 
ATOM      7  C   LIG    1        3.333  -0.571   2.923  0.00  0.00    +0.171 C 
ATOM      8  C   LIG    1        3.307  -0.188   1.448  0.00  0.00    +0.181 C 
ENDROOT
BRANCH   7   9
ATOM      9  O   LIG    1        4.598  -0.391   3.526  0.00  0.00    -0.387 OA
ATOM     10  H   LIG    1        5.114  -1.191   3.397  0.00  0.00    +0.210 HD
ENDBRANCH   7   9
BRANCH   3  11
ATOM     11  O   LIG    1       -0.079   0.021   0.154  0.00  0.00    -0.346 OA
BRANCH  11  12
ATOM     12  N   LIG    1       -0.692   1.299  -0.056  0.00  0.00    +0.171 N 
ATOM     13  O   LIG    1        0.024   2.230  -0.353  0.00  0.00    -0.094 OA
BRANCH  12  14
ATOM     14  O   LIG    1       -1.890   1.262   0.090  0.00  0.00    -0.370 OA
ATOM     15  H   LIG    1       -2.309   0.457   0.324  0.00  0.00    +0.332 HD
ENDBRANCH  12  14
ENDBRANCH  11  12
ENDBRANCH   3  11
TORSDOF 4
