REMARK  Name = DB01637
REMARK                            x       y       z     vdW  Elec       q    Type
REMARK                         _______ _______ _______ _____ _____    ______ ____
ROOT
ATOM      1  C   LIG    1        1.440  -0.136   0.342  0.00  0.00    +0.003 C 
ENDROOT
BRANCH   1   2
ATOM      2  C   LIG    1        2.119  -1.513   0.115  0.00  0.00    -0.014 C 
ATOM      3  C   LIG    1        1.771  -2.530   1.223  0.00  0.00    +0.007 C 
BRANCH   2   4
ATOM      4  C   LIG    1        3.658  -1.396  -0.036  0.00  0.00    +0.003 C 
BRANCH   4   5
ATOM      5  C   LIG    1        4.136  -0.628  -1.286  0.00  0.00    +0.001 C 
BRANCH   5   6
ATOM      6  C   LIG    1        5.670  -0.672  -1.459  0.00  0.00    +0.003 C 
BRANCH   6   7
ATOM      7  C   LIG    1        6.233   0.075  -2.695  0.00  0.00    -0.012 C 
ATOM      8  C   LIG    1        5.981   1.596  -2.621  0.00  0.00    +0.007 C 
BRANCH   7   9
ATOM      9  C   LIG    1        5.748  -0.547  -4.033  0.00  0.00    +0.031 C 
BRANCH   9  10
ATOM     10  C   LIG    1        6.458  -0.050  -5.309  0.00  0.00    +0.156 C 
BRANCH  10  11
ATOM     11  O   LIG    1        7.848  -0.299  -5.250  0.00  0.00    -0.395 OA
ATOM     12  H   LIG    1        8.252   0.031  -6.055  0.00  0.00    +0.209 HD
ENDBRANCH  10  11
ENDBRANCH   9  10
ENDBRANCH   7   9
ENDBRANCH   6   7
ENDBRANCH   5   6
ENDBRANCH   4   5
ENDBRANCH   2   4
ENDBRANCH   1   2
BRANCH   1  13
ATOM     13  C   LIG    1       -0.101  -0.172   0.408  0.00  0.00    +0.001 C 
BRANCH  13  14
ATOM     14  C   LIG    1       -0.730   1.233   0.513  0.00  0.00    +0.003 C 
BRANCH  14  15
ATOM     15  C   LIG    1       -2.279   1.262   0.483  0.00  0.00    -0.014 C 
ATOM     16  C   LIG    1       -2.901   0.529   1.693  0.00  0.00    +0.007 C 
BRANCH  15  17
ATOM     17  C   LIG    1       -2.790   2.720   0.358  0.00  0.00    +0.003 C 
BRANCH  17  18
ATOM     18  C   LIG    1       -4.306   2.864   0.111  0.00  0.00    +0.001 C 
BRANCH  18  19
ATOM     19  C   LIG    1       -4.736   4.326  -0.133  0.00  0.00    +0.003 C 
BRANCH  19  21
ATOM     20  C   LIG    1       -6.883   3.800  -1.454  0.00  0.00    +0.007 C 
ATOM     21  C   LIG    1       -6.263   4.542  -0.253  0.00  0.00    -0.017 C 
ATOM     22  C   LIG    1       -6.605   6.043  -0.305  0.00  0.00    +0.007 C 
ENDBRANCH  19  21
ENDBRANCH  18  19
ENDBRANCH  17  18
ENDBRANCH  15  17
ENDBRANCH  14  15
ENDBRANCH  13  14
ENDBRANCH   1  13
TORSDOF 15
