REMARK  Name = DB01605
REMARK                            x       y       z     vdW  Elec       q    Type
REMARK                         _______ _______ _______ _____ _____    ______ ____
ROOT
ATOM      1  C   LIG    1       -1.723   2.991   1.398  0.00  0.00    +0.223 C 
ATOM      2  C   LIG    1       -1.494   2.195   0.069  0.00  0.00    +0.244 C 
ATOM      3  O   LIG    1       -2.059   2.114  -1.021  0.00  0.00    -0.273 OA
ATOM      4  N   LIG    1       -0.347   1.604   0.595  0.00  0.00    -0.270 N 
ATOM      5  C   LIG    1        0.054   0.199   0.458  0.00  0.00    +0.201 C 
ATOM      6  C   LIG    1       -0.602  -0.536   1.689  0.00  0.00    +0.042 C 
ATOM      7  C   LIG    1        0.102  -1.803   2.235  0.00  0.00    +0.025 C 
ATOM      8  C   LIG    1       -2.068  -0.910   1.355  0.00  0.00    +0.025 C 
ATOM      9  S   LIG    1       -0.651   0.717   3.013  0.00  0.00    -0.127 S 
ATOM     10  C   LIG    1       -0.511   2.185   1.946  0.00  0.00    +0.169 C 
ENDROOT
BRANCH   1  11
ATOM     11  N   LIG    1       -2.959   2.892   2.175  0.00  0.00    -0.261 NA
ATOM     12  C   LIG    1       -4.085   2.693   1.607  0.00  0.00    +0.179 C 
BRANCH  12  13
ATOM     13  N   LIG    1       -5.368   2.513   2.134  0.00  0.00    -0.321 N 
ATOM     14  C   LIG    1       -6.442   2.965   1.227  0.00  0.00    +0.106 C 
ATOM     15  C   LIG    1       -7.909   2.757   1.661  0.00  0.00    +0.019 C 
ATOM     16  C   LIG    1       -8.317   3.458   2.966  0.00  0.00    +0.002 C 
ATOM     17  C   LIG    1       -7.992   2.673   4.245  0.00  0.00    +0.002 C 
ATOM     18  C   LIG    1       -6.681   1.868   4.225  0.00  0.00    +0.019 C 
ATOM     19  C   LIG    1       -5.464   2.576   3.604  0.00  0.00    +0.106 C 
ENDBRANCH  12  13
ENDBRANCH   1  11
BRANCH   5  20
ATOM     20  C   LIG    1        1.579  -0.019   0.310  0.00  0.00    +0.332 C 
ATOM     21  O   LIG    1        2.009  -1.080  -0.152  0.00  0.00    -0.249 OA
BRANCH  20  22
ATOM     22  O   LIG    1        2.337   1.040   0.736  0.00  0.00    -0.426 OA
BRANCH  22  23
ATOM     23  C   LIG    1        3.726   0.920   0.624  0.00  0.00    +0.472 C 
BRANCH  23  24
ATOM     24  O   LIG    1        4.160   1.109  -0.693  0.00  0.00    -0.427 OA
BRANCH  24  25
ATOM     25  C   LIG    1        5.479   0.866  -0.945  0.00  0.00    +0.315 C 
ATOM     26  O   LIG    1        6.325   0.540  -0.105  0.00  0.00    -0.250 OA
BRANCH  25  27
ATOM     27  C   LIG    1        5.836   1.039  -2.448  0.00  0.00    +0.059 C 
ATOM     28  C   LIG    1        5.423   2.452  -2.933  0.00  0.00    +0.022 C 
ATOM     29  C   LIG    1        7.361   0.866  -2.679  0.00  0.00    +0.022 C 
ATOM     30  C   LIG    1        5.094  -0.041  -3.275  0.00  0.00    +0.022 C 
ENDBRANCH  25  27
ENDBRANCH  24  25
ENDBRANCH  23  24
ENDBRANCH  22  23
ENDBRANCH  20  22
ENDBRANCH   5  20
TORSDOF 8
