REMARK  Name = DB01607
REMARK                            x       y       z     vdW  Elec       q    Type
REMARK                         _______ _______ _______ _____ _____    ______ ____
ROOT
ATOM      1  S   LIG    1        1.215  -2.642   1.476  0.00  0.00    -0.127 S 
ATOM      2  C   LIG    1        2.497  -3.724   0.774  0.00  0.00    +0.042 C 
ATOM      3  C   LIG    1        1.985  -5.160   0.543  0.00  0.00    +0.025 C 
ATOM      4  C   LIG    1        3.615  -3.795   1.855  0.00  0.00    +0.025 C 
ATOM      5  CA  LIG    1        2.949  -2.981  -0.535  0.00  0.00    +0.201 C 
ATOM      6  N   LIG    1        2.797  -1.545  -0.260  0.00  0.00    -0.271 N 
ATOM      7  C   LIG    1        2.056  -0.671  -1.064  0.00  0.00    +0.240 C 
ATOM      8  CA  LIG    1        1.454   0.008   0.188  0.00  0.00    +0.190 C 
ATOM      9  O   LIG    1        1.892  -0.578  -2.279  0.00  0.00    -0.273 OA
ATOM     10  C   LIG    1        2.106  -1.140   0.992  0.00  0.00    +0.165 C 
ENDROOT
BRANCH   8  11
ATOM     11  N   LIG    1       -0.008   0.092   0.204  0.00  0.00    -0.301 N 
ATOM     12  H   LIG    1       -0.490  -0.714   0.575  0.00  0.00    +0.150 HD
ATOM     13  C   LIG    1       -0.749   1.112  -0.270  0.00  0.00    +0.232 C 
ATOM     14  O   LIG    1       -0.240   2.112  -0.780  0.00  0.00    -0.275 OA
BRANCH  13  15
ATOM     15  C   LIG    1       -2.287   0.937  -0.143  0.00  0.00    +0.213 C 
BRANCH  15  16
ATOM     16  C   LIG    1       -2.693   0.679   1.309  0.00  0.00    -0.018 A 
ATOM     17  C   LIG    1       -3.186  -0.534   1.788  0.00  0.00    +0.050 A 
ATOM     18  S   LIG    1       -3.545  -0.527   3.483  0.00  0.00    -0.105 S 
ATOM     19  C   LIG    1       -3.039   1.123   3.587  0.00  0.00    +0.045 A 
ATOM     20  C   LIG    1       -2.619   1.615   2.360  0.00  0.00    +0.012 A 
ENDBRANCH  15  16
BRANCH  15  21
ATOM     21  C   LIG    1       -3.200   2.009  -0.794  0.00  0.00    +0.321 C 
ATOM     22  O   LIG    1       -2.814   3.081  -1.257  0.00  0.00    -0.250 OA
BRANCH  21  23
ATOM     23  O   LIG    1       -4.505   1.608  -0.797  0.00  0.00    -0.480 OA
ATOM     24  H   LIG    1       -5.084   2.260  -1.198  0.00  0.00    +0.295 HD
ENDBRANCH  21  23
ENDBRANCH  15  21
ENDBRANCH  13  15
ENDBRANCH   8  11
BRANCH   5  25
ATOM     25  C   LIG    1        4.353  -3.367  -1.052  0.00  0.00    +0.327 C 
ATOM     26  OXT LIG    1        5.325  -2.642  -0.993  0.00  0.00    -0.249 OA
BRANCH  25  27
ATOM     27  O   LIG    1        4.326  -4.612  -1.609  0.00  0.00    -0.479 OA
ATOM     28  H   LIG    1        5.181  -4.873  -1.957  0.00  0.00    +0.295 HD
ENDBRANCH  25  27
ENDBRANCH   5  25
TORSDOF 7
