REMARK  Name = DB02901
REMARK                            x       y       z     vdW  Elec       q    Type
REMARK                         _______ _______ _______ _____ _____    ______ ____
ROOT
ATOM      1  C   LIG    1       -0.131   0.039  -2.607  0.00  0.00    +0.075 C 
ATOM      2  C   LIG    1       -0.459  -0.678  -1.279  0.00  0.00    +0.015 C 
ATOM      3  C   LIG    1        0.156   0.008  -0.022  0.00  0.00    -0.025 C 
ATOM      4  C   LIG    1        1.712   0.031  -0.135  0.00  0.00    +0.012 C 
ATOM      5  C   LIG    1       -0.318  -0.717   1.299  0.00  0.00    -0.001 C 
ATOM      6  C   LIG    1        0.010  -2.247   1.361  0.00  0.00    +0.005 C 
ATOM      7  C   LIG    1       -0.400  -2.907   2.702  0.00  0.00    +0.010 C 
ATOM      8  C   LIG    1        0.204  -2.154   3.915  0.00  0.00    -0.003 C 
ATOM      9  C   LIG    1        1.762  -2.253   3.915  0.00  0.00    +0.014 C 
ATOM     10  C   LIG    1       -0.342  -2.590   5.298  0.00  0.00    +0.121 C 
ATOM     11  C   LIG    1       -0.233  -1.339   6.199  0.00  0.00    +0.032 C 
ATOM     12  C   LIG    1       -0.106  -0.128   5.254  0.00  0.00    +0.007 C 
ATOM     13  C   LIG    1       -0.352  -0.712   3.857  0.00  0.00    +0.001 C 
ATOM     14  C   LIG    1        0.133   0.051   2.596  0.00  0.00    -0.004 C 
ATOM     15  C   LIG    1       -0.402   1.504   2.565  0.00  0.00    +0.004 C 
ATOM     16  C   LIG    1        0.012   2.237   1.277  0.00  0.00    +0.005 C 
ATOM     17  C   LIG    1       -0.443   1.460   0.017  0.00  0.00    +0.002 C 
ATOM     18  C   LIG    1       -0.185   2.272  -1.283  0.00  0.00    +0.078 C 
ATOM     19  C   LIG    1       -0.569   1.510  -2.562  0.00  0.00    +0.134 C 
ATOM     20  O   LIG    1       -1.215   2.031  -3.469  0.00  0.00    -0.297 OA
ENDROOT
BRANCH  10  21
ATOM     21  O   LIG    1        0.155  -3.786   5.866  0.00  0.00    -0.391 OA
ATOM     22  H   LIG    1       -0.203  -4.529   5.374  0.00  0.00    +0.210 HD
ENDBRANCH  10  21
TORSDOF 1
