REMARK  Name = DB02342
REMARK                            x       y       z     vdW  Elec       q    Type
REMARK                         _______ _______ _______ _____ _____    ______ ____
ROOT
ATOM      1  C   LIG    1       -6.598  -3.876   0.675  0.00  0.00    +0.007 C 
ATOM      2  C   LIG    1       -6.836  -5.369   0.977  0.00  0.00    +0.032 C 
ATOM      3  C   LIG    1       -5.443  -6.037   1.012  0.00  0.00    +0.121 C 
ATOM      4  C   LIG    1       -4.433  -4.883   1.224  0.00  0.00    -0.003 C 
ATOM      5  C   LIG    1       -4.335  -4.543   2.744  0.00  0.00    +0.014 C 
ATOM      6  C   LIG    1       -3.025  -5.121   0.622  0.00  0.00    +0.010 C 
ATOM      7  C   LIG    1       -2.161  -3.832   0.638  0.00  0.00    +0.009 C 
ATOM      8  C   LIG    1       -2.884  -2.609  -0.015  0.00  0.00    +0.023 C 
ATOM      9  C   LIG    1       -4.359  -2.434   0.466  0.00  0.00    +0.000 C 
ATOM     10  C   LIG    1       -5.006  -1.308  -0.357  0.00  0.00    +0.009 C 
ATOM     11  C   LIG    1       -4.344   0.033  -0.013  0.00  0.00    +0.036 C 
ATOM     12  C   LIG    1       -2.814  -0.035  -0.059  0.00  0.00    -0.040 A 
ATOM     13  C   LIG    1       -2.087   1.157  -0.122  0.00  0.00    +0.053 A 
ATOM     14  C   LIG    1       -0.697   1.165  -0.099  0.00  0.00    +0.159 A 
ATOM     15  C   LIG    1        0.013  -0.034  -0.011  0.00  0.00    +0.162 A 
ATOM     16  C   LIG    1       -0.713  -1.234   0.042  0.00  0.00    +0.053 A 
ATOM     17  C   LIG    1       -2.117  -1.268   0.009  0.00  0.00    -0.037 A 
ATOM     18  C   LIG    1       -5.101  -3.790   0.355  0.00  0.00    +0.001 C 
ENDROOT
BRANCH   3  19
ATOM     19  O   LIG    1       -5.345  -7.175   1.847  0.00  0.00    -0.391 OA
ATOM     20  H   LIG    1       -4.561  -7.669   1.597  0.00  0.00    +0.210 HD
ENDBRANCH   3  19
BRANCH  15  21
ATOM     21  O   LIG    1        1.395   0.038   0.011  0.00  0.00    -0.491 OA
ATOM     22  C   LIG    1        2.158  -1.161   0.104  0.00  0.00    +0.277 C 
ENDBRANCH  15  21
BRANCH  14  23
ATOM     23  O   LIG    1       -0.038   2.367  -0.157  0.00  0.00    -0.503 OA
ATOM     24  H   LIG    1       -0.634   3.118  -0.209  0.00  0.00    +0.292 HD
ENDBRANCH  14  23
TORSDOF 3
