REMARK  Name = DB02709
REMARK                            x       y       z     vdW  Elec       q    Type
REMARK                         _______ _______ _______ _____ _____    ______ ____
ROOT
ATOM      1  C   LIG    1       -0.771   1.042   0.249  0.00  0.00    +0.008 C 
ATOM      2  C   LIG    1        0.066   0.112  -0.258  0.00  0.00    +0.009 C 
ENDROOT
BRANCH   1   6
ATOM      3  C   LIG    1       -5.033   1.186  -0.024  0.00  0.00    +0.117 A 
ATOM      4  C   LIG    1       -4.340   0.239  -0.774  0.00  0.00    +0.046 A 
ATOM      5  C   LIG    1       -2.950   0.180  -0.700  0.00  0.00    +0.011 A 
ATOM      6  C   LIG    1       -2.246   1.069   0.125  0.00  0.00    -0.025 A 
ATOM      7  C   LIG    1       -2.957   2.015   0.871  0.00  0.00    +0.011 A 
ATOM      8  C   LIG    1       -4.346   2.075   0.798  0.00  0.00    +0.046 A 
BRANCH   3   9
ATOM      9  O   LIG    1       -6.400   1.243  -0.095  0.00  0.00    -0.507 OA
ATOM     10  H   LIG    1       -6.772   0.587  -0.688  0.00  0.00    +0.292 HD
ENDBRANCH   3   9
ENDBRANCH   1   6
BRANCH   2  11
ATOM     11  C   LIG    1        1.539   0.082  -0.130  0.00  0.00    -0.018 A 
ATOM     12  C   LIG    1        2.261  -0.827  -0.913  0.00  0.00    +0.053 A 
ATOM     13  C   LIG    1        3.653  -0.894  -0.831  0.00  0.00    +0.121 A 
ATOM     14  C   LIG    1        4.341  -0.047   0.037  0.00  0.00    +0.090 A 
ATOM     15  C   LIG    1        3.636   0.864   0.822  0.00  0.00    +0.121 A 
ATOM     16  C   LIG    1        2.244   0.929   0.739  0.00  0.00    +0.053 A 
BRANCH  13  17
ATOM     17  O   LIG    1        4.344  -1.791  -1.601  0.00  0.00    -0.507 OA
ATOM     18  H   LIG    1        3.773  -2.326  -2.156  0.00  0.00    +0.292 HD
ENDBRANCH  13  17
BRANCH  15  19
ATOM     19  O   LIG    1        4.312   1.696   1.675  0.00  0.00    -0.507 OA
ATOM     20  H   LIG    1        3.731   2.283   2.163  0.00  0.00    +0.292 HD
ENDBRANCH  15  19
ENDBRANCH   2  11
TORSDOF 5
