REMARK  Name = DB02292
REMARK                            x       y       z     vdW  Elec       q    Type
REMARK                         _______ _______ _______ _____ _____    ______ ____
ROOT
ATOM      1  C   LIG    1        2.115  -1.295   0.065  0.00  0.00    +0.161 A 
ATOM      2  C   LIG    1        2.430  -1.934   1.264  0.00  0.00    +0.095 A 
ATOM      3  C   LIG    1        3.062  -3.177   1.243  0.00  0.00    +0.143 A 
ATOM      4  O   LIG    1        3.333  -3.754   2.469  0.00  0.00    -0.422 OA
ATOM      5  C   LIG    1        3.896  -5.006   2.585  0.00  0.00    +0.341 A 
ATOM      6  O   LIG    1        4.039  -5.394   3.745  0.00  0.00    -0.245 OA
ATOM      7  C   LIG    1        4.271  -5.712   1.327  0.00  0.00    +0.041 A 
ATOM      8  C   LIG    1        4.839  -7.121   1.534  0.00  0.00    +0.042 C 
ATOM      9  C   LIG    1        6.304  -7.319   1.101  0.00  0.00    +0.005 C 
ATOM     10  C   LIG    1        6.634  -6.869  -0.334  0.00  0.00    +0.001 C 
ATOM     11  C   LIG    1        5.445  -6.955  -1.307  0.00  0.00    +0.005 C 
ATOM     12  C   LIG    1        4.474  -5.752  -1.245  0.00  0.00    +0.036 C 
ATOM     13  C   LIG    1        4.069  -5.130   0.110  0.00  0.00    -0.027 A 
ATOM     14  C   LIG    1        3.403  -3.799   0.033  0.00  0.00    +0.021 A 
ATOM     15  C   LIG    1        3.077  -3.143  -1.167  0.00  0.00    +0.015 A 
ATOM     16  C   LIG    1        2.443  -1.900  -1.149  0.00  0.00    +0.049 A 
ENDROOT
BRANCH   1  17
ATOM     17  O   LIG    1        1.499  -0.073   0.077  0.00  0.00    -0.334 OA
BRANCH  17  18
ATOM     18  S   LIG    1       -0.168  -0.066   0.111  0.00  0.00    +0.189 S 
ATOM     19  O   LIG    1       -0.604  -0.578   1.415  0.00  0.00    -0.119 OA
ATOM     20  O   LIG    1       -0.657  -0.647  -1.144  0.00  0.00    -0.119 OA
BRANCH  18  21
ATOM     21  N   LIG    1       -0.484   1.656   0.071  0.00  0.00    -0.174 NA
ATOM     22  H   LIG    1       -0.237   2.121  -0.807  0.00  0.00    +0.147 HD
ATOM     23  H   LIG    1       -0.198   2.168   0.910  0.00  0.00    +0.147 HD
ENDBRANCH  18  21
ENDBRANCH  17  18
ENDBRANCH   1  17
TORSDOF 3
