REMARK  Name = DB02594
REMARK                            x       y       z     vdW  Elec       q    Type
REMARK                         _______ _______ _______ _____ _____    ______ ____
ROOT
ATOM      1  C1*   C A  1       -0.095  -0.270   0.269  0.00  0.00    +0.226 C 
ATOM      2  C2*   C A  1       -0.635  -0.371   1.692  0.00  0.00    +0.088 C 
ATOM      3  C3*   C A  1       -2.072   0.080   1.461  0.00  0.00    +0.150 C 
ATOM      4  C4*   C A  1       -1.955   1.118   0.326  0.00  0.00    +0.175 C 
ATOM      5  O4*   C A  1       -0.672   0.887  -0.255  0.00  0.00    -0.348 OA
ENDROOT
BRANCH   1   6
ATOM      6  N1    C A  1        1.359  -0.231   0.104  0.00  0.00    -0.273 N 
ATOM      7  C6    C A  1        2.054   0.793   0.705  0.00  0.00    +0.096 A 
ATOM      8  C5    C A  1        3.380   0.940   0.580  0.00  0.00    +0.061 A 
ATOM      9  C4    C A  1        4.066  -0.032  -0.220  0.00  0.00    +0.123 A 
ATOM     10  N3    C A  1        3.426  -0.988  -0.801  0.00  0.00    -0.178 NA
ATOM     11  C2    C A  1        2.024  -1.145  -0.707  0.00  0.00    +0.352 A 
ATOM     12  O2    C A  1        1.392  -2.029  -1.288  0.00  0.00    -0.244 OA
BRANCH   9  13
ATOM     13  N4    C A  1        5.395   0.087  -0.341  0.00  0.00    -0.343 N 
ATOM     14  H41   C A  1        5.917  -0.576  -0.895  0.00  0.00    +0.144 HD
ATOM     15  H42   C A  1        5.889   0.837   0.122  0.00  0.00    +0.144 HD
ENDBRANCH   9  13
ENDBRANCH   1   6
BRANCH   3  16
ATOM     16  O3*   C A  1       -2.916  -1.007   1.121  0.00  0.00    -0.389 OA
ATOM     17  H3*   C A  1       -3.809  -0.677   1.003  0.00  0.00    +0.210 HD
ENDBRANCH   3  16
BRANCH   4  18
ATOM     18  C5*   C A  1       -2.049   2.599   0.753  0.00  0.00    +0.190 C 
BRANCH  18  19
ATOM     19  O5*   C A  1       -1.095   2.945   1.739  0.00  0.00    -0.392 OA
ATOM     20  H5*   C A  1       -1.199   3.875   1.953  0.00  0.00    +0.210 HD
ENDBRANCH  18  19
ENDBRANCH   4  18
TORSDOF 5
