REMARK  Name = DB02587
REMARK                            x       y       z     vdW  Elec       q    Type
REMARK                         _______ _______ _______ _____ _____    ______ ____
ROOT
ATOM      1  C   LIG    1       -4.167  -1.696  -0.044  0.00  0.00    +0.124 C 
ATOM      2  C   LIG    1       -2.571  -1.722   0.012  0.00  0.00    +0.038 C 
ATOM      3  C   LIG    1       -2.176  -3.242  -0.041  0.00  0.00    +0.017 C 
ATOM      4  C   LIG    1       -1.975  -1.021   1.343  0.00  0.00    +0.164 C 
ATOM      5  C   LIG    1       -2.451  -1.599   2.707  0.00  0.00    +0.171 C 
ATOM      6  C   LIG    1       -1.966  -0.780   3.912  0.00  0.00    +0.116 C 
ATOM      7  C   LIG    1       -0.446  -0.443   3.853  0.00  0.00    +0.092 C 
ATOM      8  C   LIG    1        0.404  -1.546   4.530  0.00  0.00    +0.046 C 
ATOM      9  O   LIG    1        0.007  -0.163   2.507  0.00  0.00    -0.356 OA
ATOM     10  O   LIG    1       -3.138  -2.611   2.844  0.00  0.00    -0.294 OA
ATOM     11  C   LIG    1       -0.390  -0.981   1.381  0.00  0.00    +0.143 C 
ATOM     12  C   LIG    1        0.345  -2.353   1.507  0.00  0.00    +0.049 C 
ATOM     13  C   LIG    1        0.123  -0.196   0.132  0.00  0.00    +0.240 C 
ATOM     14  C   LIG    1       -0.427  -0.722  -1.232  0.00  0.00    +0.162 C 
ATOM     15  C   LIG    1       -1.987  -0.929  -1.251  0.00  0.00    +0.039 C 
ATOM     16  C   LIG    1       -2.619  -1.278  -2.668  0.00  0.00    -0.029 C 
ATOM     17  C   LIG    1       -2.169  -0.212  -3.704  0.00  0.00    +0.011 C 
ATOM     18  C   LIG    1       -2.315  -2.703  -3.209  0.00  0.00    +0.011 C 
ATOM     19  C   LIG    1       -4.157  -1.107  -2.526  0.00  0.00    +0.009 C 
ATOM     20  C   LIG    1       -4.759  -2.017  -1.440  0.00  0.00    +0.032 C 
ENDROOT
BRANCH   7  21
ATOM     21  C   LIG    1       -0.241   0.826   4.682  0.00  0.00    -0.000 C 
ATOM     22  C   LIG    1        0.271   1.994   4.254  0.00  0.00    +0.007 C 
ENDBRANCH   7  21
BRANCH   4  23
ATOM     23  O   LIG    1       -2.393   0.350   1.368  0.00  0.00    -0.377 OA
ATOM     24  H   LIG    1       -2.051   0.790   0.587  0.00  0.00    +0.211 HD
ENDBRANCH   4  23
BRANCH  14  25
ATOM     25  O   LIG    1        0.304  -1.839  -1.701  0.00  0.00    -0.388 OA
ATOM     26  H   LIG    1        0.002  -2.049  -2.587  0.00  0.00    +0.210 HD
ENDBRANCH  14  25
BRANCH   1  27
ATOM     27  O   LIG    1       -4.776  -0.488   0.380  0.00  0.00    -0.391 OA
ATOM     28  H   LIG    1       -4.478  -0.294   1.272  0.00  0.00    +0.210 HD
ENDBRANCH   1  27
BRANCH  13  29
ATOM     29  O   LIG    1        1.551  -0.066   0.145  0.00  0.00    -0.456 OA
BRANCH  29  30
ATOM     30  C   LIG    1        2.185   0.979  -0.434  0.00  0.00    +0.304 C 
ATOM     31  C   LIG    1        3.699   0.882  -0.295  0.00  0.00    +0.136 C 
ATOM     32  O   LIG    1        1.653   1.923  -1.019  0.00  0.00    -0.251 OA
ENDBRANCH  29  30
ENDBRANCH  13  29
TORSDOF 6
