REMARK  Name = DB02424
REMARK                            x       y       z     vdW  Elec       q    Type
REMARK                         _______ _______ _______ _____ _____    ______ ____
ROOT
ATOM      1  C   LIG    1       -0.751   1.344   0.032  0.00  0.00    +0.047 C 
ATOM      2  C   LIG    1       -0.048   2.699  -0.149  0.00  0.00    +0.046 C 
ATOM      3  C   LIG    1        0.427   3.395   1.154  0.00  0.00    -0.007 C 
ATOM      4  C   LIG    1        1.212   4.678   0.808  0.00  0.00    +0.008 C 
ATOM      5  C   LIG    1       -0.721   3.658   2.170  0.00  0.00    +0.037 C 
ATOM      6  C   LIG    1       -0.291   4.296   3.513  0.00  0.00    +0.147 C 
ATOM      7  C   LIG    1       -1.438   4.469   4.562  0.00  0.00    +0.150 C 
ATOM      8  C   LIG    1       -2.615   5.428   4.189  0.00  0.00    +0.040 C 
ATOM      9  C   LIG    1       -2.143   6.745   3.542  0.00  0.00    +0.014 C 
ATOM     10  C   LIG    1       -3.775   4.797   3.412  0.00  0.00    -0.019 C 
ATOM     11  C   LIG    1       -5.095   5.032   3.595  0.00  0.00    -0.033 C 
ATOM     12  C   LIG    1       -5.627   6.077   4.576  0.00  0.00    +0.042 C 
ATOM     13  C   LIG    1       -6.149   4.325   2.726  0.00  0.00    +0.236 C 
ATOM     14  C   LIG    1       -7.073   3.333   3.488  0.00  0.00    +0.186 C 
ATOM     15  C   LIG    1       -8.123   2.665   2.597  0.00  0.00    +0.008 C 
ATOM     16  C   LIG    1       -7.960   1.583   1.812  0.00  0.00    -0.001 C 
ATOM     17  C   LIG    1       -6.702   0.879   1.627  0.00  0.00    +0.008 C 
ATOM     18  C   LIG    1       -6.504  -0.232   0.871  0.00  0.00    +0.012 C 
ATOM     19  C   LIG    1       -7.574  -0.989   0.082  0.00  0.00    +0.049 C 
ATOM     20  C   LIG    1       -5.169  -0.790   0.725  0.00  0.00    +0.244 C 
ATOM     21  O   LIG    1       -4.962  -2.000   0.828  0.00  0.00    -0.270 OA
ATOM     22  N   LIG    1       -4.230   0.148   0.452  0.00  0.00    -0.279 N 
ATOM     23  H   LIG    1       -4.582   1.092   0.379  0.00  0.00    +0.155 HD
ATOM     24  C   LIG    1       -2.867   0.072   0.288  0.00  0.00    +0.085 C 
ATOM     25  C   LIG    1       -2.150  -1.088   0.300  0.00  0.00    +0.081 C 
ATOM     26  C   LIG    1       -0.695  -1.171   0.146  0.00  0.00    +0.222 C 
ATOM     27  O   LIG    1       -0.092  -2.242   0.093  0.00  0.00    -0.284 OA
ATOM     28  C   LIG    1       -2.238   1.407   0.103  0.00  0.00    +0.207 C 
ATOM     29  O   LIG    1       -2.878   2.463   0.038  0.00  0.00    -0.286 OA
ATOM     30  C   LIG    1       -0.065   0.168   0.068  0.00  0.00    +0.173 C 
ENDROOT
BRANCH   6  31
ATOM     31  O   LIG    1        0.770   3.496   4.042  0.00  0.00    -0.377 OA
ATOM     32  C   LIG    1        1.648   4.144   4.955  0.00  0.00    +0.194 C 
ENDBRANCH   6  31
BRANCH   7  33
ATOM     33  O   LIG    1       -1.934   3.205   4.976  0.00  0.00    -0.389 OA
ATOM     34  H   LIG    1       -2.319   2.766   4.214  0.00  0.00    +0.210 HD
ENDBRANCH   7  33
BRANCH  14  35
ATOM     35  O   LIG    1       -7.705   4.001   4.581  0.00  0.00    -0.372 OA
ATOM     36  C   LIG    1       -8.277   3.155   5.572  0.00  0.00    +0.195 C 
ENDBRANCH  14  35
BRANCH  30  37
ATOM     37  O   LIG    1        1.289   0.168  -0.052  0.00  0.00    -0.491 OA
ATOM     38  C   LIG    1        2.020  -0.149   1.132  0.00  0.00    +0.277 C 
ENDBRANCH  30  37
BRANCH  13  39
ATOM     39  O   LIG    1       -6.950   5.263   1.996  0.00  0.00    -0.440 OA
BRANCH  39  40
ATOM     40  C   LIG    1       -6.481   5.904   0.900  0.00  0.00    +0.398 C 
ATOM     41  N   LIG    1       -7.451   6.753   0.420  0.00  0.00    -0.295 N 
ATOM     42  H   LIG    1       -7.258   7.310  -0.399  0.00  0.00    +0.148 HD
ATOM     43  H   LIG    1       -8.339   6.812   0.896  0.00  0.00    +0.148 HD
ATOM     44  O   LIG    1       -5.363   5.753   0.408  0.00  0.00    -0.227 OA
ENDBRANCH  39  40
ENDBRANCH  13  39
TORSDOF 6
