REMARK  Name = DB02772
REMARK                            x       y       z     vdW  Elec       q    Type
REMARK                         _______ _______ _______ _____ _____    ______ ____
ROOT
ATOM      1  O   LIG    1        1.290  -0.290  -0.212  0.00  0.00    -0.313 OA
ENDROOT
BRANCH   1   2
ATOM      2  C   LIG    1        1.887   0.522  -1.196  0.00  0.00    +0.285 C 
ATOM      3  C   LIG    1        2.913  -0.318  -1.976  0.00  0.00    +0.201 C 
ATOM      4  C   LIG    1        4.069  -0.762  -1.051  0.00  0.00    +0.179 C 
ATOM      5  C   LIG    1        4.683   0.461  -0.340  0.00  0.00    +0.177 C 
ATOM      6  C   LIG    1        3.578   1.343   0.301  0.00  0.00    +0.178 C 
ATOM      7  O   LIG    1        2.515   1.643  -0.622  0.00  0.00    -0.340 OA
BRANCH   3   8
ATOM      8  O   LIG    1        2.299  -1.401  -2.652  0.00  0.00    -0.384 OA
ATOM      9  H   LIG    1        1.716  -1.049  -3.329  0.00  0.00    +0.210 HD
ENDBRANCH   3   8
BRANCH   5  10
ATOM     10  O   LIG    1        5.641   0.058   0.625  0.00  0.00    -0.386 OA
ATOM     11  H   LIG    1        6.337  -0.427   0.176  0.00  0.00    +0.210 HD
ENDBRANCH   5  10
BRANCH   4  12
ATOM     12  O   LIG    1        5.055  -1.493  -1.762  0.00  0.00    -0.386 OA
ATOM     13  H   LIG    1        5.409  -0.932  -2.457  0.00  0.00    +0.210 HD
ENDBRANCH   4  12
BRANCH   6  14
ATOM     14  C   LIG    1        4.114   2.670   0.886  0.00  0.00    +0.190 C 
BRANCH  14  15
ATOM     15  O   LIG    1        4.713   3.484  -0.104  0.00  0.00    -0.392 OA
ATOM     16  H   LIG    1        5.026   4.290   0.312  0.00  0.00    +0.210 HD
ENDBRANCH  14  15
ENDBRANCH   6  14
ENDBRANCH   1   2
BRANCH   1  17
ATOM     17  C   LIG    1       -0.112  -0.210  -0.045  0.00  0.00    +0.225 C 
ATOM     18  C   LIG    1       -0.478  -0.711   1.361  0.00  0.00    +0.207 C 
ATOM     19  C   LIG    1       -0.239   0.565   2.160  0.00  0.00    +0.179 C 
ATOM     20  C   LIG    1       -0.741   1.670   1.224  0.00  0.00    +0.178 C 
ATOM     21  O   LIG    1       -0.581   1.111  -0.076  0.00  0.00    -0.336 OA
BRANCH  18  22
ATOM     22  O   LIG    1        0.296  -1.825   1.774  0.00  0.00    -0.384 OA
ATOM     23  H   LIG    1       -0.062  -2.614   1.359  0.00  0.00    +0.210 HD
ENDBRANCH  18  22
BRANCH  19  24
ATOM     24  O   LIG    1       -0.905   0.558   3.409  0.00  0.00    -0.386 OA
ATOM     25  H   LIG    1       -1.847   0.464   3.253  0.00  0.00    +0.210 HD
ENDBRANCH  19  24
BRANCH  17  26
ATOM     26  C   LIG    1       -0.777  -0.980  -1.202  0.00  0.00    +0.223 C 
BRANCH  26  27
ATOM     27  O   LIG    1       -0.457  -2.358  -1.181  0.00  0.00    -0.390 OA
ATOM     28  H   LIG    1       -0.846  -2.775  -1.954  0.00  0.00    +0.210 HD
ENDBRANCH  26  27
ENDBRANCH  17  26
BRANCH  20  29
ATOM     29  C   LIG    1        0.022   3.004   1.287  0.00  0.00    +0.190 C 
BRANCH  29  30
ATOM     30  O   LIG    1       -0.332   3.726   2.449  0.00  0.00    -0.392 OA
ATOM     31  H   LIG    1       -0.007   3.248   3.216  0.00  0.00    +0.210 HD
ENDBRANCH  29  30
ENDBRANCH  20  29
ENDBRANCH   1  17
TORSDOF 13
