REMARK  Name = DB02893
REMARK                            x       y       z     vdW  Elec       q    Type
REMARK                         _______ _______ _______ _____ _____    ______ ____
ROOT
ATOM      1  CA  MET A  1        2.086  -1.449   0.042  0.00  0.00    +0.161 C 
ENDROOT
BRANCH   1   2
ATOM      2  N   MET A  1        3.558  -1.429   0.014  0.00  0.00    -0.318 NA
ATOM      3  H1  MET A  1        3.935  -2.354  -0.136  0.00  0.00    +0.119 HD
ATOM      4  H2  MET A  1        3.936  -1.089   0.887  0.00  0.00    +0.119 HD
ENDBRANCH   1   2
BRANCH   1   5
ATOM      5  C   MET A  1        1.669  -2.284   1.270  0.00  0.00    +0.322 C 
ATOM      6  OXT MET A  1        2.032  -2.020   2.416  0.00  0.00    -0.249 OA
BRANCH   5   7
ATOM      7  O   MET A  1        0.846  -3.315   0.918  0.00  0.00    -0.480 OA
ATOM      8  H   MET A  1        0.572  -3.837   1.675  0.00  0.00    +0.295 HD
ENDBRANCH   5   7
ENDBRANCH   1   5
BRANCH   1   9
ATOM      9  CB  MET A  1        1.485  -0.024   0.044  0.00  0.00    +0.040 C 
BRANCH   9  10
ATOM     10  CG  MET A  1       -0.053   0.030   0.014  0.00  0.00    +0.071 C 
BRANCH  10  12
ATOM     11  CE  MET A  1       -2.497   1.326  -0.082  0.00  0.00    +0.084 C 
ATOM     12  SD  MET A  1       -0.727   1.709  -0.087  0.00  0.00    -0.164 S 
ENDBRANCH  10  12
ENDBRANCH   9  10
ENDBRANCH   1   9
TORSDOF 6
