REMARK  Name = DB02959
REMARK                            x       y       z     vdW  Elec       q    Type
REMARK                         _______ _______ _______ _____ _____    ______ ____
ROOT
ATOM      1  C   LIG    1        2.009  -1.448   0.004  0.00  0.00    -0.020 A 
ATOM      2  C   LIG    1        2.305  -2.216   1.115  0.00  0.00    +0.087 A 
ATOM      3  N   LIG    1        2.769  -3.448   0.737  0.00  0.00    -0.360 N 
ATOM      4  H   LIG    1        3.040  -4.156   1.405  0.00  0.00    +0.165 HD
ATOM      5  C   LIG    1        2.794  -3.535  -0.636  0.00  0.00    +0.047 A 
ATOM      6  C   LIG    1        3.184  -4.577  -1.483  0.00  0.00    +0.030 A 
ATOM      7  C   LIG    1        3.089  -4.347  -2.856  0.00  0.00    +0.047 A 
ATOM      8  C   LIG    1        2.628  -3.137  -3.369  0.00  0.00    +0.118 A 
ATOM      9  C   LIG    1        2.241  -2.099  -2.523  0.00  0.00    +0.055 A 
ATOM     10  C   LIG    1        2.317  -2.282  -1.132  0.00  0.00    +0.006 A 
ENDROOT
BRANCH   8  11
ATOM     11  O   LIG    1        2.555  -2.965  -4.726  0.00  0.00    -0.507 OA
ATOM     12  H   LIG    1        2.221  -2.100  -4.973  0.00  0.00    +0.292 HD
ENDBRANCH   8  11
BRANCH   1  13
ATOM     13  C   LIG    1        1.469  -0.030  -0.022  0.00  0.00    +0.067 C 
BRANCH  13  14
ATOM     14  CA  LIG    1       -0.078   0.031  -0.050  0.00  0.00    +0.165 C 
BRANCH  14  15
ATOM     15  N   LIG    1       -0.672  -0.585  -1.252  0.00  0.00    -0.318 NA
ATOM     16  H1  LIG    1       -0.210  -0.275  -2.095  0.00  0.00    +0.119 HD
ATOM     17  H2  LIG    1       -1.653  -0.360  -1.339  0.00  0.00    +0.119 HD
ENDBRANCH  14  15
BRANCH  14  18
ATOM     18  C   LIG    1       -0.584   1.487   0.054  0.00  0.00    +0.322 C 
ATOM     19  O   LIG    1       -0.935   2.166  -0.913  0.00  0.00    -0.249 OA
BRANCH  18  20
ATOM     20  OXT LIG    1       -0.564   1.919   1.349  0.00  0.00    -0.480 OA
ATOM     21  HXT LIG    1       -0.867   2.825   1.436  0.00  0.00    +0.295 HD
ENDBRANCH  18  20
ENDBRANCH  14  18
ENDBRANCH  13  14
ENDBRANCH   1  13
TORSDOF 6
