REMARK  Name = DB02925
REMARK                            x       y       z     vdW  Elec       q    Type
REMARK                         _______ _______ _______ _____ _____    ______ ____
ROOT
ATOM      1  C   LIG    1        1.967  -0.166   0.055  0.00  0.00    +0.150 A 
ATOM      2  C   LIG    1        2.762  -0.225  -1.103  0.00  0.00    +0.176 A 
ATOM      3  C   LIG    1        4.130   0.100  -1.033  0.00  0.00    +0.075 A 
ATOM      4  C   LIG    1        4.695   0.386   0.217  0.00  0.00    +0.042 A 
ATOM      5  C   LIG    1        3.925   0.405   1.386  0.00  0.00    +0.063 A 
ATOM      6  C   LIG    1        2.555   0.134   1.286  0.00  0.00    +0.047 A 
ENDROOT
BRANCH   3   7
ATOM      7  N   LIG    1        4.932   0.065  -2.188  0.00  0.00    -0.327 N 
ATOM      8  C   LIG    1        5.418  -1.215  -2.701  0.00  0.00    +0.105 C 
ATOM      9  C   LIG    1        6.889  -1.371  -2.323  0.00  0.00    +0.020 C 
ATOM     10  C   LIG    1        7.385   0.058  -2.182  0.00  0.00    +0.020 C 
ATOM     11  C   LIG    1        6.122   0.902  -2.365  0.00  0.00    +0.105 C 
ENDBRANCH   3   7
BRANCH   1  12
ATOM     12  S   LIG    1        0.190  -0.451   0.003  0.00  0.00    +0.060 S 
ATOM     13  O   LIG    1       -0.009  -1.882  -0.248  0.00  0.00    -0.153 OA
ATOM     14  O   LIG    1       -0.396   0.187   1.188  0.00  0.00    -0.153 OA
BRANCH  12  15
ATOM     15  N   LIG    1       -0.397   0.427  -1.398  0.00  0.00    -0.203 NA
ATOM     16  H   LIG    1       -0.318   1.445  -1.321  0.00  0.00    +0.144 HD
ATOM     17  H   LIG    1       -0.052   0.067  -2.292  0.00  0.00    +0.144 HD
ENDBRANCH  12  15
ENDBRANCH   1  12
BRANCH   5  18
ATOM     18  C   LIG    1        4.572   0.718   2.716  0.00  0.00    +0.337 C 
ATOM     19  O   LIG    1        5.775   0.953   2.822  0.00  0.00    -0.245 OA
BRANCH  18  20
ATOM     20  O   LIG    1        3.724   0.722   3.787  0.00  0.00    -0.477 OA
ATOM     21  H   LIG    1        4.178   0.927   4.608  0.00  0.00    +0.295 HD
ENDBRANCH  18  20
ENDBRANCH   5  18
BRANCH   2  22
ATOM     22  O   LIG    1        2.197  -0.532  -2.323  0.00  0.00    -0.452 OA
BRANCH  22  23
ATOM     23  C   LIG    1        1.986  -1.840  -2.716  0.00  0.00    +0.129 A 
ATOM     24  C   LIG    1        2.356  -2.959  -1.952  0.00  0.00    +0.046 A 
ATOM     25  C   LIG    1        2.106  -4.244  -2.424  0.00  0.00    +0.004 A 
ATOM     26  C   LIG    1        1.487  -4.417  -3.660  0.00  0.00    +0.000 A 
ATOM     27  C   LIG    1        1.116  -3.315  -4.426  0.00  0.00    +0.004 A 
ATOM     28  C   LIG    1        1.367  -2.030  -3.953  0.00  0.00    +0.046 A 
ENDBRANCH  22  23
ENDBRANCH   2  22
TORSDOF 7
