REMARK  Name = DB02891
REMARK                            x       y       z     vdW  Elec       q    Type
REMARK                         _______ _______ _______ _____ _____    ______ ____
ROOT
ATOM      1  C   LIG    1       -0.045  -0.177   0.000  0.00  0.00    +0.046 C 
ATOM      2  C   LIG    1        1.465   0.017   0.000  0.00  0.00    -0.025 A 
ATOM      3  C   LIG    1        2.217   1.219   0.000  0.00  0.00    +0.067 A 
ATOM      4  N   LIG    1        1.779   2.491   0.000  0.00  0.00    -0.275 N 
ATOM      5  C   LIG    1        2.716   3.502   0.000  0.00  0.00    +0.201 A 
ATOM      6  S   LIG    1        4.313   2.822   0.000  0.00  0.00    -0.048 S 
ATOM      7  N   LIG    1        2.168   4.692   0.000  0.00  0.00    -0.122 NA
ATOM      8  N   LIG    1        0.797   4.472   0.000  0.00  0.00    -0.137 NA
ATOM      9  C   LIG    1        0.571   3.178   0.000  0.00  0.00    +0.230 A 
ATOM     10  C   LIG    1        3.644   1.193   0.000  0.00  0.00    +0.040 A 
ATOM     11  C   LIG    1        4.345  -0.017   0.000  0.00  0.00    +0.017 A 
ATOM     12  C   LIG    1        3.607  -1.193   0.000  0.00  0.00    +0.001 A 
ATOM     13  C   LIG    1        2.216  -1.168   0.000  0.00  0.00    +0.005 A 
ENDROOT
TORSDOF 0
