REMARK  Name = DB02300
REMARK                            x       y       z     vdW  Elec       q    Type
REMARK                         _______ _______ _______ _____ _____    ______ ____
ROOT
ATOM      1  C   LIG    1       -2.933  -3.322   1.708  0.00  0.00    -0.000 C 
ATOM      2  C   LIG    1       -2.497  -2.076   2.005  0.00  0.00    -0.066 C 
ATOM      3  C   LIG    1       -1.712  -1.194   1.021  0.00  0.00    +0.021 C 
ATOM      4  C   LIG    1       -1.464  -1.639  -0.422  0.00  0.00    +0.009 C 
ATOM      5  C   LIG    1       -0.336  -0.711  -0.892  0.00  0.00    +0.005 C 
ATOM      6  C   LIG    1        0.268  -0.021   0.369  0.00  0.00    +0.002 C 
ATOM      7  C   LIG    1       -0.302  -0.850   1.574  0.00  0.00    -0.022 C 
ATOM      8  C   LIG    1        0.557  -2.125   1.850  0.00  0.00    +0.012 C 
ATOM      9  C   LIG    1       -0.538  -0.027   2.873  0.00  0.00    +0.008 C 
ATOM     10  C   LIG    1       -1.356  -0.823   3.914  0.00  0.00    +0.005 C 
ATOM     11  C   LIG    1       -2.699  -1.348   3.346  0.00  0.00    +0.031 C 
ENDROOT
BRANCH   1  16
ATOM     12  C   LIG    1       -3.384  -7.457   0.915  0.00  0.00    +0.147 C 
ATOM     13  C   LIG    1       -4.016  -6.067   0.960  0.00  0.00    -0.023 C 
ATOM     14  C   LIG    1       -4.491  -5.469  -0.150  0.00  0.00    +0.015 C 
ATOM     15  C   LIG    1       -4.131  -5.449   2.283  0.00  0.00    -0.040 C 
ATOM     16  C   LIG    1       -3.664  -4.217   2.598  0.00  0.00    +0.004 C 
ATOM     17  C   LIG    1       -4.827  -6.314   3.331  0.00  0.00    +0.067 C 
ATOM     18  C   LIG    1       -4.170  -7.716   3.369  0.00  0.00    +0.122 C 
ATOM     19  C   LIG    1       -4.074  -8.364   1.965  0.00  0.00    +0.067 C 
BRANCH  12  20
ATOM     20  O   LIG    1       -1.992  -7.369   1.151  0.00  0.00    -0.387 OA
ATOM     21  H   LIG    1       -1.855  -7.001   2.027  0.00  0.00    +0.210 HD
ENDBRANCH  12  20
BRANCH  18  22
ATOM     22  O   LIG    1       -4.858  -8.564   4.266  0.00  0.00    -0.391 OA
ATOM     23  H   LIG    1       -4.260  -8.807   4.977  0.00  0.00    +0.210 HD
ENDBRANCH  18  22
ENDBRANCH   1  16
BRANCH   6  24
ATOM     24  C   LIG    1        1.822   0.183   0.272  0.00  0.00    +0.012 C 
ATOM     25  C   LIG    1        2.446   0.824   1.527  0.00  0.00    +0.012 C 
BRANCH  24  26
ATOM     26  C   LIG    1        2.303   0.945  -0.964  0.00  0.00    -0.025 C 
ATOM     27  C   LIG    1        1.584   1.770  -1.749  0.00  0.00    +0.000 C 
BRANCH  27  28
ATOM     28  C   LIG    1        2.130   2.498  -2.963  0.00  0.00    +0.140 C 
BRANCH  28  29
ATOM     29  C   LIG    1        2.028   4.028  -2.836  0.00  0.00    +0.022 C 
ATOM     30  C   LIG    1        3.154   4.819  -2.228  0.00  0.00    +0.007 C 
ATOM     31  C   LIG    1        2.857   4.922  -3.719  0.00  0.00    +0.007 C 
ENDBRANCH  28  29
BRANCH  28  32
ATOM     32  O   LIG    1        1.370   2.091  -4.081  0.00  0.00    -0.387 OA
ATOM     33  H   LIG    1        1.475   1.143  -4.190  0.00  0.00    +0.210 HD
ENDBRANCH  28  32
ENDBRANCH  27  28
ENDBRANCH  24  26
ENDBRANCH   6  24
TORSDOF 8
