REMARK  Name = DB02703
REMARK                            x       y       z     vdW  Elec       q    Type
REMARK                         _______ _______ _______ _____ _____    ______ ____
ROOT
ATOM      1  C   LIG    1        1.595   7.435   0.521  0.00  0.00    +0.010 C 
ATOM      2  C   LIG    1        1.997   8.878   0.913  0.00  0.00    +0.032 C 
ATOM      3  C   LIG    1        0.796   9.689   1.461  0.00  0.00    +0.118 C 
ATOM      4  C   LIG    1        0.027   8.914   2.577  0.00  0.00    +0.018 C 
ATOM      5  C   LIG    1       -1.174   9.725   3.116  0.00  0.00    +0.010 C 
ATOM      6  C   LIG    1       -0.350   7.475   2.078  0.00  0.00    +0.001 C 
ATOM      7  C   LIG    1       -1.256   6.632   2.994  0.00  0.00    +0.005 C 
ATOM      8  C   LIG    1       -1.905   5.464   2.220  0.00  0.00    +0.008 C 
ATOM      9  C   LIG    1       -1.030   4.781   1.095  0.00  0.00    -0.020 C 
ATOM     10  C   LIG    1       -1.525   5.426  -0.250  0.00  0.00    +0.012 C 
ATOM     11  C   LIG    1       -1.192   3.180   1.123  0.00  0.00    -0.016 C 
ATOM     12  C   LIG    1       -0.971   2.551   2.550  0.00  0.00    +0.012 C 
ATOM     13  C   LIG    1       -0.260   2.508   0.075  0.00  0.00    +0.028 C 
ATOM     14  C   LIG    1       -0.771   1.052  -0.061  0.00  0.00    -0.016 C 
ATOM     15  C   LIG    1       -0.098  -0.126  -0.246  0.00  0.00    +0.040 C 
ATOM     16  C   LIG    1       -2.304   1.246   0.067  0.00  0.00    +0.204 C 
ATOM     17  C   LIG    1        1.223   2.870   0.328  0.00  0.00    +0.040 C 
ATOM     18  C   LIG    1        1.446   4.400   0.258  0.00  0.00    +0.119 C 
ATOM     19  C   LIG    1       -2.543   2.673   0.605  0.00  0.00    +0.057 C 
ATOM     20  C   LIG    1        0.512   5.141   1.275  0.00  0.00    +0.030 C 
ATOM     21  C   LIG    1        0.923   6.636   1.684  0.00  0.00    -0.023 C 
ATOM     22  C   LIG    1        1.948   6.518   2.866  0.00  0.00    +0.012 C 
ENDROOT
BRANCH   3  23
ATOM     23  O   LIG    1       -0.062  10.052   0.392  0.00  0.00    -0.392 OA
ATOM     24  H   LIG    1        0.421  10.627  -0.206  0.00  0.00    +0.210 HD
ENDBRANCH   3  23
BRANCH  15  25
ATOM     25  C   LIG    1       -0.834  -1.364  -0.462  0.00  0.00    +0.333 C 
ATOM     26  O   LIG    1       -1.765  -1.480  -1.258  0.00  0.00    -0.245 OA
BRANCH  25  27
ATOM     27  O   LIG    1       -0.407  -2.390   0.332  0.00  0.00    -0.477 OA
ATOM     28  H   LIG    1       -0.908  -3.195   0.186  0.00  0.00    +0.295 HD
ENDBRANCH  25  27
ENDBRANCH  15  25
BRANCH  18  29
ATOM     29  O   LIG    1        1.337   4.866  -1.075  0.00  0.00    -0.391 OA
ATOM     30  H   LIG    1        1.531   5.806  -1.084  0.00  0.00    +0.210 HD
ENDBRANCH  18  29
BRANCH  15  31
ATOM     31  C   LIG    1        1.430  -0.315  -0.296  0.00  0.00    +0.046 C 
BRANCH  31  32
ATOM     32  C   LIG    1        2.027  -0.442  -1.715  0.00  0.00    +0.032 C 
BRANCH  32  33
ATOM     33  C   LIG    1        1.619   0.659  -2.685  0.00  0.00    -0.028 C 
ATOM     34  C   LIG    1        2.354   1.710  -3.108  0.00  0.00    -0.080 C 
ATOM     35  C   LIG    1        1.794   2.710  -4.105  0.00  0.00    +0.038 C 
ATOM     36  C   LIG    1        3.768   2.023  -2.640  0.00  0.00    +0.038 C 
ENDBRANCH  32  33
ENDBRANCH  31  32
ENDBRANCH  15  31
BRANCH  16  37
ATOM     37  O   LIG    1       -2.884   0.299   0.972  0.00  0.00    -0.457 OA
BRANCH  37  38
ATOM     38  C   LIG    1       -4.203   0.003   0.948  0.00  0.00    +0.305 C 
ATOM     39  O   LIG    1       -5.048   0.492   0.197  0.00  0.00    -0.251 OA
ATOM     40  C   LIG    1       -4.576  -1.044   1.990  0.00  0.00    +0.136 C 
ENDBRANCH  37  38
ENDBRANCH  16  37
TORSDOF 9
