REMARK  Name = DB02262
REMARK                            x       y       z     vdW  Elec       q    Type
REMARK                         _______ _______ _______ _____ _____    ______ ____
ROOT
ATOM      1  CA  LIG    1        1.485  -0.043   0.000  0.00  0.00    +0.133 A 
ATOM      2  N   LIG    1        2.073  -1.292   0.000  0.00  0.00    -0.302 N 
ATOM      3  H   LIG    1        1.498  -2.122   0.000  0.00  0.00    +0.171 HD
ATOM      4  C   LIG    1        3.423  -1.488   0.000  0.00  0.00    +0.327 A 
ATOM      5  O   LIG    1        3.941  -2.602   0.000  0.00  0.00    -0.247 OA
ATOM      6  N   LIG    1        4.146  -0.324   0.000  0.00  0.00    -0.275 N 
ATOM      7  H   LIG    1        5.149  -0.441   0.000  0.00  0.00    +0.173 HD
ATOM      8  C   LIG    1        3.712   0.970   0.000  0.00  0.00    +0.255 A 
ATOM      9  O   LIG    1        4.476   1.933   0.000  0.00  0.00    -0.268 OA
ATOM     10  C   LIG    1        2.262   1.074   0.000  0.00  0.00    +0.103 A 
ENDROOT
BRANCH   1  11
ATOM     11  C   LIG    1       -0.097   0.022   0.000  0.00  0.00    +0.354 C 
ATOM     12  OXT LIG    1       -0.602   1.169   0.000  0.00  0.00    -0.243 OA
BRANCH  11  13
ATOM     13  O   LIG    1       -0.699  -1.079   0.000  0.00  0.00    -0.476 OA
ATOM     14  H   LIG    1       -1.273  -1.299   0.707  0.00  0.00    +0.295 HD
ENDBRANCH  11  13
ENDBRANCH   1  11
TORSDOF 2
