REMARK  Name = DB02857
REMARK                            x       y       z     vdW  Elec       q    Type
REMARK                         _______ _______ _______ _____ _____    ______ ____
ROOT
ATOM      1  N9    G A  1        4.404  -0.108   2.269  0.00  0.00    -0.285 N 
ATOM      2  C4    G A  1        5.412   0.754   2.605  0.00  0.00    +0.171 A 
ATOM      3  N3    G A  1        6.192   1.476   1.747  0.00  0.00    -0.196 NA
ATOM      4  C2    G A  1        7.068   2.210   2.352  0.00  0.00    +0.195 A 
ATOM      5  N1    G A  1        7.192   2.246   3.733  0.00  0.00    -0.293 N 
ATOM      6  H1    G A  1        7.905   2.847   4.119  0.00  0.00    +0.172 HD
ATOM      7  C6    G A  1        6.454   1.554   4.662  0.00  0.00    +0.280 A 
ATOM      8  O6    G A  1        6.648   1.657   5.871  0.00  0.00    -0.265 OA
ATOM      9  C5    G A  1        5.473   0.741   3.972  0.00  0.00    +0.172 A 
ATOM     10  N7    G A  1        4.548  -0.077   4.495  0.00  0.00    -0.229 NA
ATOM     11  C8    G A  1        3.922  -0.558   3.448  0.00  0.00    +0.203 A 
ENDROOT
BRANCH   1  14
ATOM     12  C4*   G A  1        1.847  -0.057  -0.122  0.00  0.00    +0.177 C 
ATOM     13  O4*   G A  1        3.009   0.544   0.438  0.00  0.00    -0.346 OA
ATOM     14  C1*   G A  1        3.929  -0.419   0.861  0.00  0.00    +0.253 C 
ATOM     15  C2*   G A  1        3.311  -1.804   0.624  0.00  0.00    +0.195 C 
ATOM     16  C3*   G A  1        1.831  -1.420   0.571  0.00  0.00    +0.178 C 
BRANCH  15  17
ATOM     17  O2*   G A  1        3.827  -2.361  -0.576  0.00  0.00    -0.385 OA
ATOM     18  H2*   G A  1        3.471  -3.246  -0.681  0.00  0.00    +0.210 HD
ENDBRANCH  15  17
BRANCH  16  19
ATOM     19  O3*   G A  1        1.006  -2.372  -0.076  0.00  0.00    -0.386 OA
ATOM     20  H3*   G A  1        1.016  -3.185   0.434  0.00  0.00    +0.210 HD
ENDBRANCH  16  19
BRANCH  12  21
ATOM     21  C5*   G A  1        0.614   0.824   0.157  0.00  0.00    +0.190 C 
BRANCH  21  22
ATOM     22  O5*   G A  1        0.758   2.098  -0.438  0.00  0.00    -0.392 OA
ATOM     23  H5*   G A  1       -0.023   2.619  -0.241  0.00  0.00    +0.210 HD
ENDBRANCH  21  22
ENDBRANCH  12  21
ENDBRANCH   1  14
BRANCH   4  24
ATOM     24  N2    G A  1        7.915   2.985   1.663  0.00  0.00    -0.329 N 
ATOM     25  H21   G A  1        8.598   3.557   2.139  0.00  0.00    +0.145 HD
ATOM     26  H22   G A  1        7.876   3.006   0.654  0.00  0.00    +0.145 HD
ENDBRANCH   4  24
TORSDOF 6
