REMARK  Name = DB02266
REMARK                            x       y       z     vdW  Elec       q    Type
REMARK                         _______ _______ _______ _____ _____    ______ ____
ROOT
ATOM      1  N   LIG    1        1.260   0.067  -0.342  0.00  0.00    -0.314 N 
ATOM      2  H   LIG    1        1.753  -0.489   0.342  0.00  0.00    +0.152 HD
ENDROOT
BRANCH   1   4
ATOM      3  C   LIG    1       -0.734  -1.278   0.239  0.00  0.00    +0.080 A 
ATOM      4  C   LIG    1       -0.140  -0.091  -0.276  0.00  0.00    +0.045 A 
ATOM      5  C   LIG    1       -0.968   0.972  -0.671  0.00  0.00    +0.024 A 
ATOM      6  C   LIG    1       -2.353   0.872  -0.607  0.00  0.00    +0.002 A 
ATOM      7  C   LIG    1       -2.940  -0.292  -0.132  0.00  0.00    +0.001 A 
ATOM      8  C   LIG    1       -2.139  -1.350   0.289  0.00  0.00    +0.017 A 
BRANCH   3   9
ATOM      9  C   LIG    1        0.078  -2.474   0.726  0.00  0.00    +0.339 C 
ATOM     10  O   LIG    1        1.308  -2.508   0.721  0.00  0.00    -0.245 OA
BRANCH   9  11
ATOM     11  O   LIG    1       -0.662  -3.529   1.182  0.00  0.00    -0.477 OA
ATOM     12  H   LIG    1       -0.110  -4.256   1.478  0.00  0.00    +0.295 HD
ENDBRANCH   9  11
ENDBRANCH   3   9
ENDBRANCH   1   4
BRANCH   1  13
ATOM     13  C   LIG    1        2.109   0.865  -1.129  0.00  0.00    +0.032 A 
ATOM     14  C   LIG    1        3.437   1.002  -0.718  0.00  0.00    +0.023 A 
ATOM     15  C   LIG    1        4.335   1.767  -1.461  0.00  0.00    +0.002 A 
ATOM     16  C   LIG    1        3.915   2.392  -2.634  0.00  0.00    +0.012 A 
ATOM     17  C   LIG    1        2.594   2.249  -3.078  0.00  0.00    +0.057 A 
ATOM     18  C   LIG    1        1.701   1.480  -2.321  0.00  0.00    +0.035 A 
BRANCH  17  19
ATOM     19  C   LIG    1        2.114   2.906  -4.371  0.00  0.00    +0.417 C 
ATOM     20  F   LIG    1        1.154   3.787  -4.091  0.00  0.00    -0.166 F 
ATOM     21  F   LIG    1        1.619   1.979  -5.192  0.00  0.00    -0.166 F 
ATOM     22  F   LIG    1        3.093   3.546  -5.012  0.00  0.00    -0.166 F 
ENDBRANCH  17  19
ENDBRANCH   1  13
TORSDOF 5
