REMARK  Name = DB02056
REMARK                            x       y       z     vdW  Elec       q    Type
REMARK                         _______ _______ _______ _____ _____    ______ ____
ROOT
ATOM      1  C   LIG    1       -0.736   1.359  -0.266  0.00  0.00    +0.036 C 
ATOM      2  C   LIG    1        0.018   0.078  -0.667  0.00  0.00    +0.084 C 
ATOM      3  C   LIG    1       -0.371  -0.930   0.426  0.00  0.00    +0.143 C 
ATOM      4  O   LIG    1        0.198  -1.990   0.684  0.00  0.00    -0.297 OA
ATOM      5  C   LIG    1       -1.596  -0.370   1.160  0.00  0.00    +0.106 C 
ATOM      6  C   LIG    1       -2.051   0.842   0.336  0.00  0.00    +0.126 C 
ENDROOT
BRANCH   2   7
ATOM      7  C   LIG    1        1.525   0.265  -0.756  0.00  0.00    -0.017 C 
ATOM      8  C   LIG    1        2.242   0.074  -1.877  0.00  0.00    +0.000 C 
BRANCH   8   9
ATOM      9  C   LIG    1        3.743   0.261  -1.987  0.00  0.00    +0.137 C 
BRANCH   9  10
ATOM     10  O   LIG    1        3.969   1.279  -2.942  0.00  0.00    -0.388 OA
ATOM     11  H   LIG    1        3.555   2.086  -2.628  0.00  0.00    +0.210 HD
ENDBRANCH   9  10
BRANCH   9  12
ATOM     12  C   LIG    1        4.477  -1.029  -2.410  0.00  0.00    +0.035 C 
BRANCH  12  13
ATOM     13  C   LIG    1        6.013  -0.897  -2.446  0.00  0.00    +0.003 C 
BRANCH  13  14
ATOM     14  C   LIG    1        6.720  -2.207  -2.846  0.00  0.00    -0.000 C 
BRANCH  14  15
ATOM     15  C   LIG    1        8.251  -2.085  -2.977  0.00  0.00    -0.003 C 
ATOM     16  C   LIG    1        8.976  -1.785  -1.656  0.00  0.00    +0.004 C 
ENDBRANCH  14  15
ENDBRANCH  13  14
ENDBRANCH  12  13
ENDBRANCH   9  12
ENDBRANCH   8   9
ENDBRANCH   2   7
BRANCH   6  17
ATOM     17  O   LIG    1       -2.990   0.430  -0.645  0.00  0.00    -0.391 OA
ATOM     18  H   LIG    1       -3.328   1.212  -1.089  0.00  0.00    +0.210 HD
ENDBRANCH   6  17
BRANCH   1  19
ATOM     19  C   LIG    1       -0.878   2.368  -1.431  0.00  0.00    +0.034 C 
BRANCH  19  21
ATOM     20  C   LIG    1       -2.749   4.128  -1.531  0.00  0.00    -0.031 C 
ATOM     21  C   LIG    1       -1.581   3.661  -1.049  0.00  0.00    -0.031 C 
BRANCH  20  22
ATOM     22  C   LIG    1       -3.659   3.458  -2.547  0.00  0.00    +0.027 C 
BRANCH  22  23
ATOM     23  C   LIG    1       -3.544   4.070  -3.954  0.00  0.00    +0.015 C 
BRANCH  23  24
ATOM     24  C   LIG    1       -4.457   3.362  -4.987  0.00  0.00    +0.121 C 
BRANCH  24  25
ATOM     25  C   LIG    1       -4.359   3.903  -6.435  0.00  0.00    +0.305 C 
ATOM     26  O   LIG    1       -5.089   3.338  -7.281  0.00  0.00    -0.251 OA
BRANCH  25  27
ATOM     27  O   LIG    1       -3.583   4.850  -6.704  0.00  0.00    -0.481 OA
ATOM     28  H   LIG    1       -3.526   5.174  -7.581  0.00  0.00    +0.295 HD
ENDBRANCH  25  27
ENDBRANCH  24  25
ENDBRANCH  23  24
ENDBRANCH  22  23
ENDBRANCH  20  22
ENDBRANCH  19  21
ENDBRANCH   1  19
TORSDOF 15
