REMARK  Name = DB02513
REMARK                            x       y       z     vdW  Elec       q    Type
REMARK                         _______ _______ _______ _____ _____    ______ ____
ROOT
ATOM      1  C   LIG    1       -0.013  -0.006   0.000  0.00  0.00    -0.003 A 
ATOM      2  C   LIG    1       -0.738  -1.206   0.000  0.00  0.00    +0.008 A 
ATOM      3  C   LIG    1       -2.131  -1.200   0.000  0.00  0.00    +0.004 A 
ATOM      4  C   LIG    1       -2.826   0.010   0.000  0.00  0.00    -0.047 A 
ATOM      5  C   LIG    1       -4.344   0.030   0.000  0.00  0.00    +0.044 C 
ATOM      6  C   LIG    1       -2.116   1.212   0.000  0.00  0.00    +0.049 A 
ATOM      7  C   LIG    1       -0.719   1.211   0.000  0.00  0.00    +0.121 A 
ENDROOT
BRANCH   1   8
ATOM      8  C   LIG    1        1.523  -0.055   0.000  0.00  0.00    +0.016 C 
ATOM      9  C   LIG    1        2.077  -0.716   1.276  0.00  0.00    +0.012 C 
ATOM     10  C   LIG    1        2.077  -0.716  -1.276  0.00  0.00    +0.012 C 
ENDBRANCH   1   8
BRANCH   7  11
ATOM     11  O   LIG    1       -0.073   2.421   0.000  0.00  0.00    -0.506 OA
ATOM     12  H   LIG    1       -0.678   3.166   0.000  0.00  0.00    +0.292 HD
ENDBRANCH   7  11
TORSDOF 2
