REMARK  Name = DB02546
REMARK                            x       y       z     vdW  Elec       q    Type
REMARK                         _______ _______ _______ _____ _____    ______ ____
ROOT
ATOM      1  C   LIG    1       -2.181   1.525  -0.208  0.00  0.00    +0.096 C 
ENDROOT
BRANCH   1   4
ATOM      2  N   LIG    1       -3.826   0.087  -1.302  0.00  0.00    -0.285 N 
ATOM      3  H   LIG    1       -4.133  -0.030  -0.348  0.00  0.00    +0.155 HD
ATOM      4  C   LIG    1       -2.746   0.878  -1.483  0.00  0.00    +0.217 C 
ATOM      5  O   LIG    1       -2.204   1.106  -2.565  0.00  0.00    -0.275 OA
BRANCH   2   8
ATOM      6  C   LIG    1       -5.251  -1.296  -4.477  0.00  0.00    +0.002 A 
ATOM      7  C   LIG    1       -4.443  -0.533  -3.638  0.00  0.00    +0.023 A 
ATOM      8  C   LIG    1       -4.583  -0.637  -2.243  0.00  0.00    +0.033 A 
ATOM      9  C   LIG    1       -5.543  -1.503  -1.710  0.00  0.00    +0.023 A 
ATOM     10  C   LIG    1       -6.348  -2.265  -2.553  0.00  0.00    +0.002 A 
ATOM     11  C   LIG    1       -6.198  -2.159  -3.933  0.00  0.00    +0.000 A 
ENDBRANCH   2   8
ENDBRANCH   1   4
BRANCH   1  12
ATOM     12  C   LIG    1       -0.639   1.490  -0.096  0.00  0.00    +0.009 C 
BRANCH  12  13
ATOM     13  C   LIG    1       -0.038   0.073   0.006  0.00  0.00    +0.000 C 
BRANCH  13  14
ATOM     14  C   LIG    1        1.492   0.081   0.171  0.00  0.00    +0.000 C 
BRANCH  14  15
ATOM     15  C   LIG    1        2.093  -1.338   0.253  0.00  0.00    +0.009 C 
BRANCH  15  16
ATOM     16  C   LIG    1        3.637  -1.398   0.302  0.00  0.00    +0.098 C 
BRANCH  16  17
ATOM     17  C   LIG    1        4.251  -0.815   1.585  0.00  0.00    +0.235 C 
ATOM     18  O   LIG    1        4.303   0.407   1.736  0.00  0.00    -0.274 OA
ATOM     19  N   LIG    1        4.715  -1.703   2.482  0.00  0.00    -0.197 N 
ATOM     20  H   LIG    1        4.498  -2.689   2.501  0.00  0.00    +0.182 HD
BRANCH  19  21
ATOM     21  O   LIG    1        5.123  -1.214   3.728  0.00  0.00    -0.295 OA
ATOM     22  H   LIG    1        4.696  -0.355   3.774  0.00  0.00    +0.241 HD
ENDBRANCH  19  21
ENDBRANCH  16  17
ENDBRANCH  15  16
ENDBRANCH  14  15
ENDBRANCH  13  14
ENDBRANCH  12  13
ENDBRANCH   1  12
TORSDOF 9
