REMARK  Name = DB02929
REMARK                            x       y       z     vdW  Elec       q    Type
REMARK                         _______ _______ _______ _____ _____    ______ ____
ROOT
ATOM      1  C   LIG    1       -0.274  -0.072   0.115  0.00  0.00    +0.077 C 
ENDROOT
BRANCH   1   3
ATOM      2  N   LIG    1       -2.211   1.513   0.034  0.00  0.00    -0.296 N 
ATOM      3  C   LIG    1       -0.873   1.328  -0.145  0.00  0.00    +0.214 C 
ATOM      4  O   LIG    1       -0.117   2.248  -0.472  0.00  0.00    -0.276 OA
ATOM      5  C   LIG    1       -3.192   0.427  -0.079  0.00  0.00    +0.119 C 
ATOM      6  C   LIG    1       -3.557   0.090  -1.531  0.00  0.00    +0.093 C 
ATOM      7  S   LIG    1       -4.681   1.343  -2.212  0.00  0.00    -0.123 S 
ATOM      8  C   LIG    1       -3.635   2.736  -2.570  0.00  0.00    +0.013 A 
ATOM      9  C   LIG    1       -2.852   3.367  -1.579  0.00  0.00    -0.013 A 
ATOM     10  C   LIG    1       -2.110   4.501  -1.930  0.00  0.00    +0.052 A 
ATOM     11  C   LIG    1       -2.110   5.012  -3.228  0.00  0.00    +0.120 A 
ATOM     12  C   LIG    1       -2.893   4.374  -4.199  0.00  0.00    +0.047 A 
ATOM     13  C   LIG    1       -3.652   3.255  -3.866  0.00  0.00    +0.018 A 
ATOM     14  C   LIG    1       -2.803   2.848  -0.140  0.00  0.00    +0.144 C 
BRANCH  11  15
ATOM     15  O   LIG    1       -1.325   6.125  -3.460  0.00  0.00    -0.495 OA
ATOM     16  C   LIG    1       -1.275   6.676  -4.772  0.00  0.00    +0.277 C 
ENDBRANCH  11  15
ENDBRANCH   1   3
BRANCH   1  17
ATOM     17  C   LIG    1        1.275  -0.108   0.082  0.00  0.00    -0.070 C 
BRANCH  17  18
ATOM     18  N   LIG    1        1.818  -1.559   0.081  0.00  0.00    +0.380 N 
ATOM     19  H   LIG    1        1.405  -2.058  -0.694  0.00  0.00    -0.082 HD
ATOM     20  C   LIG    1        1.456  -2.319   1.384  0.00  0.00    -0.079 C 
ATOM     21  C   LIG    1        2.048  -3.740   1.313  0.00  0.00    -0.015 C 
ATOM     22  C   LIG    1        3.579  -3.701   1.139  0.00  0.00    -0.010 C 
ATOM     23  C   LIG    1        3.884  -2.970  -0.187  0.00  0.00    -0.015 C 
ATOM     24  C   LIG    1        3.349  -1.528  -0.164  0.00  0.00    -0.079 C 
BRANCH  22  25
ATOM     25  C   LIG    1        4.185  -5.124   1.192  0.00  0.00    +0.038 C 
BRANCH  25  26
ATOM     26  C   LIG    1        5.708  -5.146   1.160  0.00  0.00    -0.047 A 
ATOM     27  C   LIG    1        6.432  -4.814   2.308  0.00  0.00    +0.003 A 
ATOM     28  C   LIG    1        7.824  -4.829   2.281  0.00  0.00    +0.000 A 
ATOM     29  C   LIG    1        8.488  -5.176   1.107  0.00  0.00    +0.000 A 
ATOM     30  C   LIG    1        7.772  -5.510  -0.042  0.00  0.00    +0.000 A 
ATOM     31  C   LIG    1        6.380  -5.495  -0.016  0.00  0.00    +0.003 A 
ENDBRANCH  25  26
ENDBRANCH  22  25
ENDBRANCH  17  18
ENDBRANCH   1  17
TORSDOF 6
