REMARK  Name = DB02701
REMARK                            x       y       z     vdW  Elec       q    Type
REMARK                         _______ _______ _______ _____ _____    ______ ____
ROOT
ATOM      1  C   LIG    1        0.004  -0.044  -0.012  0.00  0.00    +0.055 A 
ATOM      2  C   LIG    1       -0.696   1.173  -0.003  0.00  0.00    +0.123 A 
ATOM      3  N   LIG    1       -2.051   1.257   0.007  0.00  0.00    -0.263 NA
ATOM      4  C   LIG    1       -2.758   0.099   0.013  0.00  0.00    +0.111 A 
ATOM      5  C   LIG    1       -2.153  -1.157   0.009  0.00  0.00    +0.020 A 
ATOM      6  C   LIG    1       -0.758  -1.225  -0.004  0.00  0.00    +0.016 A 
ENDROOT
BRANCH   1  10
ATOM      7  N   LIG    1        2.111  -1.181  -0.438  0.00  0.00    -0.325 N 
ATOM      8  H   LIG    1        3.118  -1.235  -0.472  0.00  0.00    +0.145 HD
ATOM      9  H   LIG    1        1.560  -1.976  -0.726  0.00  0.00    +0.145 HD
ATOM     10  C   LIG    1        1.515  -0.058  -0.023  0.00  0.00    +0.243 C 
ATOM     11  O   LIG    1        2.167   0.926   0.322  0.00  0.00    -0.270 OA
ENDBRANCH   1  10
TORSDOF 1
