REMARK  Name = DB02325
REMARK                            x       y       z     vdW  Elec       q    Type
REMARK                         _______ _______ _______ _____ _____    ______ ____
ROOT
ATOM      1  C   LIG    1       -0.039  -0.023   0.032  0.00  0.00    +0.037 C 
ATOM      2  C   LIG    1        1.497  -0.007  -0.010  0.00  0.00    +0.108 C 
ATOM      3  C   LIG    1        2.050   0.716  -1.247  0.00  0.00    +0.037 C 
ENDROOT
BRANCH   2   4
ATOM      4  O   LIG    1        1.971  -1.338  -0.003  0.00  0.00    -0.392 OA
ATOM      5  H   LIG    1        2.501  -1.470   0.786  0.00  0.00    +0.210 HD
ENDBRANCH   2   4
TORSDOF 1
