REMARK  Name = DB02659
REMARK                            x       y       z     vdW  Elec       q    Type
REMARK                         _______ _______ _______ _____ _____    ______ ____
ROOT
ATOM      1  C   LIG    1       -3.757  -1.722   5.664  0.00  0.00    +0.010 C 
ATOM      2  C   LIG    1       -3.599  -2.417   4.275  0.00  0.00    -0.026 C 
ATOM      3  C   LIG    1       -2.918  -3.791   4.568  0.00  0.00    +0.012 C 
ATOM      4  C   LIG    1       -2.781  -1.568   3.224  0.00  0.00    +0.003 C 
ATOM      5  C   LIG    1       -1.369  -1.136   3.733  0.00  0.00    +0.036 C 
ATOM      6  C   LIG    1       -0.524  -0.333   2.709  0.00  0.00    +0.121 C 
ATOM      7  C   LIG    1       -0.412  -1.087   1.336  0.00  0.00    +0.000 C 
ATOM      8  C   LIG    1        0.446  -2.381   1.521  0.00  0.00    +0.014 C 
ATOM      9  C   LIG    1        0.117  -0.275   0.098  0.00  0.00    +0.001 C 
ATOM     10  C   LIG    1       -0.517  -1.013  -1.117  0.00  0.00    +0.005 C 
ATOM     11  C   LIG    1       -1.711  -1.832  -0.602  0.00  0.00    +0.005 C 
ATOM     12  C   LIG    1       -1.858  -1.394   0.857  0.00  0.00    +0.003 C 
ATOM     13  C   LIG    1       -2.683  -2.288   1.831  0.00  0.00    +0.025 C 
ATOM     14  C   LIG    1       -4.096  -2.650   1.267  0.00  0.00    +0.118 C 
ATOM     15  C   LIG    1       -4.977  -3.371   2.318  0.00  0.00    +0.035 C 
ATOM     16  C   LIG    1       -5.040  -2.672   3.706  0.00  0.00    +0.000 C 
ATOM     17  C   LIG    1       -5.920  -1.385   3.696  0.00  0.00    +0.035 C 
ATOM     18  C   LIG    1       -5.962  -0.640   5.045  0.00  0.00    +0.115 C 
ATOM     19  C   LIG    1       -4.551  -0.405   5.620  0.00  0.00    +0.032 C 
ENDROOT
BRANCH   9  20
ATOM     20  C   LIG    1        1.659  -0.039  -0.060  0.00  0.00    -0.010 C 
ATOM     21  C   LIG    1        2.306   0.611   1.184  0.00  0.00    +0.008 C 
BRANCH  20  22
ATOM     22  C   LIG    1        1.973   0.799  -1.334  0.00  0.00    +0.014 C 
BRANCH  22  23
ATOM     23  C   LIG    1        3.467   0.837  -1.737  0.00  0.00    +0.121 C 
BRANCH  23  24
ATOM     24  C   LIG    1        3.689   1.453  -3.122  0.00  0.00    +0.305 C 
ATOM     25  O   LIG    1        3.994   0.794  -4.114  0.00  0.00    -0.251 OA
BRANCH  24  26
ATOM     26  O   LIG    1        3.507   2.805  -3.107  0.00  0.00    -0.481 OA
ATOM     27  H   LIG    1        3.643   3.200  -3.971  0.00  0.00    +0.295 HD
ENDBRANCH  24  26
ENDBRANCH  23  24
ENDBRANCH  22  23
ENDBRANCH  20  22
ENDBRANCH   9  20
BRANCH   6  28
ATOM     28  O   LIG    1       -1.060   0.970   2.551  0.00  0.00    -0.391 OA
ATOM     29  H   LIG    1       -1.083   1.396   3.411  0.00  0.00    +0.210 HD
ENDBRANCH   6  28
BRANCH  14  30
ATOM     30  O   LIG    1       -4.780  -1.532   0.729  0.00  0.00    -0.391 OA
ATOM     31  H   LIG    1       -4.240  -1.152   0.031  0.00  0.00    +0.210 HD
ENDBRANCH  14  30
BRANCH  18  32
ATOM     32  O   LIG    1       -6.667   0.580   4.928  0.00  0.00    -0.392 OA
ATOM     33  H   LIG    1       -6.204   1.139   4.300  0.00  0.00    +0.210 HD
ENDBRANCH  18  32
TORSDOF 8
