REMARK  Name = DB02530
REMARK                            x       y       z     vdW  Elec       q    Type
REMARK                         _______ _______ _______ _____ _____    ______ ____
ROOT
ATOM      1  C   LIG    1        1.470   0.078   0.003  0.00  0.00    +0.026 C 
ENDROOT
BRANCH   1   2
ATOM      2  C   LIG    1       -0.068   0.057   0.010  0.00  0.00    +0.078 C 
BRANCH   2   3
ATOM      3  N   LIG    1       -0.592   1.389  -0.223  0.00  0.00    -0.330 NA
ATOM      4  H   LIG    1       -1.602   1.359  -0.236  0.00  0.00    +0.118 HD
ATOM      5  H   LIG    1       -0.304   1.712  -1.136  0.00  0.00    +0.118 HD
ENDBRANCH   2   3
ENDBRANCH   1   2
BRANCH   1   6
ATOM      6  C   LIG    1        2.075  -1.321   0.247  0.00  0.00    +0.121 C 
BRANCH   6   7
ATOM      7  C   LIG    1        3.609  -1.353   0.226  0.00  0.00    +0.305 C 
ATOM      8  O   LIG    1        4.320  -0.369   0.026  0.00  0.00    -0.251 OA
BRANCH   7   9
ATOM      9  O   LIG    1        4.075  -2.614   0.456  0.00  0.00    -0.481 OA
ATOM     10  H   LIG    1        5.034  -2.654   0.446  0.00  0.00    +0.295 HD
ENDBRANCH   7   9
ENDBRANCH   6   7
ENDBRANCH   1   6
TORSDOF 5
