REMARK  Name = DB02381
REMARK                            x       y       z     vdW  Elec       q    Type
REMARK                         _______ _______ _______ _____ _____    ______ ____
ROOT
ATOM      1  C   LIG    1        1.558   0.033   0.221  0.00  0.00    +0.083 C 
ENDROOT
BRANCH   1   2
ATOM      2  N   LIG    1        2.082  -1.338   0.350  0.00  0.00    -0.281 NA
ATOM      3  H   LIG    1        2.264  -1.820  -0.519  0.00  0.00    +0.125 HD
BRANCH   2   4
ATOM      4  C   LIG    1        2.242  -2.070   1.460  0.00  0.00    +0.193 C 
BRANCH   4   5
ATOM      5  N   LIG    1        2.786  -3.274   1.271  0.00  0.00    -0.295 NA
ATOM      6  H   LIG    1        2.757  -3.706   0.358  0.00  0.00    +0.121 HD
ATOM      7  H   LIG    1        3.219  -3.756   2.046  0.00  0.00    +0.121 HD
ENDBRANCH   4   5
BRANCH   4   8
ATOM      8  N   LIG    1        1.872  -1.604   2.673  0.00  0.00    -0.166 NA
ATOM      9  H   LIG    1        1.422  -0.715   2.837  0.00  0.00    +0.157 HD
BRANCH   8  10
ATOM     10  O   LIG    1        2.026  -2.389   3.811  0.00  0.00    -0.312 OA
ATOM     11  H   LIG    1        2.813  -2.030   4.230  0.00  0.00    +0.236 HD
ENDBRANCH   8  10
ENDBRANCH   4   8
ENDBRANCH   2   4
ENDBRANCH   1   2
BRANCH   1  12
ATOM     12  C   LIG    1        0.043   0.080  -0.070  0.00  0.00    +0.010 C 
BRANCH  12  13
ATOM     13  CA  LIG    1       -0.530   1.517  -0.177  0.00  0.00    +0.037 C 
BRANCH  13  14
ATOM     14  N   LIG    1       -2.065   1.444  -0.082  0.00  0.00    +0.387 N 
ATOM     15  H1  LIG    1       -2.434   0.893  -0.845  0.00  0.00    -0.089 HD
ATOM     16  H2  LIG    1       -2.336   1.012   0.789  0.00  0.00    -0.089 HD
ATOM     17  H3  LIG    1       -2.460   2.373  -0.119  0.00  0.00    -0.089 HD
ENDBRANCH  13  14
BRANCH  13  18
ATOM     18  C   LIG    1       -0.153   2.209  -1.516  0.00  0.00    +0.290 C 
ATOM     19  O   LIG    1        0.984   2.729  -1.562  0.00  0.00    -0.253 OA
BRANCH  18  20
ATOM     20  OXT LIG    1       -0.956   2.202  -2.479  0.00  0.00    -0.482 OA
ATOM     21  HXT LIG    1       -1.796   1.797  -2.386  0.00  0.00    +0.295 HD
ENDBRANCH  18  20
ENDBRANCH  13  18
ENDBRANCH  12  13
ENDBRANCH   1  12
TORSDOF 10
