REMARK  Name = DB02789
REMARK                            x       y       z     vdW  Elec       q    Type
REMARK                         _______ _______ _______ _____ _____    ______ ____
ROOT
ATOM      1  C   LIG    1       -3.683  -1.711   5.540  0.00  0.00    +0.014 C 
ATOM      2  C   LIG    1       -4.593  -2.419   6.560  0.00  0.00    +0.032 C 
ATOM      3  C   LIG    1       -5.845  -2.991   5.880  0.00  0.00    +0.119 C 
ATOM      4  C   LIG    1       -5.483  -3.920   4.707  0.00  0.00    +0.062 C 
ATOM      5  C   LIG    1       -4.557  -3.217   3.707  0.00  0.00    -0.065 C 
ATOM      6  C   LIG    1       -4.845  -3.208   2.388  0.00  0.00    -0.027 C 
ATOM      7  C   LIG    1       -3.982  -2.623   1.285  0.00  0.00    +0.031 C 
ATOM      8  C   LIG    1       -2.568  -2.247   1.790  0.00  0.00    +0.000 C 
ATOM      9  C   LIG    1       -1.875  -1.274   0.796  0.00  0.00    -0.001 C 
ATOM     10  C   LIG    1       -1.762  -1.656  -0.688  0.00  0.00    +0.005 C 
ATOM     11  C   LIG    1       -0.627  -0.763  -1.229  0.00  0.00    +0.012 C 
ATOM     12  C   LIG    1       -0.082   0.010   0.003  0.00  0.00    +0.061 C 
ATOM     13  C   LIG    1       -0.439  -0.887   1.226  0.00  0.00    -0.019 C 
ATOM     14  C   LIG    1        0.523  -2.115   1.365  0.00  0.00    +0.012 C 
ATOM     15  C   LIG    1       -0.577  -0.129   2.570  0.00  0.00    +0.008 C 
ATOM     16  C   LIG    1       -1.235  -1.014   3.655  0.00  0.00    +0.005 C 
ATOM     17  C   LIG    1       -2.616  -1.614   3.220  0.00  0.00    +0.003 C 
ATOM     18  C   LIG    1       -3.274  -2.565   4.296  0.00  0.00    -0.008 C 
ATOM     19  C   LIG    1       -2.308  -3.706   4.723  0.00  0.00    +0.016 C 
ENDROOT
BRANCH  12  20
ATOM     20  C   LIG    1        1.415   0.380  -0.107  0.00  0.00    +0.134 C 
ATOM     21  O   LIG    1        2.218  -0.290  -0.757  0.00  0.00    -0.297 OA
ATOM     22  C   LIG    1        1.863   1.662   0.587  0.00  0.00    +0.086 C 
ENDBRANCH  12  20
BRANCH   3  23
ATOM     23  O   LIG    1       -6.662  -3.662   6.817  0.00  0.00    -0.391 OA
ATOM     24  H   LIG    1       -7.520  -3.232   6.838  0.00  0.00    +0.210 HD
ENDBRANCH   3  23
TORSDOF 2
