REMARK  Name = DB02712
REMARK                            x       y       z     vdW  Elec       q    Type
REMARK                         _______ _______ _______ _____ _____    ______ ____
ROOT
ATOM      1  C   LIG    1        0.226   2.311  -2.025  0.00  0.00    +0.029 A 
ATOM      2  C   LIG    1        1.296   2.247  -1.105  0.00  0.00    +0.126 A 
ATOM      3  O   LIG    1        1.526   1.171  -0.267  0.00  0.00    -0.492 OA
ATOM      4  C   LIG    1        0.390   0.359   0.035  0.00  0.00    +0.232 C 
ATOM      5  C   LIG    1       -0.316  -0.059  -1.269  0.00  0.00    +0.081 C 
ATOM      6  C   LIG    1        2.249   3.264  -1.034  0.00  0.00    +0.049 A 
ATOM      7  C   LIG    1        2.153   4.371  -1.873  0.00  0.00    +0.042 A 
ATOM      8  C   LIG    1        1.109   4.456  -2.790  0.00  0.00    +0.124 A 
ATOM      9  F   LIG    1        1.015   5.527  -3.610  0.00  0.00    -0.205 F 
ATOM     10  C   LIG    1       -0.816   1.175  -2.071  0.00  0.00    +0.144 C 
ATOM     11  C   LIG    1       -2.147   1.673  -1.513  0.00  0.00    +0.249 C 
ATOM     12  O   LIG    1       -2.374   2.065  -0.368  0.00  0.00    -0.273 OA
ATOM     13  N   LIG    1       -3.043   1.499  -2.497  0.00  0.00    -0.238 N 
ATOM     14  H   LIG    1       -4.018   1.738  -2.392  0.00  0.00    +0.159 HD
ATOM     15  C   LIG    1       -2.531   1.040  -3.656  0.00  0.00    +0.307 C 
ATOM     16  O   LIG    1       -3.098   0.983  -4.744  0.00  0.00    -0.252 OA
ATOM     17  N   LIG    1       -1.236   0.814  -3.401  0.00  0.00    -0.281 N 
ATOM     18  H   LIG    1       -0.690   0.153  -3.936  0.00  0.00    +0.152 HD
ATOM     19  C   LIG    1        0.160   3.437  -2.863  0.00  0.00    +0.048 A 
ENDROOT
TORSDOF 0
