REMARK  Name = DB02962
REMARK                            x       y       z     vdW  Elec       q    Type
REMARK                         _______ _______ _______ _____ _____    ______ ____
ROOT
ATOM      1  C   LIG    1        0.029  -2.917  -2.840  0.00  0.00    +0.002 A 
ATOM      2  C   LIG    1        0.039  -3.175  -1.468  0.00  0.00    +0.030 A 
ATOM      3  C   LIG    1        0.030  -2.081  -0.590  0.00  0.00    +0.089 A 
ATOM      4  N   LIG    1        0.037  -2.070   0.781  0.00  0.00    -0.236 NA
ATOM      5  C   LIG    1        0.021  -0.799   1.093  0.00  0.00    +0.197 A 
ATOM      6  N   LIG    1        0.005   0.039   0.005  0.00  0.00    -0.344 N 
ATOM      7  H   LIG    1       -0.008   1.047   0.072  0.00  0.00    +0.167 HD
ATOM      8  C   LIG    1        0.009  -0.760  -1.115  0.00  0.00    +0.066 A 
ATOM      9  C   LIG    1       -0.001  -0.500  -2.488  0.00  0.00    +0.028 A 
ATOM     10  C   LIG    1        0.009  -1.612  -3.334  0.00  0.00    +0.002 A 
ENDROOT
TORSDOF 0
