REMARK  Name = DB02948
REMARK                            x       y       z     vdW  Elec       q    Type
REMARK                         _______ _______ _______ _____ _____    ______ ____
ROOT
ATOM      1  C   LIG    1        1.472  -0.002  -0.038  0.00  0.00    +0.033 C 
ENDROOT
BRANCH   1   2
ATOM      2  C   LIG    1       -0.068  -0.032   0.033  0.00  0.00    +0.140 C 
BRANCH   2   4
ATOM      3  C   LIG    1       -0.913   2.071  -1.047  0.00  0.00    +0.352 C 
ATOM      4  N   LIG    1       -0.678   1.299   0.031  0.00  0.00    -0.186 N 
ATOM      5  O   LIG    1       -0.790   1.692  -2.211  0.00  0.00    -0.277 OA
BRANCH   4   6
ATOM      6  O   LIG    1       -0.630   1.990   1.245  0.00  0.00    -0.293 OA
ATOM      7  H   LIG    1       -0.221   2.825   1.005  0.00  0.00    +0.242 HD
ENDBRANCH   4   6
ENDBRANCH   2   4
ENDBRANCH   1   2
BRANCH   1   8
ATOM      8  C   LIG    1        2.096  -1.408   0.010  0.00  0.00    +0.128 C 
BRANCH   8   9
ATOM      9  P   LIG    1        3.973  -1.366  -0.032  0.00  0.00    +0.328 P 
ATOM     10  O   LIG    1        4.497  -2.777   0.113  0.00  0.00    -0.259 OA
BRANCH   9  11
ATOM     11  O   LIG    1        4.191  -0.574   1.472  0.00  0.00    -0.324 OA
ATOM     12  H   LIG    1        4.216  -1.041   2.329  0.00  0.00    +0.220 HD
ENDBRANCH   9  11
BRANCH   9  13
ATOM     13  O   LIG    1        4.432  -0.429  -1.127  0.00  0.00    -0.324 OA
ATOM     14  H   LIG    1        4.317  -0.858  -1.989  0.00  0.00    +0.220 HD
ENDBRANCH   9  13
ENDBRANCH   8   9
ENDBRANCH   1   8
TORSDOF 7
