REMARK  Name = DB02745
REMARK                            x       y       z     vdW  Elec       q    Type
REMARK                         _______ _______ _______ _____ _____    ______ ____
ROOT
ATOM      1  C4*   U A  1        1.634   0.156   0.063  0.00  0.00    +0.177 C 
ATOM      2  O4*   U A  1        2.464  -0.980   0.303  0.00  0.00    -0.346 OA
ATOM      3  C1*   U A  1        3.585  -0.962  -0.527  0.00  0.00    +0.255 C 
ATOM      4  C2*   U A  1        3.155  -0.194  -1.776  0.00  0.00    +0.195 C 
ATOM      5  C3*   U A  1        2.310   0.894  -1.112  0.00  0.00    +0.178 C 
ENDROOT
BRANCH   3   6
ATOM      6  N1    U A  1        4.126  -2.307  -0.701  0.00  0.00    -0.271 N 
ATOM      7  C6    U A  1        3.361  -3.261  -1.334  0.00  0.00    +0.098 A 
ATOM      8  C5    U A  1        3.754  -4.538  -1.504  0.00  0.00    +0.088 A 
ATOM      9  C4    U A  1        5.049  -4.956  -0.997  0.00  0.00    +0.254 A 
ATOM     10  O4    U A  1        5.501  -6.092  -1.114  0.00  0.00    -0.268 OA
ATOM     11  N3    U A  1        5.720  -3.947  -0.366  0.00  0.00    -0.275 N 
ATOM     12  H3    U A  1        6.621  -4.203   0.009  0.00  0.00    +0.173 HD
ATOM     13  C2    U A  1        5.357  -2.638  -0.159  0.00  0.00    +0.331 A 
ATOM     14  O2    U A  1        6.114  -1.890   0.460  0.00  0.00    -0.246 OA
ENDBRANCH   3   6
BRANCH   4  15
ATOM     15  O2*   U A  1        4.279   0.203  -2.540  0.00  0.00    -0.385 OA
ATOM     16  H2*   U A  1        3.970   0.624  -3.345  0.00  0.00    +0.210 HD
ENDBRANCH   4  15
BRANCH   5  17
ATOM     17  O3*   U A  1        3.060   2.016  -0.674  0.00  0.00    -0.386 OA
ATOM     18  H3*   U A  1        2.458   2.656  -0.288  0.00  0.00    +0.210 HD
ENDBRANCH   5  17
BRANCH   1  19
ATOM     19  C5*   U A  1        0.215  -0.376  -0.218  0.00  0.00    +0.190 C 
BRANCH  19  20
ATOM     20  O5*   U A  1       -0.690   0.691  -0.416  0.00  0.00    -0.392 OA
ATOM     21  H5*   U A  1       -1.568   0.327  -0.556  0.00  0.00    +0.210 HD
ENDBRANCH  19  20
ENDBRANCH   1  19
TORSDOF 5
