REMARK  Name = DB02938
REMARK                            x       y       z     vdW  Elec       q    Type
REMARK                         _______ _______ _______ _____ _____    ______ ____
ROOT
ATOM      1  C   LIG    1       -0.607   1.495  -0.000  0.00  0.00    +0.120 C 
ENDROOT
BRANCH   1   2
ATOM      2  C   LIG    1       -2.147   1.502  -0.012  0.00  0.00    +0.305 C 
ATOM      3  O   LIG    1       -2.735   1.503   1.093  0.00  0.00    -0.251 OA
BRANCH   2   4
ATOM      4  O   LIG    1       -2.718   1.501  -1.127  0.00  0.00    -0.481 OA
ATOM      5  H   LIG    1       -3.654   1.506  -1.174  0.00  0.00    +0.295 HD
ENDBRANCH   2   4
ENDBRANCH   1   2
BRANCH   1   6
ATOM      6  C   LIG    1       -0.059   0.050  -0.001  0.00  0.00    +0.011 C 
BRANCH   6   7
ATOM      7  C   LIG    1        1.480  -0.000   0.001  0.00  0.00    +0.001 C 
BRANCH   7   8
ATOM      8  C   LIG    1        2.035  -1.436   0.001  0.00  0.00    -0.000 C 
BRANCH   8   9
ATOM      9  C   LIG    1        3.573  -1.485   0.001  0.00  0.00    -0.003 C 
ATOM     10  C   LIG    1        4.126  -2.916   0.000  0.00  0.00    +0.004 C 
ENDBRANCH   8   9
ENDBRANCH   7   8
ENDBRANCH   6   7
ENDBRANCH   1   6
TORSDOF 6
