REMARK  Name = DB02606
REMARK                            x       y       z     vdW  Elec       q    Type
REMARK                         _______ _______ _______ _____ _____    ______ ____
ROOT
ATOM      1  C   LIG    1        1.580  -0.052   0.021  0.00  0.00    +0.111 C 
ATOM      2  C   LIG    1        2.067  -1.510   0.029  0.00  0.00    +0.037 C 
ENDROOT
BRANCH   1   4
ATOM      3  C   LIG    1       -0.490   1.501   0.013  0.00  0.00    +0.006 C 
ATOM      4  C   LIG    1        0.042   0.058  -0.037  0.00  0.00    +0.027 C 
ENDBRANCH   1   4
BRANCH   1   5
ATOM      5  O   LIG    1        2.163   0.609  -1.086  0.00  0.00    -0.392 OA
ATOM      6  H   LIG    1        1.858   1.519  -1.091  0.00  0.00    +0.210 HD
ENDBRANCH   1   5
TORSDOF 2
