REMARK  Name = DB02362
REMARK                            x       y       z     vdW  Elec       q    Type
REMARK                         _______ _______ _______ _____ _____    ______ ____
ROOT
ATOM      1  C   LIG    1        1.429   0.004   0.000  0.00  0.00    +0.025 A 
ATOM      2  C   LIG    1        2.138   1.204   0.000  0.00  0.00    +0.023 A 
ATOM      3  C   LIG    1        3.530   1.186   0.000  0.00  0.00    +0.017 A 
ATOM      4  C   LIG    1        4.227  -0.031   0.000  0.00  0.00    +0.059 A 
ATOM      5  C   LIG    1        3.500  -1.231   0.000  0.00  0.00    +0.017 A 
ATOM      6  C   LIG    1        2.107  -1.213   0.000  0.00  0.00    +0.023 A 
ENDROOT
BRANCH   1   7
ATOM      7  N   LIG    1        0.035   0.021   0.000  0.00  0.00    -0.358 N 
ATOM      8  H   LIG    1       -0.472  -0.851   0.000  0.00  0.00    +0.142 HD
ATOM      9  H   LIG    1       -0.451   0.907   0.000  0.00  0.00    +0.142 HD
ENDBRANCH   1   7
BRANCH   4  10
ATOM     10  C   LIG    1        5.739  -0.032   0.000  0.00  0.00    +0.337 C 
ATOM     11  O   LIG    1        6.397   1.008   0.000  0.00  0.00    -0.245 OA
BRANCH  10  12
ATOM     12  O   LIG    1        6.318  -1.269   0.000  0.00  0.00    -0.477 OA
ATOM     13  H   LIG    1        7.277  -1.218   0.000  0.00  0.00    +0.295 HD
ENDBRANCH  10  12
ENDBRANCH   4  10
TORSDOF 3
