REMARK  Name = DB02568
REMARK                            x       y       z     vdW  Elec       q    Type
REMARK                         _______ _______ _______ _____ _____    ______ ____
ROOT
ATOM      1  C   LIG    1       -1.617   3.408   0.048  0.00  0.00    +0.194 A 
ATOM      2  N   LIG    1       -0.536   2.467   0.043  0.00  0.00    -0.326 N 
ATOM      3  H   LIG    1        0.375   2.844   0.262  0.00  0.00    +0.169 HD
ATOM      4  C   LIG    1       -0.853   1.122   0.009  0.00  0.00    +0.076 A 
ATOM      5  C   LIG    1       -0.047  -0.032   0.011  0.00  0.00    -0.002 A 
ATOM      6  C   LIG    1       -0.945  -1.098  -0.048  0.00  0.00    +0.089 A 
ATOM      7  N   LIG    1       -2.231  -0.623  -0.071  0.00  0.00    -0.355 N 
ATOM      8  H   LIG    1       -3.068  -1.187  -0.112  0.00  0.00    +0.166 HD
ATOM      9  C   LIG    1       -2.195   0.744  -0.037  0.00  0.00    +0.130 A 
ATOM     10  C   LIG    1       -3.299   1.702  -0.051  0.00  0.00    +0.299 A 
ATOM     11  O   LIG    1       -4.473   1.339  -0.105  0.00  0.00    -0.263 OA
ATOM     12  N   LIG    1       -2.858   3.047   0.003  0.00  0.00    -0.176 NA
ENDROOT
BRANCH   1  13
ATOM     13  N   LIG    1       -1.316   4.786   0.104  0.00  0.00    -0.329 N 
ATOM     14  H   LIG    1       -0.489   5.103  -0.380  0.00  0.00    +0.145 HD
ATOM     15  H   LIG    1       -2.080   5.432  -0.030  0.00  0.00    +0.145 HD
ENDBRANCH   1  13
BRANCH   5  16
ATOM     16  C   LIG    1        1.466  -0.110   0.036  0.00  0.00    +0.075 C 
BRANCH  16  17
ATOM     17  C   LIG    1        2.030  -0.063   1.448  0.00  0.00    -0.025 A 
ATOM     18  C   LIG    1        2.103   1.144   2.155  0.00  0.00    +0.007 A 
ATOM     19  C   LIG    1        2.628   1.156   3.449  0.00  0.00    +0.020 A 
ATOM     20  C   LIG    1        3.067  -0.048   4.001  0.00  0.00    +0.111 A 
ATOM     21  N   LIG    1        3.007  -1.230   3.335  0.00  0.00    -0.263 NA
ATOM     22  C   LIG    1        2.494  -1.224   2.078  0.00  0.00    +0.114 A 
ENDBRANCH  16  17
ENDBRANCH   5  16
TORSDOF 3
