REMARK  Name = DB02691
REMARK                            x       y       z     vdW  Elec       q    Type
REMARK                         _______ _______ _______ _____ _____    ______ ____
ROOT
ATOM      1  C   LIG    1       -3.789  -1.702   5.697  0.00  0.00    +0.010 C 
ATOM      2  C   LIG    1       -4.595  -0.394   5.649  0.00  0.00    +0.032 C 
ATOM      3  C   LIG    1       -6.008  -0.643   5.084  0.00  0.00    +0.115 C 
ATOM      4  C   LIG    1       -5.967  -1.398   3.739  0.00  0.00    +0.035 C 
ATOM      5  C   LIG    1       -5.080  -2.680   3.757  0.00  0.00    +0.000 C 
ATOM      6  C   LIG    1       -5.021  -3.394   2.377  0.00  0.00    +0.035 C 
ATOM      7  C   LIG    1       -4.148  -2.681   1.311  0.00  0.00    +0.118 C 
ATOM      8  C   LIG    1       -2.735  -2.306   1.863  0.00  0.00    +0.025 C 
ATOM      9  C   LIG    1       -1.914  -1.429   0.871  0.00  0.00    +0.003 C 
ATOM     10  C   LIG    1       -0.470  -1.106   1.345  0.00  0.00    +0.000 C 
ATOM     11  C   LIG    1        0.393  -2.392   1.567  0.00  0.00    +0.014 C 
ATOM     12  C   LIG    1       -0.590  -0.319   2.698  0.00  0.00    +0.121 C 
ATOM     13  C   LIG    1       -1.427  -1.104   3.743  0.00  0.00    +0.036 C 
ATOM     14  C   LIG    1        0.063  -0.326   0.088  0.00  0.00    +0.001 C 
ATOM     15  C   LIG    1       -0.561  -1.101  -1.108  0.00  0.00    +0.005 C 
ATOM     16  C   LIG    1       -1.763  -1.900  -0.578  0.00  0.00    +0.005 C 
ATOM     17  C   LIG    1       -2.833  -1.566   3.245  0.00  0.00    +0.003 C 
ATOM     18  C   LIG    1       -3.636  -2.409   4.313  0.00  0.00    -0.026 C 
ATOM     19  C   LIG    1       -2.943  -3.774   4.616  0.00  0.00    +0.012 C 
ENDROOT
BRANCH   3  20
ATOM     20  O   LIG    1       -6.722   0.570   4.963  0.00  0.00    -0.392 OA
ATOM     21  H   LIG    1       -6.265   1.132   4.333  0.00  0.00    +0.210 HD
ENDBRANCH   3  20
BRANCH   7  22
ATOM     22  O   LIG    1       -4.839  -1.573   0.763  0.00  0.00    -0.391 OA
ATOM     23  H   LIG    1       -4.302  -1.198   0.061  0.00  0.00    +0.210 HD
ENDBRANCH   7  22
BRANCH  12  24
ATOM     24  O   LIG    1       -1.138   0.975   2.506  0.00  0.00    -0.391 OA
ATOM     25  H   LIG    1       -1.168   1.423   3.354  0.00  0.00    +0.210 HD
ENDBRANCH  12  24
BRANCH  14  26
ATOM     26  C   LIG    1        1.608  -0.094  -0.063  0.00  0.00    -0.010 C 
ATOM     27  C   LIG    1        2.234   0.622   1.155  0.00  0.00    +0.008 C 
BRANCH  26  28
ATOM     28  C   LIG    1        1.944   0.669  -1.377  0.00  0.00    +0.013 C 
BRANCH  28  29
ATOM     29  C   LIG    1        3.455   0.748  -1.717  0.00  0.00    +0.096 C 
BRANCH  29  30
ATOM     30  C   LIG    1        3.756   1.156  -3.168  0.00  0.00    +0.213 C 
ATOM     31  O   LIG    1        2.957   1.843  -3.808  0.00  0.00    -0.276 OA
ATOM     32  N   LIG    1        4.923   0.720  -3.670  0.00  0.00    -0.305 N 
ATOM     33  H   LIG    1        5.532   0.166  -3.085  0.00  0.00    +0.149 HD
BRANCH  32  34
ATOM     34  C   LIG    1        5.407   0.987  -5.032  0.00  0.00    +0.224 C 
BRANCH  34  35
ATOM     35  C   LIG    1        6.784   0.341  -5.333  0.00  0.00    +0.322 C 
ATOM     36  O   LIG    1        7.237   0.544  -6.482  0.00  0.00    -0.249 OA
BRANCH  35  37
ATOM     37  O   LIG    1        7.380  -0.337  -4.461  0.00  0.00    -0.480 OA
ATOM     38  H   LIG    1        8.212  -0.722  -4.655  0.00  0.00    +0.295 HD
ENDBRANCH  35  37
ENDBRANCH  34  35
ENDBRANCH  32  34
ENDBRANCH  29  30
ENDBRANCH  28  29
ENDBRANCH  26  28
ENDBRANCH  14  26
TORSDOF 10
