REMARK  Name = DB03366
REMARK                            x       y       z     vdW  Elec       q    Type
REMARK                         _______ _______ _______ _____ _____    ______ ____
ROOT
ATOM      1  C   LIG    1        5.189  -2.297  -0.121  0.00  0.00    +0.196 A 
ATOM      2  N   LIG    1        3.833  -2.105  -0.150  0.00  0.00    -0.351 N 
ATOM      3  H   LIG    1        3.119  -2.815  -0.235  0.00  0.00    +0.166 HD
ATOM      4  C   LIG    1        3.645  -0.755  -0.043  0.00  0.00    +0.103 A 
ATOM      5  C   LIG    1        4.929  -0.232   0.045  0.00  0.00    +0.130 A 
ATOM      6  N   LIG    1        5.858  -1.174  -0.003  0.00  0.00    -0.244 NA
ENDROOT
TORSDOF 0
