REMARK  Name = DB03516
REMARK                            x       y       z     vdW  Elec       q    Type
REMARK                         _______ _______ _______ _____ _____    ______ ____
ROOT
ATOM      1  O   LIG    1       -0.190   2.409  -0.000  0.00  0.00    -0.266 OA
ATOM      2  C   LIG    1       -0.699   1.288   0.000  0.00  0.00    +0.269 A 
ATOM      3  C   LIG    1        0.030   0.016   0.000  0.00  0.00    +0.105 A 
ATOM      4  C   LIG    1       -0.692  -1.127  -0.000  0.00  0.00    +0.109 A 
ATOM      5  N   LIG    1       -2.057  -1.164  -0.000  0.00  0.00    -0.313 N 
ATOM      6  H   LIG    1       -2.559  -2.041   0.000  0.00  0.00    +0.170 HD
ATOM      7  C   LIG    1       -2.805  -0.023   0.000  0.00  0.00    +0.327 A 
ATOM      8  O   LIG    1       -4.033  -0.028   0.000  0.00  0.00    -0.247 OA
ATOM      9  N   LIG    1       -2.058   1.128   0.000  0.00  0.00    -0.274 N 
ATOM     10  H   LIG    1       -2.591   1.985   0.000  0.00  0.00    +0.173 HD
ENDROOT
BRANCH   3  11
ATOM     11  C   LIG    1        1.461  -0.045   0.000  0.00  0.00    -0.063 C 
ATOM     12  C   LIG    1        2.683  -0.039   0.001  0.00  0.00    +0.009 C 
ENDBRANCH   3  11
TORSDOF 1
