REMARK  Name = DB03193
REMARK                            x       y       z     vdW  Elec       q    Type
REMARK                         _______ _______ _______ _____ _____    ______ ____
ROOT
ATOM      1  C   LIG    1       -0.496   1.457   0.081  0.00  0.00    -0.000 C 
ENDROOT
BRANCH   1   2
ATOM      2  C   LIG    1       -2.030   1.520  -0.027  0.00  0.00    +0.000 C 
BRANCH   2   3
ATOM      3  C   LIG    1       -2.571   2.960  -0.069  0.00  0.00    +0.000 C 
BRANCH   3   4
ATOM      4  C   LIG    1       -4.104   3.019  -0.214  0.00  0.00    +0.000 C 
BRANCH   4   5
ATOM      5  C   LIG    1       -4.695   4.442  -0.166  0.00  0.00    +0.001 C 
BRANCH   5   6
ATOM      6  C   LIG    1       -4.278   5.345  -1.344  0.00  0.00    +0.011 C 
BRANCH   6   7
ATOM      7  C   LIG    1       -4.974   6.721  -1.309  0.00  0.00    +0.120 C 
BRANCH   7   8
ATOM      8  C   LIG    1       -4.519   7.639  -2.447  0.00  0.00    +0.305 C 
ATOM      9  O   LIG    1       -3.769   8.598  -2.279  0.00  0.00    -0.251 OA
BRANCH   8  10
ATOM     10  O   LIG    1       -5.048   7.262  -3.647  0.00  0.00    -0.481 OA
ATOM     11  H   LIG    1       -4.766   7.833  -4.364  0.00  0.00    +0.295 HD
ENDBRANCH   8  10
ENDBRANCH   7   8
ENDBRANCH   6   7
ENDBRANCH   5   6
ENDBRANCH   4   5
ENDBRANCH   3   4
ENDBRANCH   2   3
ENDBRANCH   1   2
BRANCH   1  12
ATOM     12  C   LIG    1        0.045   0.016   0.103  0.00  0.00    -0.000 C 
BRANCH  12  13
ATOM     13  C   LIG    1        1.582  -0.049   0.154  0.00  0.00    -0.000 C 
BRANCH  13  14
ATOM     14  C   LIG    1        2.120  -1.491   0.145  0.00  0.00    -0.000 C 
BRANCH  14  15
ATOM     15  C   LIG    1        3.658  -1.560   0.149  0.00  0.00    -0.000 C 
BRANCH  15  16
ATOM     16  C   LIG    1        4.190  -3.004   0.109  0.00  0.00    -0.000 C 
BRANCH  16  17
ATOM     17  C   LIG    1        5.727  -3.081   0.089  0.00  0.00    -0.000 C 
BRANCH  17  18
ATOM     18  C   LIG    1        6.250  -4.527   0.028  0.00  0.00    -0.000 C 
BRANCH  18  19
ATOM     19  C   LIG    1        7.788  -4.612  -0.013  0.00  0.00    -0.000 C 
BRANCH  19  20
ATOM     20  C   LIG    1        8.343  -6.049  -0.004  0.00  0.00    -0.003 C 
ATOM     21  C   LIG    1        8.005  -6.866  -1.261  0.00  0.00    +0.004 C 
ENDBRANCH  19  20
ENDBRANCH  18  19
ENDBRANCH  17  18
ENDBRANCH  16  17
ENDBRANCH  15  16
ENDBRANCH  14  15
ENDBRANCH  13  14
ENDBRANCH  12  13
ENDBRANCH   1  12
TORSDOF 17
