REMARK  Name = DB03010
REMARK                            x       y       z     vdW  Elec       q    Type
REMARK                         _______ _______ _______ _____ _____    ______ ____
ROOT
ATOM      1  C   LIG    1        6.922   4.840  -0.965  0.00  0.00    +0.010 C 
ATOM      2  C   LIG    1        5.371   4.882  -1.002  0.00  0.00    +0.015 C 
ATOM      3  C   LIG    1        4.817   6.338  -1.152  0.00  0.00    +0.127 C 
ATOM      4  C   LIG    1        3.283   6.471  -1.466  0.00  0.00    +0.081 C 
ATOM      5  C   LIG    1        2.824   5.808  -2.799  0.00  0.00    +0.147 C 
ATOM      6  O   LIG    1        3.627   5.691  -3.729  0.00  0.00    -0.296 OA
ATOM      7  C   LIG    1        1.377   5.217  -2.925  0.00  0.00    +0.050 C 
ATOM      8  C   LIG    1        1.231   3.868  -2.123  0.00  0.00    +0.138 C 
ATOM      9  C   LIG    1        2.254   2.745  -2.479  0.00  0.00    +0.152 C 
ATOM     10  C   LIG    1        1.982   1.360  -1.867  0.00  0.00    +0.310 C 
ATOM     11  O   LIG    1        1.861   1.368  -0.511  0.00  0.00    -0.457 OA
ATOM     12  C   LIG    1        1.419   0.200   0.199  0.00  0.00    +0.205 C 
ATOM     13  C   LIG    1        2.005   0.219   1.625  0.00  0.00    +0.083 C 
ATOM     14  C   LIG    1        3.447  -0.318   1.714  0.00  0.00    +0.154 C 
ATOM     15  O   LIG    1        4.106  -0.056   2.928  0.00  0.00    -0.365 OA
ATOM     16  C   LIG    1        4.680   0.543   1.796  0.00  0.00    +0.093 C 
ATOM     17  C   LIG    1        4.610   2.086   1.719  0.00  0.00    +0.037 C 
ATOM     18  C   LIG    1        5.043   2.672   0.362  0.00  0.00    +0.003 C 
ATOM     19  C   LIG    1        6.016  -0.074   1.342  0.00  0.00    +0.044 C 
ATOM     20  O   LIG    1        1.874   0.368  -2.590  0.00  0.00    -0.251 OA
ATOM     21  C   LIG    1        0.326   6.253  -2.440  0.00  0.00    +0.021 C 
ATOM     22  C   LIG    1        1.072   4.958  -4.438  0.00  0.00    +0.021 C 
ATOM     23  C   LIG    1        2.875   7.968  -1.413  0.00  0.00    +0.018 C 
ATOM     24  C   LIG    1        4.774   4.186   0.252  0.00  0.00    +0.006 C 
ENDROOT
BRANCH  12  25
ATOM     25  C   LIG    1       -0.111   0.047   0.207  0.00  0.00    -0.031 C 
ATOM     26  C   LIG    1       -0.944   1.111   0.091  0.00  0.00    +0.031 C 
ATOM     27  C   LIG    1       -0.571  -1.402   0.337  0.00  0.00    +0.043 C 
BRANCH  26  28
ATOM     28  C   LIG    1       -2.400   1.231   0.096  0.00  0.00    +0.071 A 
ATOM     29  N   LIG    1       -3.137   0.264   0.617  0.00  0.00    -0.245 NA
ATOM     30  C   LIG    1       -4.424   0.511   0.582  0.00  0.00    +0.076 A 
ATOM     31  S   LIG    1       -4.821   2.047  -0.121  0.00  0.00    -0.080 S 
ATOM     32  C   LIG    1       -5.458  -0.455   1.112  0.00  0.00    +0.073 C 
ATOM     33  C   LIG    1       -3.125   2.328  -0.360  0.00  0.00    +0.074 A 
ENDBRANCH  26  28
ENDBRANCH  12  25
BRANCH   3  34
ATOM     34  O   LIG    1        5.573   7.080  -2.101  0.00  0.00    -0.391 OA
ATOM     35  H   LIG    1        6.503   7.004  -1.877  0.00  0.00    +0.210 HD
ENDBRANCH   3  34
BRANCH   8  36
ATOM     36  O   LIG    1       -0.096   3.377  -2.269  0.00  0.00    -0.390 OA
ATOM     37  H   LIG    1       -0.708   4.078  -2.035  0.00  0.00    +0.210 HD
ENDBRANCH   8  36
TORSDOF 4
