REMARK  Name = DB03929
REMARK                            x       y       z     vdW  Elec       q    Type
REMARK                         _______ _______ _______ _____ _____    ______ ____
ROOT
ATOM      1  CA  SER A  1        0.006  -0.011   0.081  0.00  0.00    +0.186 C 
ENDROOT
BRANCH   1   2
ATOM      2  N   SER A  1       -0.593  -0.589   1.297  0.00  0.00    -0.317 NA
ATOM      3  H1  SER A  1       -0.228  -1.518   1.454  0.00  0.00    +0.119 HD
ATOM      4  H2  SER A  1       -1.589  -0.705   1.176  0.00  0.00    +0.119 HD
ENDBRANCH   1   2
BRANCH   1   5
ATOM      5  C   SER A  1       -0.531   1.426  -0.056  0.00  0.00    +0.324 C 
ATOM      6  OXT SER A  1       -0.305   2.307   0.774  0.00  0.00    -0.249 OA
BRANCH   5   7
ATOM      7  O   SER A  1       -1.265   1.582  -1.197  0.00  0.00    -0.479 OA
ATOM      8  H   SER A  1       -1.606   2.474  -1.291  0.00  0.00    +0.295 HD
ENDBRANCH   5   7
ENDBRANCH   1   5
BRANCH   1   9
ATOM      9  CB  SER A  1        1.553  -0.046   0.092  0.00  0.00    +0.185 C 
BRANCH   9  10
ATOM     10  OG  SER A  1        2.023  -1.287  -0.393  0.00  0.00    -0.393 OA
ATOM     11  H   SER A  1        2.983  -1.282  -0.363  0.00  0.00    +0.209 HD
ENDBRANCH   9  10
ENDBRANCH   1   9
TORSDOF 5
