REMARK  Name = DB03604
REMARK                            x       y       z     vdW  Elec       q    Type
REMARK                         _______ _______ _______ _____ _____    ______ ____
ROOT
ATOM      1  C   LIG    1       -2.875   0.092  -0.109  0.00  0.00    -0.035 A 
ATOM      2  C   LIG    1       -2.022  -1.003   0.054  0.00  0.00    +0.022 A 
ATOM      3  C   LIG    1       -0.638  -0.825   0.070  0.00  0.00    +0.057 A 
ATOM      4  I   LIG    1        0.600  -2.496   0.315  0.00  0.00    -0.040 I 
ATOM      5  C   LIG    1       -0.095   0.459  -0.070  0.00  0.00    +0.155 A 
ATOM      6  C   LIG    1       -0.948   1.556  -0.242  0.00  0.00    +0.057 A 
ATOM      7  I   LIG    1       -0.181   3.492  -0.474  0.00  0.00    -0.040 I 
ATOM      8  C   LIG    1       -2.330   1.371  -0.257  0.00  0.00    +0.022 A 
ENDROOT
BRANCH   1   9
ATOM      9  C   LIG    1       -4.392  -0.107  -0.114  0.00  0.00    +0.155 C 
BRANCH   9  10
ATOM     10  C   LIG    1       -4.948  -0.529  -1.494  0.00  0.00    +0.309 C 
ATOM     11  O   LIG    1       -5.871  -1.374  -1.493  0.00  0.00    -0.251 OA
BRANCH  10  12
ATOM     12  O   LIG    1       -4.490   0.011  -2.528  0.00  0.00    -0.480 OA
ATOM     13  H   LIG    1       -4.823  -0.231  -3.370  0.00  0.00    +0.295 HD
ENDBRANCH  10  12
ENDBRANCH   9  10
ENDBRANCH   1   9
BRANCH   5  14
ATOM     14  O   LIG    1        1.269   0.636  -0.051  0.00  0.00    -0.454 OA
BRANCH  14  15
ATOM     15  C   LIG    1        1.923   0.942   1.127  0.00  0.00    +0.130 A 
ATOM     16  C   LIG    1        1.342   0.822   2.400  0.00  0.00    +0.064 A 
ATOM     17  C   LIG    1        2.067   1.142   3.548  0.00  0.00    +0.058 A 
ATOM     18  I   LIG    1        1.137   0.943   5.415  0.00  0.00    -0.040 I 
ATOM     19  C   LIG    1        3.389   1.586   3.434  0.00  0.00    +0.130 A 
ATOM     20  C   LIG    1        3.975   1.702   2.173  0.00  0.00    +0.050 A 
ATOM     21  C   LIG    1        3.245   1.380   1.029  0.00  0.00    +0.050 A 
BRANCH  19  22
ATOM     22  O   LIG    1        4.122   1.909   4.547  0.00  0.00    -0.506 OA
ATOM     23  H   LIG    1        5.012   2.201   4.338  0.00  0.00    +0.292 HD
ENDBRANCH  19  22
ENDBRANCH  14  15
ENDBRANCH   5  14
TORSDOF 6
