REMARK  Name = DB03209
REMARK                            x       y       z     vdW  Elec       q    Type
REMARK                         _______ _______ _______ _____ _____    ______ ____
ROOT
ATOM      1  C   LIG    1        1.495  -0.023   0.000  0.00  0.00    +0.225 A 
ATOM      2  N   LIG    1        2.126   1.203   0.000  0.00  0.00    -0.287 N 
ATOM      3  H   LIG    1        1.562   2.041   0.000  0.00  0.00    +0.172 HD
ATOM      4  C   LIG    1        3.482   1.380   0.000  0.00  0.00    +0.330 A 
ATOM      5  O   LIG    1        4.027   2.480   0.000  0.00  0.00    -0.247 OA
ATOM      6  N   LIG    1        4.162   0.192   0.000  0.00  0.00    -0.259 N 
ATOM      7  H   LIG    1        5.170   0.246   0.000  0.00  0.00    +0.175 HD
ATOM      8  C   LIG    1        3.615  -1.063   0.000  0.00  0.00    +0.352 A 
ATOM      9  O   LIG    1        4.414  -1.996   0.000  0.00  0.00    -0.245 OA
ATOM     10  N   LIG    1        2.203  -1.115   0.000  0.00  0.00    -0.168 NA
ENDROOT
BRANCH   1  11
ATOM     11  C   LIG    1        0.031  -0.013   0.000  0.00  0.00    +0.373 C 
ATOM     12  O   LIG    1       -0.659   1.007   0.000  0.00  0.00    -0.242 OA
BRANCH  11  13
ATOM     13  O   LIG    1       -0.500  -1.275   0.000  0.00  0.00    -0.475 OA
ATOM     14  H   LIG    1       -1.460  -1.269   0.000  0.00  0.00    +0.296 HD
ENDBRANCH  11  13
ENDBRANCH   1  11
TORSDOF 2
