REMARK  Name = DB03567
REMARK                            x       y       z     vdW  Elec       q    Type
REMARK                         _______ _______ _______ _____ _____    ______ ____
ROOT
ATOM      1  C   LIG    1        0.067  -0.028  -0.022  0.00  0.00    +0.178 C 
ATOM      2  O   LIG    1       -0.464   1.305   0.060  0.00  0.00    -0.341 OA
ATOM      3  C   LIG    1       -1.868   1.396   0.130  0.00  0.00    +0.270 C 
ATOM      4  C   LIG    1       -2.539   0.753  -1.112  0.00  0.00    +0.160 C 
ATOM      5  C   LIG    1       -1.991  -0.684  -1.327  0.00  0.00    +0.171 C 
ATOM      6  C   LIG    1       -0.449  -0.716  -1.309  0.00  0.00    +0.176 C 
ENDROOT
BRANCH   4   7
ATOM      7  N   LIG    1       -4.009   0.826  -1.131  0.00  0.00    -0.305 N 
ATOM      8  H   LIG    1       -4.498  -0.032  -0.921  0.00  0.00    +0.149 HD
ATOM      9  C   LIG    1       -4.735   1.925  -1.401  0.00  0.00    +0.210 C 
ATOM     10  O   LIG    1       -4.245   3.024  -1.660  0.00  0.00    -0.276 OA
ATOM     11  C   LIG    1       -6.251   1.762  -1.369  0.00  0.00    +0.109 C 
ENDBRANCH   4   7
BRANCH   3  12
ATOM     12  O   LIG    1       -2.388   0.838   1.277  0.00  0.00    -0.365 OA
ATOM     13  H   LIG    1       -3.251   1.231   1.430  0.00  0.00    +0.213 HD
ENDBRANCH   3  12
BRANCH   5  14
ATOM     14  O   LIG    1       -2.524  -1.306  -2.486  0.00  0.00    -0.387 OA
ATOM     15  H   LIG    1       -3.062  -2.053  -2.211  0.00  0.00    +0.210 HD
ENDBRANCH   5  14
BRANCH   6  16
ATOM     16  O   LIG    1        0.112  -0.145  -2.482  0.00  0.00    -0.387 OA
ATOM     17  H   LIG    1       -0.188  -0.654  -3.240  0.00  0.00    +0.210 HD
ENDBRANCH   6  16
BRANCH   1  18
ATOM     18  C   LIG    1        1.607   0.027   0.066  0.00  0.00    +0.190 C 
BRANCH  18  19
ATOM     19  O   LIG    1        2.024   0.467   1.343  0.00  0.00    -0.392 OA
ATOM     20  H   LIG    1        2.983   0.515   1.352  0.00  0.00    +0.210 HD
ENDBRANCH  18  19
ENDBRANCH   1  18
TORSDOF 6
