REMARK  Name = DB03843
REMARK                            x       y       z     vdW  Elec       q    Type
REMARK                         _______ _______ _______ _____ _____    ______ ____
ROOT
ATOM      1  C   LIG    1        0.288   0.481   0.332  0.00  0.00    +0.305 C 
ATOM      2  O   LIG    1       -0.620   0.953  -0.349  0.00  0.00    -0.305 OA
ENDROOT
TORSDOF 0
