REMARK  Name = DB03106
REMARK                            x       y       z     vdW  Elec       q    Type
REMARK                         _______ _______ _______ _____ _____    ______ ____
ROOT
ATOM      1  C   LIG    1        0.010   0.000  -0.003  0.00  0.00    +0.176 C 
ATOM      2  C   LIG    1       -0.525  -0.681   1.284  0.00  0.00    +0.176 C 
ATOM      3  C   LIG    1       -2.072  -0.791   1.284  0.00  0.00    +0.176 C 
ATOM      4  C   LIG    1       -2.612  -1.470  -0.002  0.00  0.00    +0.176 C 
ATOM      5  C   LIG    1       -2.072  -0.800  -1.294  0.00  0.00    +0.176 C 
ATOM      6  C   LIG    1       -0.525  -0.677  -1.291  0.00  0.00    +0.176 C 
ENDROOT
BRANCH   1   7
ATOM      7  O   LIG    1        1.429   0.062  -0.003  0.00  0.00    -0.386 OA
ATOM      8  H   LIG    1        1.775  -0.834  -0.005  0.00  0.00    +0.210 HD
ENDBRANCH   1   7
BRANCH   2   9
ATOM      9  O   LIG    1       -0.055  -0.023   2.450  0.00  0.00    -0.386 OA
ATOM     10  H   LIG    1       -0.394   0.875   2.454  0.00  0.00    +0.210 HD
ENDBRANCH   2   9
BRANCH   3  11
ATOM     11  O   LIG    1       -2.544  -1.448   2.451  0.00  0.00    -0.386 OA
ATOM     12  H   LIG    1       -2.208  -2.347   2.454  0.00  0.00    +0.210 HD
ENDBRANCH   3  11
BRANCH   4  13
ATOM     13  O   LIG    1       -4.031  -1.516  -0.001  0.00  0.00    -0.386 OA
ATOM     14  H   LIG    1       -4.368  -0.618   0.018  0.00  0.00    +0.210 HD
ENDBRANCH   4  13
BRANCH   5  15
ATOM     15  O   LIG    1       -2.527  -1.484  -2.451  0.00  0.00    -0.386 OA
ATOM     16  H   LIG    1       -3.073  -0.886  -2.967  0.00  0.00    +0.210 HD
ENDBRANCH   5  15
BRANCH   6  17
ATOM     17  O   LIG    1       -0.060  -0.007  -2.454  0.00  0.00    -0.386 OA
ATOM     18  H   LIG    1       -0.387   0.895  -2.441  0.00  0.00    +0.210 HD
ENDBRANCH   6  17
TORSDOF 6
