REMARK  Name = DB03255
REMARK                            x       y       z     vdW  Elec       q    Type
REMARK                         _______ _______ _______ _____ _____    ______ ____
ROOT
ATOM      1  C   LIG    1        1.376   0.002   0.000  0.00  0.00    +0.117 A 
ATOM      2  C   LIG    1        2.068   1.214   0.000  0.00  0.00    +0.045 A 
ATOM      3  C   LIG    1        3.461   1.213   0.000  0.00  0.00    +0.004 A 
ATOM      4  C   LIG    1        4.150   0.001   0.000  0.00  0.00    +0.000 A 
ATOM      5  C   LIG    1        3.460  -1.210   0.000  0.00  0.00    +0.004 A 
ATOM      6  C   LIG    1        2.067  -1.210   0.000  0.00  0.00    +0.045 A 
ENDROOT
BRANCH   1   7
ATOM      7  O   LIG    1        0.007   0.002   0.000  0.00  0.00    -0.507 OA
ATOM      8  H   LIG    1       -0.367   0.885   0.000  0.00  0.00    +0.292 HD
ENDBRANCH   1   7
TORSDOF 1
