REMARK  Name = DB03128
REMARK                            x       y       z     vdW  Elec       q    Type
REMARK                         _______ _______ _______ _____ _____    ______ ____
ROOT
ATOM      1  C   LIG    1       -0.474   1.618   0.000  0.00  0.00    +0.214 C 
ENDROOT
BRANCH   1   2
ATOM      2  O   LIG    1       -1.895   1.645   0.000  0.00  0.00    -0.467 OA
BRANCH   2   4
ATOM      3  C   LIG    1       -4.072   2.640   0.000  0.00  0.00    +0.136 C 
ATOM      4  C   LIG    1       -2.558   2.820   0.000  0.00  0.00    +0.304 C 
ATOM      5  O   LIG    1       -2.052   3.943   0.000  0.00  0.00    -0.251 OA
ENDBRANCH   2   4
ENDBRANCH   1   2
BRANCH   1   6
ATOM      6  C   LIG    1        0.008   0.152   0.000  0.00  0.00    -0.035 C 
BRANCH   6   7
ATOM      7  N   LIG    1        1.556  -0.006   0.000  0.00  0.00    +0.377 N 
ATOM      8  C   LIG    1        2.186   0.629   1.263  0.00  0.00    -0.093 C 
ATOM      9  C   LIG    1        2.186   0.629  -1.263  0.00  0.00    -0.093 C 
ATOM     10  C   LIG    1        1.886  -1.518   0.000  0.00  0.00    -0.093 C 
ENDBRANCH   6   7
ENDBRANCH   1   6
TORSDOF 4
