REMARK  Name = DB03312
REMARK                            x       y       z     vdW  Elec       q    Type
REMARK                         _______ _______ _______ _____ _____    ______ ____
ROOT
ATOM      1  C   LIG    1       -1.899  -1.207   0.003  0.00  0.00    +0.056 A 
ATOM      2  C   LIG    1       -2.677   0.021  -0.167  0.00  0.00    +0.261 A 
ATOM      3  N   LIG    1       -1.920   1.158  -0.149  0.00  0.00    -0.274 N 
ATOM      4  H   LIG    1       -2.438   2.016  -0.265  0.00  0.00    +0.173 HD
ATOM      5  C   LIG    1       -0.567   1.315   0.003  0.00  0.00    +0.331 A 
ATOM      6  N   LIG    1        0.115   0.123   0.158  0.00  0.00    -0.273 N 
ATOM      7  O   LIG    1       -0.080   2.446  -0.003  0.00  0.00    -0.246 OA
ATOM      8  O   LIG    1       -3.898   0.073  -0.316  0.00  0.00    -0.267 OA
ATOM      9  C   LIG    1       -0.560  -1.075   0.150  0.00  0.00    +0.106 A 
ENDROOT
BRANCH   6  10
ATOM     10  C1* LIG    1        1.561   0.126   0.340  0.00  0.00    +0.226 C 
ATOM     11  C2* LIG    1        2.099  -0.428   1.651  0.00  0.00    +0.088 C 
ATOM     12  C3* LIG    1        3.546  -0.681   1.248  0.00  0.00    +0.150 C 
ATOM     13  C4* LIG    1        3.450  -1.123  -0.225  0.00  0.00    +0.175 C 
ATOM     14  O4* LIG    1        2.179  -0.634  -0.654  0.00  0.00    -0.348 OA
BRANCH  12  15
ATOM     15  O3* LIG    1        4.352   0.472   1.413  0.00  0.00    -0.389 OA
ATOM     16  H3* LIG    1        5.202   0.314   0.994  0.00  0.00    +0.210 HD
ENDBRANCH  12  15
BRANCH  13  17
ATOM     17  C5* LIG    1        3.431  -2.649  -0.445  0.00  0.00    +0.190 C 
BRANCH  17  18
ATOM     18  O5* LIG    1        4.722  -3.193  -0.266  0.00  0.00    -0.392 OA
ATOM     19  H5* LIG    1        4.685  -4.136  -0.444  0.00  0.00    +0.210 HD
ENDBRANCH  17  18
ENDBRANCH  13  17
ENDBRANCH   6  10
BRANCH   1  22
ATOM     20 BR   LIG    1       -3.060  -5.335  -0.398  0.00  0.00    -0.059 Br
ATOM     21  C   LIG    1       -2.047  -3.644  -0.444  0.00  0.00    +0.052 C 
ATOM     22  C   LIG    1       -2.588  -2.493  -0.009  0.00  0.00    +0.022 C 
ENDBRANCH   1  22
TORSDOF 5
