REMARK  Name = DB03424
REMARK                            x       y       z     vdW  Elec       q    Type
REMARK                         _______ _______ _______ _____ _____    ______ ____
ROOT
ATOM      1  C   UNK A  0       -2.526   0.816   0.267  0.00  0.00    +0.186 C 
ENDROOT
BRANCH   1   2
ATOM      2  C   UNK A  0       -0.995   0.954   0.439  0.00  0.00    +0.241 C 
ATOM      3  N   LEU A  1       -0.260  -0.059  -0.050  0.00  0.00    -0.300 N 
ATOM      4  H   LEU A  1       -0.729  -0.816  -0.525  0.00  0.00    +0.150 HD
ATOM      5  O   UNK A  0       -0.496   1.943   0.981  0.00  0.00    -0.273 OA
BRANCH   3   6
ATOM      6  CA  LEU A  1        1.208  -0.152  -0.054  0.00  0.00    +0.182 C 
BRANCH   6   7
ATOM      7  C   LEU A  1        1.644  -0.971  -1.329  0.00  0.00    +0.325 C 
ATOM      8  OXT LEU A  1        2.541  -0.426  -2.012  0.00  0.00    -0.249 OA
BRANCH   7   9
ATOM      9  O   LEU A  1        1.075  -2.076  -1.516  0.00  0.00    -0.479 OA
ATOM     10  H   LEU A  1        0.792  -2.317  -2.375  0.00  0.00    +0.295 HD
ENDBRANCH   7   9
ENDBRANCH   6   7
BRANCH   6  11
ATOM     11  CB  LEU A  1        1.728  -0.911   1.208  0.00  0.00    +0.036 C 
BRANCH  11  12
ATOM     12  CG  LEU A  1        1.683  -0.118   2.536  0.00  0.00    -0.015 C 
ATOM     13  CD2 LEU A  1        2.049  -1.026   3.732  0.00  0.00    +0.007 C 
ATOM     14  CD1 LEU A  1        2.544   1.163   2.488  0.00  0.00    +0.007 C 
ENDBRANCH  11  12
ENDBRANCH   6  11
ENDBRANCH   3   6
ENDBRANCH   1   2
BRANCH   1  15
ATOM     15  O   UNK A  0       -3.156   1.499   1.346  0.00  0.00    -0.384 OA
ATOM     16  H   UNK A  0       -2.803   1.158   2.172  0.00  0.00    +0.210 HD
ENDBRANCH   1  15
BRANCH   1  17
ATOM     17  C   UNK A  0       -3.046   1.375  -1.102  0.00  0.00    -0.033 C 
BRANCH  17  18
ATOM     18  N   UNK A  0       -4.567   1.131  -1.208  0.00  0.00    +0.382 N 
ATOM     19  H   UNK A  0       -5.037   1.548  -0.417  0.00  0.00    -0.090 HD
ATOM     20  H   UNK A  0       -4.925   1.543  -2.058  0.00  0.00    -0.090 HD
ATOM     21  H   UNK A  0       -4.762   0.140  -1.217  0.00  0.00    -0.090 HD
ENDBRANCH  17  18
BRANCH  17  22
ATOM     22  C   UNK A  0       -2.346   0.802  -2.374  0.00  0.00    +0.022 C 
BRANCH  22  23
ATOM     23  C   UNK A  0       -2.845   1.355  -3.709  0.00  0.00    -0.049 A 
ATOM     24  C   UNK A  0       -2.534   2.667  -4.077  0.00  0.00    +0.003 A 
ATOM     25  C   UNK A  0       -2.983   3.172  -5.295  0.00  0.00    +0.000 A 
ATOM     26  C   UNK A  0       -3.740   2.364  -6.140  0.00  0.00    +0.000 A 
ATOM     27  C   UNK A  0       -4.052   1.054  -5.780  0.00  0.00    +0.000 A 
ATOM     28  C   UNK A  0       -3.603   0.548  -4.563  0.00  0.00    +0.003 A 
ENDBRANCH  22  23
ENDBRANCH  17  22
ENDBRANCH   1  17
TORSDOF 11
