REMARK  Name = DB03353
REMARK                            x       y       z     vdW  Elec       q    Type
REMARK                         _______ _______ _______ _____ _____    ______ ____
ROOT
ATOM      1  C   LIG    1        4.146  -1.343   3.574  0.00  0.00    +0.170 C 
ATOM      2  N   LIG    1        3.542  -0.646   2.620  0.00  0.00    -0.278 NA
ATOM      3  H   LIG    1        2.923   0.126   2.823  0.00  0.00    +0.125 HD
ATOM      4  C   LIG    1        4.218  -0.734   1.321  0.00  0.00    +0.087 C 
ATOM      5  C   LIG    1        3.478  -1.465   0.159  0.00  0.00    +0.065 C 
ATOM      6  S   LIG    1        4.083  -3.170   0.173  0.00  0.00    -0.154 S 
ATOM      7  C   LIG    1        5.726  -2.656   0.718  0.00  0.00    +0.089 C 
ATOM      8  C   LIG    1        5.512  -1.483   1.691  0.00  0.00    +0.084 C 
ATOM      9  N   LIG    1        5.271  -1.849   3.087  0.00  0.00    -0.278 NA
ATOM     10  H   LIG    1        5.908  -2.427   3.616  0.00  0.00    +0.125 HD
ENDROOT
BRANCH   1  11
ATOM     11  N   LIG    1        3.695  -1.509   4.809  0.00  0.00    -0.297 NA
ATOM     12  H   LIG    1        4.222  -2.063   5.468  0.00  0.00    +0.121 HD
ATOM     13  H   LIG    1        2.818  -1.089   5.085  0.00  0.00    +0.121 HD
ENDBRANCH   1  11
BRANCH   5  14
ATOM     14  C   LIG    1        1.932  -1.406   0.121  0.00  0.00    +0.016 C 
BRANCH  14  15
ATOM     15  C   LIG    1        1.374   0.018  -0.063  0.00  0.00    +0.002 C 
BRANCH  15  16
ATOM     16  C   LIG    1       -0.164   0.067  -0.042  0.00  0.00    +0.011 C 
BRANCH  16  17
ATOM     17  C   LIG    1       -0.715   1.507  -0.202  0.00  0.00    +0.120 C 
BRANCH  17  18
ATOM     18  C   LIG    1       -2.250   1.642  -0.052  0.00  0.00    +0.305 C 
ATOM     19  O   LIG    1       -2.691   2.809   0.048  0.00  0.00    -0.251 OA
BRANCH  18  20
ATOM     20  O   LIG    1       -2.974   0.619  -0.055  0.00  0.00    -0.481 OA
ATOM     21  H   LIG    1       -2.584  -0.230  -0.133  0.00  0.00    +0.295 HD
ENDBRANCH  18  20
ENDBRANCH  17  18
ENDBRANCH  16  17
ENDBRANCH  15  16
ENDBRANCH  14  15
ENDBRANCH   5  14
TORSDOF 7
