REMARK  Name = DB03348
REMARK                            x       y       z     vdW  Elec       q    Type
REMARK                         _______ _______ _______ _____ _____    ______ ____
ROOT
ATOM      1  C   LIG    1       -2.392  -2.024  -2.808  0.00  0.00    +0.009 A 
ATOM      2  C   LIG    1       -2.589  -1.750  -4.117  0.00  0.00    +0.070 A 
ATOM      3  C   LIG    1       -2.878  -0.407  -4.600  0.00  0.00    +0.249 A 
ATOM      4  O   LIG    1       -3.103  -0.139  -5.778  0.00  0.00    -0.268 OA
ATOM      5  N   LIG    1       -2.887   0.541  -3.623  0.00  0.00    -0.326 N 
ATOM      6  H   LIG    1       -3.068   1.482  -3.939  0.00  0.00    +0.169 HD
ATOM      7  C   LIG    1       -2.675   0.294  -2.285  0.00  0.00    +0.021 A 
ATOM      8  C   LIG    1       -2.725   1.540  -1.390  0.00  0.00    +0.061 C 
ATOM      9  C   LIG    1       -2.208   1.254   0.042  0.00  0.00    +0.019 C 
ATOM     10  C   LIG    1       -2.800  -0.076   0.577  0.00  0.00    -0.010 C 
ATOM     11  C   LIG    1       -4.350  -0.071   0.667  0.00  0.00    +0.001 C 
ATOM     12  C   LIG    1       -4.890  -1.426   1.146  0.00  0.00    -0.019 C 
ATOM     13  C   LIG    1       -4.411  -2.567   0.232  0.00  0.00    -0.081 C 
ATOM     14  N   LIG    1       -2.871  -2.570   0.184  0.00  0.00    +0.386 N 
ATOM     15  H   LIG    1       -2.526  -2.776   1.111  0.00  0.00    -0.085 HD
ATOM     16  H   LIG    1       -2.554  -3.321  -0.413  0.00  0.00    -0.085 HD
ATOM     17  C   LIG    1       -2.220  -1.244  -0.290  0.00  0.00    -0.033 C 
ATOM     18  C   LIG    1       -0.687  -1.360  -0.020  0.00  0.00    +0.022 C 
ATOM     19  C   LIG    1        0.018   0.002  -0.029  0.00  0.00    -0.077 C 
ATOM     20  C   LIG    1        1.535  -0.018  -0.003  0.00  0.00    +0.038 C 
ATOM     21  C   LIG    1       -0.679   1.160   0.021  0.00  0.00    -0.024 C 
ATOM     22  C   LIG    1       -2.450  -0.965  -1.797  0.00  0.00    -0.038 A 
ENDROOT
TORSDOF 0
