REMARK  Name = DB03496
REMARK                            x       y       z     vdW  Elec       q    Type
REMARK                         _______ _______ _______ _____ _____    ______ ____
ROOT
ATOM      1  C   LIG    1        1.676  -0.138  -0.147  0.00  0.00    +0.043 A 
ATOM      2  C   LIG    1        2.338   1.102  -0.061  0.00  0.00    +0.150 A 
ATOM      3  O   LIG    1        1.535   2.230  -0.021  0.00  0.00    -0.454 OA
ATOM      4  C   LIG    1        2.107   3.453   0.077  0.00  0.00    +0.141 A 
ATOM      5  C   LIG    1        3.435   3.667   0.141  0.00  0.00    +0.098 A 
ATOM      6  C   LIG    1        4.390   2.569   0.095  0.00  0.00    +0.197 A 
ATOM      7  O   LIG    1        5.606   2.751   0.139  0.00  0.00    -0.287 OA
ATOM      8  C   LIG    1        3.747   1.204   0.002  0.00  0.00    +0.106 A 
ATOM      9  C   LIG    1        4.493   0.010  -0.019  0.00  0.00    +0.135 A 
ATOM     10  C   LIG    1        3.849  -1.221  -0.080  0.00  0.00    +0.092 A 
ATOM     11  C   LIG    1        2.462  -1.304  -0.134  0.00  0.00    +0.127 A 
ENDROOT
BRANCH   1  17
ATOM     12  C   LIG    1       -4.190  -0.993  -0.022  0.00  0.00    -0.096 C 
ATOM     13  N   LIG    1       -2.658  -1.139   0.053  0.00  0.00    +0.380 N 
ATOM     14  H   LIG    1       -2.431  -2.067   0.384  0.00  0.00    -0.082 HD
ATOM     15  C   LIG    1       -2.068  -0.119   1.059  0.00  0.00    -0.047 C 
ATOM     16  C   LIG    1       -0.546  -0.365   1.170  0.00  0.00    +0.106 C 
ATOM     17  C   LIG    1        0.127  -0.178  -0.216  0.00  0.00    +0.051 C 
ATOM     18  C   LIG    1       -0.500  -1.119  -1.282  0.00  0.00    -0.008 C 
ATOM     19  C   LIG    1       -2.036  -0.959  -1.355  0.00  0.00    -0.078 C 
BRANCH  16  20
ATOM     20  O   LIG    1       -0.279  -1.637   1.736  0.00  0.00    -0.393 OA
ATOM     21  H   LIG    1        0.670  -1.784   1.720  0.00  0.00    +0.210 HD
ENDBRANCH  16  20
ENDBRANCH   1  17
BRANCH   4  22
ATOM     22  C   LIG    1        1.083   4.506   0.158  0.00  0.00    +0.036 A 
ATOM     23  C   LIG    1        0.766   5.144   1.369  0.00  0.00    +0.052 A 
ATOM     24 CL   LIG    1        1.576   4.737   2.845  0.00  0.00    -0.083 Cl
ATOM     25  C   LIG    1       -0.229   6.123   1.404  0.00  0.00    +0.021 A 
ATOM     26  C   LIG    1       -0.918   6.469   0.243  0.00  0.00    +0.001 A 
ATOM     27  C   LIG    1       -0.618   5.831  -0.959  0.00  0.00    +0.001 A 
ATOM     28  C   LIG    1        0.374   4.851  -0.999  0.00  0.00    +0.013 A 
ENDBRANCH   4  22
BRANCH   9  29
ATOM     29  O   LIG    1        5.865  -0.011   0.033  0.00  0.00    -0.506 OA
ATOM     30  H   LIG    1        6.228  -0.899   0.016  0.00  0.00    +0.292 HD
ENDBRANCH   9  29
BRANCH  11  31
ATOM     31  O   LIG    1        1.916  -2.560  -0.152  0.00  0.00    -0.506 OA
ATOM     32  H   LIG    1        2.581  -3.253  -0.137  0.00  0.00    +0.292 HD
ENDBRANCH  11  31
TORSDOF 5
