REMARK  Name = DB03808
REMARK                            x       y       z     vdW  Elec       q    Type
REMARK                         _______ _______ _______ _____ _____    ______ ____
ROOT
ATOM      1  C   LIG    1       -0.018   0.045  -0.004  0.00  0.00    +0.003 C 
ENDROOT
BRANCH   1   2
ATOM      2  C   LIG    1       -0.534   1.497  -0.023  0.00  0.00    +0.041 C 
BRANCH   2   3
ATOM      3  C   LIG    1       -2.064   1.604   0.068  0.00  0.00    +0.229 C 
BRANCH   3   4
ATOM      4  O   LIG    1       -2.657   0.968  -1.062  0.00  0.00    -0.492 OA
BRANCH   4   8
ATOM      5  C   LIG    1       -6.835   0.593  -1.484  0.00  0.00    +0.065 A 
ATOM      6  C   LIG    1       -5.923   0.068  -2.417  0.00  0.00    +0.019 A 
ATOM      7  C   LIG    1       -4.549   0.209  -2.252  0.00  0.00    +0.046 A 
ATOM      8  C   LIG    1       -4.033   0.880  -1.147  0.00  0.00    +0.121 A 
ATOM      9  C   LIG    1       -4.921   1.415  -0.205  0.00  0.00    +0.046 A 
ATOM     10  C   LIG    1       -6.295   1.272  -0.374  0.00  0.00    +0.019 A 
BRANCH   5  11
ATOM     11  C   LIG    1       -8.308   0.426  -1.684  0.00  0.00    +0.308 C 
ATOM     12  N   LIG    1       -8.761  -0.186  -2.694  0.00  0.00    -0.099 NA
ATOM     13  H   LIG    1       -9.769  -0.227  -2.707  0.00  0.00    +0.363 HD
BRANCH  11  14
ATOM     14  N   LIG    1       -9.088   0.984  -0.693  0.00  0.00    -0.247 N 
ATOM     15  H   LIG    1       -8.663   1.463   0.087  0.00  0.00    +0.288 HD
ATOM     16  H   LIG    1      -10.094   0.919  -0.735  0.00  0.00    +0.288 HD
ENDBRANCH  11  14
ENDBRANCH   5  11
ENDBRANCH   4   8
ENDBRANCH   3   4
ENDBRANCH   2   3
ENDBRANCH   1   2
BRANCH   1  17
ATOM     17  C   LIG    1        1.518  -0.045  -0.004  0.00  0.00    +0.003 C 
BRANCH  17  18
ATOM     18  C   LIG    1        2.034  -1.497  -0.023  0.00  0.00    +0.041 C 
BRANCH  18  19
ATOM     19  C   LIG    1        3.564  -1.604   0.068  0.00  0.00    +0.229 C 
BRANCH  19  20
ATOM     20  O   LIG    1        4.157  -0.968  -1.062  0.00  0.00    -0.492 OA
BRANCH  20  21
ATOM     21  C   LIG    1        5.533  -0.880  -1.147  0.00  0.00    +0.121 A 
ATOM     22  C   LIG    1        6.421  -1.415  -0.205  0.00  0.00    +0.046 A 
ATOM     23  C   LIG    1        7.795  -1.272  -0.374  0.00  0.00    +0.019 A 
ATOM     24  C   LIG    1        8.335  -0.593  -1.484  0.00  0.00    +0.065 A 
ATOM     25  C   LIG    1        7.423  -0.068  -2.418  0.00  0.00    +0.019 A 
ATOM     26  C   LIG    1        6.049  -0.209  -2.252  0.00  0.00    +0.046 A 
BRANCH  24  27
ATOM     27  C   LIG    1        9.808  -0.426  -1.684  0.00  0.00    +0.308 C 
ATOM     28  N   LIG    1       10.261   0.186  -2.694  0.00  0.00    -0.099 NA
ATOM     29  H   LIG    1       11.269   0.227  -2.707  0.00  0.00    +0.363 HD
BRANCH  27  30
ATOM     30  N   LIG    1       10.588  -0.984  -0.692  0.00  0.00    -0.247 N 
ATOM     31  H   LIG    1       10.163  -1.463   0.087  0.00  0.00    +0.288 HD
ATOM     32  H   LIG    1       11.594  -0.919  -0.735  0.00  0.00    +0.288 HD
ENDBRANCH  27  30
ENDBRANCH  24  27
ENDBRANCH  20  21
ENDBRANCH  19  20
ENDBRANCH  18  19
ENDBRANCH  17  18
ENDBRANCH   1  17
TORSDOF 13
