REMARK  Name = DB03085
REMARK                            x       y       z     vdW  Elec       q    Type
REMARK                         _______ _______ _______ _____ _____    ______ ____
ROOT
ATOM      1  C   LIG    1        1.900  -1.422   0.045  0.00  0.00    +0.330 C 
ATOM      2  O   LIG    1        2.803  -1.824  -0.685  0.00  0.00    -0.248 OA
ENDROOT
BRANCH   1   3
ATOM      3  O   LIG    1        1.315  -2.171   1.028  0.00  0.00    -0.479 OA
ATOM      4  H   LIG    1        1.674  -3.059   1.074  0.00  0.00    +0.295 HD
ENDBRANCH   1   3
BRANCH   1   5
ATOM      5  C   LIG    1        1.356   0.013  -0.035  0.00  0.00    +0.276 C 
BRANCH   5   6
ATOM      6  O   LIG    1       -0.043   0.037   0.187  0.00  0.00    -0.384 OA
ATOM      7  H   LIG    1       -0.366   0.923   0.012  0.00  0.00    +0.210 HD
ENDBRANCH   5   6
ENDBRANCH   1   5
TORSDOF 3
