REMARK  Name = DB03166
REMARK                            x       y       z     vdW  Elec       q    Type
REMARK                         _______ _______ _______ _____ _____    ______ ____
ROOT
ATOM      1  C   LIG    1       -0.016  -0.022   0.000  0.00  0.00    +0.302 C 
ATOM      2  O   LIG    1       -0.700   0.999   0.000  0.00  0.00    -0.251 OA
ATOM      3  C   LIG    1        1.510   0.002   0.000  0.00  0.00    +0.136 C 
ENDROOT
BRANCH   1   4
ATOM      4  O   LIG    1       -0.509  -1.294   0.000  0.00  0.00    -0.481 OA
ATOM      5  H   LIG    1       -1.468  -1.313   0.000  0.00  0.00    +0.295 HD
ENDBRANCH   1   4
TORSDOF 1
