REMARK  Name = DB03175
REMARK                            x       y       z     vdW  Elec       q    Type
REMARK                         _______ _______ _______ _____ _____    ______ ____
ROOT
ATOM      1  C   LIG    1        1.543  -0.047   0.000  0.00  0.00    +0.155 C 
ENDROOT
BRANCH   1   3
ATOM      2  C   LIG    1       -0.540   1.440   0.000  0.00  0.00    +0.006 C 
ATOM      3  C   LIG    1        0.007   0.006   0.000  0.00  0.00    +0.024 C 
ENDBRANCH   1   3
BRANCH   1   4
ATOM      4  O   LIG    1        2.001  -1.383   0.000  0.00  0.00    -0.395 OA
ATOM      5  H   LIG    1        2.961  -1.377   0.000  0.00  0.00    +0.209 HD
ENDBRANCH   1   4
TORSDOF 2
