REMARK  Name = DB03695
REMARK                            x       y       z     vdW  Elec       q    Type
REMARK                         _______ _______ _______ _____ _____    ______ ____
ROOT
ATOM      1  N   LIG    1       -1.819   5.454   0.393  0.00  0.00    -0.195 NA
ATOM      2  C   LIG    1       -1.467   4.161   0.156  0.00  0.00    +0.167 A 
ATOM      3  N   LIG    1       -0.142   3.980  -0.057  0.00  0.00    -0.235 NA
ATOM      4  C   LIG    1        0.300   2.726  -0.284  0.00  0.00    +0.117 A 
ATOM      5  C   LIG    1       -0.517   1.593  -0.327  0.00  0.00    -0.021 A 
ATOM      6  C   LIG    1       -1.906   1.765  -0.145  0.00  0.00    -0.032 A 
ATOM      7  C   LIG    1       -2.869   0.580  -0.259  0.00  0.00    +0.045 C 
ATOM      8  C   LIG    1       -2.415   3.087   0.133  0.00  0.00    +0.062 A 
ATOM      9  C   LIG    1       -3.769   3.495   0.400  0.00  0.00    +0.131 A 
ATOM     10  N   LIG    1       -4.118   4.780   0.635  0.00  0.00    -0.199 NA
ATOM     11  C   LIG    1       -3.128   5.697   0.618  0.00  0.00    +0.216 A 
ENDROOT
BRANCH   9  12
ATOM     12  N   LIG    1       -4.850   2.618   0.462  0.00  0.00    -0.342 N 
ATOM     13  H   LIG    1       -5.768   2.987   0.665  0.00  0.00    +0.144 HD
ATOM     14  H   LIG    1       -4.703   1.632   0.309  0.00  0.00    +0.144 HD
ENDBRANCH   9  12
BRANCH  11  15
ATOM     15  N   LIG    1       -3.489   7.018   0.855  0.00  0.00    -0.327 N 
ATOM     16  H   LIG    1       -2.776   7.731   0.846  0.00  0.00    +0.145 HD
ATOM     17  H   LIG    1       -4.458   7.242   1.022  0.00  0.00    +0.145 HD
ENDBRANCH  11  15
BRANCH   5  18
ATOM     18  C   LIG    1        0.106   0.205  -0.555  0.00  0.00    +0.075 C 
BRANCH  18  19
ATOM     19  C   LIG    1        1.612   0.061  -0.319  0.00  0.00    +0.002 A 
ATOM     20  C   LIG    1        2.444  -0.257  -1.398  0.00  0.00    +0.053 A 
ATOM     21  C   LIG    1        3.829  -0.405  -1.224  0.00  0.00    +0.121 A 
ATOM     22  C   LIG    1        4.362  -0.237   0.053  0.00  0.00    +0.049 A 
ATOM     23  C   LIG    1        3.542   0.070   1.136  0.00  0.00    +0.049 A 
ATOM     24  C   LIG    1        2.156   0.220   0.967  0.00  0.00    +0.124 A 
BRANCH  21  25
ATOM     25  O   LIG    1        4.719  -0.708  -2.236  0.00  0.00    -0.495 OA
ATOM     26  C   LIG    1        4.230  -0.887  -3.560  0.00  0.00    +0.277 C 
ENDBRANCH  21  25
BRANCH  24  27
ATOM     27  O   LIG    1        1.285   0.520   2.000  0.00  0.00    -0.495 OA
ATOM     28  C   LIG    1        1.796   0.716   3.313  0.00  0.00    +0.277 C 
ENDBRANCH  24  27
ENDBRANCH  18  19
ENDBRANCH   5  18
TORSDOF 6
