REMARK  Name = DB03247
REMARK                            x       y       z     vdW  Elec       q    Type
REMARK                         _______ _______ _______ _____ _____    ______ ____
ROOT
ATOM      1  C   LIG    1       -4.202   0.291  -5.652  0.00  0.00    -0.045 A 
ATOM      2  C   LIG    1       -5.484   0.561  -6.430  0.00  0.00    +0.044 C 
ATOM      3  C   LIG    1       -3.313  -0.677  -6.125  0.00  0.00    +0.033 A 
ATOM      4  C   LIG    1       -2.130  -0.952  -5.439  0.00  0.00    +0.089 A 
ATOM      5  N   LIG    1       -1.308  -1.956  -5.987  0.00  0.00    -0.237 NA
ATOM      6  C   LIG    1       -0.225  -2.262  -5.382  0.00  0.00    +0.171 A 
ATOM      7  C   LIG    1        0.618  -3.332  -5.945  0.00  0.00    +0.282 A 
ATOM      8  O   LIG    1        0.376  -3.962  -6.975  0.00  0.00    -0.265 OA
ATOM      9  N   LIG    1        1.742  -3.591  -5.207  0.00  0.00    -0.272 N 
ATOM     10  H   LIG    1        2.338  -4.324  -5.564  0.00  0.00    +0.174 HD
ATOM     11  C   LIG    1        2.170  -2.994  -4.045  0.00  0.00    +0.351 A 
ATOM     12  O   LIG    1        3.222  -3.437  -3.591  0.00  0.00    -0.245 OA
ATOM     13  N   LIG    1        1.367  -1.957  -3.514  0.00  0.00    -0.173 NA
ATOM     14  C   LIG    1        0.268  -1.596  -4.094  0.00  0.00    +0.170 A 
ATOM     15  N   LIG    1       -0.568  -0.560  -3.603  0.00  0.00    -0.320 N 
ATOM     16  C   LIG    1       -1.809  -0.241  -4.254  0.00  0.00    +0.069 A 
ATOM     17  C   LIG    1       -2.716   0.721  -3.785  0.00  0.00    +0.031 A 
ATOM     18  C   LIG    1       -3.903   0.992  -4.473  0.00  0.00    -0.045 A 
ATOM     19  C   LIG    1       -4.852   2.049  -3.922  0.00  0.00    +0.044 C 
ENDROOT
BRANCH  15  20
ATOM     20  C   LIG    1       -0.158   0.145  -2.370  0.00  0.00    +0.158 C 
BRANCH  20  21
ATOM     21  C   LIG    1       -0.496  -0.609  -1.056  0.00  0.00    +0.165 C 
BRANCH  21  22
ATOM     22  O   LIG    1       -1.901  -0.747  -0.929  0.00  0.00    -0.387 OA
ATOM     23  H   LIG    1       -2.240  -1.142  -1.736  0.00  0.00    +0.210 HD
ENDBRANCH  21  22
BRANCH  21  24
ATOM     24  C   LIG    1        0.085   0.055   0.227  0.00  0.00    +0.175 C 
BRANCH  24  25
ATOM     25  O   LIG    1       -0.379   1.393   0.337  0.00  0.00    -0.387 OA
ATOM     26  H   LIG    1       -0.016   1.775   1.141  0.00  0.00    +0.210 HD
ENDBRANCH  24  25
BRANCH  24  27
ATOM     27  C   LIG    1        1.640   0.029   0.325  0.00  0.00    +0.172 C 
BRANCH  27  28
ATOM     28  O   LIG    1        2.124  -1.289   0.141  0.00  0.00    -0.387 OA
ATOM     29  H   LIG    1        1.853  -1.598  -0.728  0.00  0.00    +0.210 HD
ENDBRANCH  27  28
BRANCH  27  30
ATOM     30  C   LIG    1        2.200   0.536   1.678  0.00  0.00    +0.206 C 
BRANCH  30  31
ATOM     31  O   LIG    1        1.928   1.911   1.907  0.00  0.00    -0.284 OA
BRANCH  31  32
ATOM     32  P   LIG    1        2.839   3.082   1.228  0.00  0.00    +0.472 P 
ATOM     33  O   LIG    1        2.901   3.081  -0.259  0.00  0.00    -0.228 OA
BRANCH  32  34
ATOM     34  O   LIG    1        4.269   2.921   1.981  0.00  0.00    -0.303 OA
ATOM     35  H   LIG    1        5.050   2.855   1.400  0.00  0.00    +0.222 HD
ENDBRANCH  32  34
BRANCH  32  36
ATOM     36  O   LIG    1        2.229   4.435   1.887  0.00  0.00    -0.303 OA
ATOM     37  H   LIG    1        1.907   5.106   1.255  0.00  0.00    +0.222 HD
ENDBRANCH  32  36
ENDBRANCH  31  32
ENDBRANCH  30  31
ENDBRANCH  27  30
ENDBRANCH  24  27
ENDBRANCH  21  24
ENDBRANCH  20  21
ENDBRANCH  15  20
TORSDOF 12
