REMARK  Name = DB03708
REMARK                            x       y       z     vdW  Elec       q    Type
REMARK                         _______ _______ _______ _____ _____    ______ ____
ROOT
ATOM      1  C   LIG    1        1.665  -0.445  -0.129  0.00  0.00    +0.178 C 
ATOM      2  O   LIG    1        2.722  -0.092  -1.018  0.00  0.00    -0.346 OA
ATOM      3  C   LIG    1        3.541   0.915  -0.497  0.00  0.00    +0.253 C 
ATOM      4  C   LIG    1        2.679   1.631   0.545  0.00  0.00    +0.195 C 
ATOM      5  C   LIG    1        1.894   0.443   1.101  0.00  0.00    +0.178 C 
ENDROOT
BRANCH   3   6
ATOM      6  N   LIG    1        4.102   1.768  -1.622  0.00  0.00    -0.286 N 
ATOM      7  C   LIG    1        3.416   2.601  -2.466  0.00  0.00    +0.167 A 
ATOM      8  N   LIG    1        2.106   2.945  -2.460  0.00  0.00    -0.216 NA
ATOM      9  C   LIG    1        1.810   3.805  -3.446  0.00  0.00    +0.225 A 
ATOM     10  N   LIG    1        2.617   4.330  -4.380  0.00  0.00    -0.219 NA
ATOM     11  C   LIG    1        3.927   3.962  -4.368  0.00  0.00    +0.147 A 
ATOM     12  C   LIG    1        4.360   3.053  -3.374  0.00  0.00    +0.147 A 
ATOM     13  N   LIG    1        5.562   2.507  -3.135  0.00  0.00    -0.231 NA
ATOM     14  C   LIG    1        5.359   1.721  -2.107  0.00  0.00    +0.203 A 
BRANCH  11  15
ATOM     15  N   LIG    1        4.778   4.492  -5.336  0.00  0.00    -0.341 N 
ATOM     16  H   LIG    1        4.407   5.135  -6.021  0.00  0.00    +0.144 HD
ATOM     17  H   LIG    1        5.752   4.227  -5.338  0.00  0.00    +0.144 HD
ENDBRANCH  11  15
ENDBRANCH   3   6
BRANCH   4  18
ATOM     18  O   LIG    1        3.498   2.335   1.462  0.00  0.00    -0.385 OA
ATOM     19  H   LIG    1        2.929   2.850   2.040  0.00  0.00    +0.210 HD
ENDBRANCH   4  18
BRANCH   5  20
ATOM     20  O   LIG    1        2.571  -0.257   2.136  0.00  0.00    -0.386 OA
ATOM     21  H   LIG    1        3.431  -0.526   1.806  0.00  0.00    +0.210 HD
ENDBRANCH   5  20
BRANCH   1  22
ATOM     22  C   LIG    1        0.317  -0.268  -0.858  0.00  0.00    +0.206 C 
BRANCH  22  23
ATOM     23  O   LIG    1        0.128   1.071  -1.288  0.00  0.00    -0.283 OA
BRANCH  23  24
ATOM     24  P   LIG    1       -1.253   1.932  -0.709  0.00  0.00    +0.498 P 
ATOM     25  O   LIG    1       -1.360   1.737   0.788  0.00  0.00    -0.225 OA
BRANCH  24  26
ATOM     26  O   LIG    1       -1.256   3.297  -1.361  0.00  0.00    -0.301 OA
ATOM     27  H   LIG    1       -0.587   3.858  -0.939  0.00  0.00    +0.222 HD
ENDBRANCH  24  26
BRANCH  24  28
ATOM     28  O   LIG    1       -2.440   0.960  -1.470  0.00  0.00    -0.109 OA
BRANCH  28  29
ATOM     29  S   LIG    1       -4.097   1.012  -1.449  0.00  0.00    +0.216 S 
ATOM     30  O   LIG    1       -4.439   0.847  -0.032  0.00  0.00    -0.118 OA
ATOM     31  O   LIG    1       -4.419   2.332  -2.003  0.00  0.00    -0.118 OA
BRANCH  29  32
ATOM     32  O   LIG    1       -4.489  -0.115  -2.301  0.00  0.00    -0.231 OA
ATOM     33  H   LIG    1       -5.457  -0.163  -2.348  0.00  0.00    +0.247 HD
ENDBRANCH  29  32
ENDBRANCH  28  29
ENDBRANCH  24  28
ENDBRANCH  23  24
ENDBRANCH  22  23
ENDBRANCH   1  22
TORSDOF 11
