REMARK  Name = DB03849
REMARK                            x       y       z     vdW  Elec       q    Type
REMARK                         _______ _______ _______ _____ _____    ______ ____
ROOT
ATOM      1  C   LIG    1        1.369   0.079   0.076  0.00  0.00    -0.024 A 
ATOM      2  C   LIG    1        2.114   0.670   1.103  0.00  0.00    +0.009 A 
ATOM      3  C   LIG    1        3.504   0.698   1.058  0.00  0.00    +0.050 A 
ATOM      4  C   LIG    1        4.197   0.126  -0.020  0.00  0.00    +0.162 A 
ATOM      5  C   LIG    1        3.471  -0.481  -1.054  0.00  0.00    +0.163 A 
ATOM      6  C   LIG    1        2.067  -0.501  -0.994  0.00  0.00    +0.054 A 
ENDROOT
BRANCH   1   7
ATOM      7  C   LIG    1       -0.174   0.054   0.168  0.00  0.00    +0.082 C 
ATOM      8  C   LIG    1       -0.909  -0.269  -1.178  0.00  0.00    +0.027 C 
ATOM      9  C   LIG    1       -2.444  -0.354  -1.014  0.00  0.00    +0.016 C 
ATOM     10  C   LIG    1       -2.755  -1.450   0.032  0.00  0.00    +0.098 C 
ATOM     11  C   LIG    1       -2.176  -1.024   1.406  0.00  0.00    +0.016 C 
ATOM     12  C   LIG    1       -0.637  -0.934   1.287  0.00  0.00    +0.027 C 
BRANCH  10  13
ATOM     13  C   LIG    1       -4.286  -1.706   0.100  0.00  0.00    +0.308 C 
ATOM     14  O   LIG    1       -5.009  -0.909   0.742  0.00  0.00    -0.251 OA
BRANCH  13  15
ATOM     15  O   LIG    1       -4.735  -2.639  -0.606  0.00  0.00    -0.480 OA
ATOM     16  H   LIG    1       -4.146  -3.205  -1.065  0.00  0.00    +0.295 HD
ENDBRANCH  13  15
ENDBRANCH  10  13
BRANCH   7  17
ATOM     17  C   LIG    1       -0.617   1.413   0.560  0.00  0.00    +0.074 C 
ATOM     18  N   LIG    1       -0.962   2.475   0.866  0.00  0.00    -0.196 NA
ENDBRANCH   7  17
ENDBRANCH   1   7
BRANCH   4  19
ATOM     19  O   LIG    1        5.576   0.121  -0.129  0.00  0.00    -0.491 OA
ATOM     20  C   LIG    1        6.362   0.727   0.892  0.00  0.00    +0.277 C 
ENDBRANCH   4  19
BRANCH   5  21
ATOM     21  O   LIG    1        4.206  -1.031  -2.092  0.00  0.00    -0.485 OA
BRANCH  21  22
ATOM     22  C   LIG    1        3.555  -1.673  -3.192  0.00  0.00    +0.174 C 
ATOM     23  C   LIG    1        2.966  -0.618  -4.161  0.00  0.00    +0.044 C 
ATOM     24  C   LIG    1        3.663  -0.820  -5.511  0.00  0.00    +0.004 C 
ATOM     25  C   LIG    1        4.996  -1.470  -5.157  0.00  0.00    +0.004 C 
ATOM     26  C   LIG    1        4.644  -2.405  -3.999  0.00  0.00    +0.044 C 
ENDBRANCH  21  22
ENDBRANCH   5  21
TORSDOF 7
