REMARK  Name = DB03766
REMARK                            x       y       z     vdW  Elec       q    Type
REMARK                         _______ _______ _______ _____ _____    ______ ____
ROOT
ATOM      1  C   LIG    1       -0.589   1.419   0.008  0.00  0.00    +0.304 C 
ATOM      2  O   LIG    1       -1.071   1.981  -0.973  0.00  0.00    -0.251 OA
ENDROOT
BRANCH   1   3
ATOM      3  C   LIG    1       -0.005   0.005  -0.037  0.00  0.00    +0.117 C 
ATOM      4  C   LIG    1        1.530  -0.003   0.039  0.00  0.00    +0.015 C 
ENDBRANCH   1   3
BRANCH   1   5
ATOM      5  O   LIG    1       -0.511   1.960   1.259  0.00  0.00    -0.481 OA
ATOM      6  H   LIG    1       -0.877   2.846   1.295  0.00  0.00    +0.295 HD
ENDBRANCH   1   5
TORSDOF 2
