REMARK  Name = DB03044
REMARK                            x       y       z     vdW  Elec       q    Type
REMARK                         _______ _______ _______ _____ _____    ______ ____
ROOT
ATOM      1  C   LIG    1       -0.711   1.278   0.056  0.00  0.00    +0.309 C 
ATOM      2  N   LIG    1        0.091   0.204   0.196  0.00  0.00    -0.269 N 
ATOM      3  H   LIG    1       -0.357  -0.699   0.255  0.00  0.00    +0.156 HD
ATOM      4  N   LIG    1       -2.000   0.917   0.203  0.00  0.00    -0.254 N 
ATOM      5  H   LIG    1       -2.200  -0.052   0.404  0.00  0.00    +0.158 HD
ATOM      6  O   LIG    1       -0.316   2.424  -0.176  0.00  0.00    -0.252 OA
ENDROOT
BRANCH   2   7
ATOM      7  C   LIG    1        1.500   0.171   0.152  0.00  0.00    +0.043 A 
ATOM      8  C   LIG    1        2.268   1.196   0.715  0.00  0.00    +0.027 A 
ATOM      9  C   LIG    1        3.653   1.149   0.700  0.00  0.00    +0.048 A 
ATOM     10  C   LIG    1        4.341   0.069   0.134  0.00  0.00    +0.128 A 
ATOM     11  C   LIG    1        3.592  -1.003  -0.436  0.00  0.00    +0.026 A 
ATOM     12  C   LIG    1        4.240  -2.127  -1.020  0.00  0.00    +0.012 A 
ATOM     13  C   LIG    1        3.504  -3.171  -1.570  0.00  0.00    +0.001 A 
ATOM     14  C   LIG    1        2.117  -3.134  -1.561  0.00  0.00    +0.001 A 
ATOM     15  C   LIG    1        1.445  -2.053  -1.002  0.00  0.00    +0.010 A 
ATOM     16  C   LIG    1        2.158  -0.960  -0.426  0.00  0.00    +0.007 A 
BRANCH  10  17
ATOM     17  O   LIG    1        5.723  -0.023   0.103  0.00  0.00    -0.490 OA
BRANCH  17  18
ATOM     18  C   LIG    1        6.520   1.033   0.635  0.00  0.00    +0.244 C 
BRANCH  18  19
ATOM     19  C   LIG    1        8.015   0.674   0.507  0.00  0.00    +0.125 C 
BRANCH  19  20
ATOM     20  N   LIG    1        8.437   0.344  -0.860  0.00  0.00    -0.295 NA
ATOM     21  C   LIG    1        8.290   1.464  -1.802  0.00  0.00    +0.112 C 
ATOM     22  C   LIG    1        8.837   1.107  -3.201  0.00  0.00    +0.175 C 
ATOM     23  O   LIG    1       10.180   0.647  -3.103  0.00  0.00    -0.377 OA
ATOM     24  C   LIG    1       10.294  -0.512  -2.285  0.00  0.00    +0.175 C 
ATOM     25  C   LIG    1        9.802  -0.198  -0.856  0.00  0.00    +0.112 C 
ENDBRANCH  19  20
ENDBRANCH  18  19
ENDBRANCH  17  18
ENDBRANCH  10  17
ENDBRANCH   2   7
BRANCH   4  26
ATOM     26  C   LIG    1       -3.097   1.766   0.142  0.00  0.00    +0.130 A 
ATOM     27  C   LIG    1       -3.228   3.107  -0.197  0.00  0.00    +0.069 A 
ATOM     28  C   LIG    1       -4.590   3.422  -0.110  0.00  0.00    +0.071 A 
ATOM     29  N   LIG    1       -5.269   2.352   0.255  0.00  0.00    -0.169 NA
ATOM     30  N   LIG    1       -4.387   1.347   0.412  0.00  0.00    -0.218 N 
BRANCH  30  31
ATOM     31  C   LIG    1       -4.856   0.082   0.856  0.00  0.00    +0.067 A 
ATOM     32  C   LIG    1       -4.109  -0.673   1.770  0.00  0.00    +0.028 A 
ATOM     33  C   LIG    1       -4.571  -1.915   2.195  0.00  0.00    +0.005 A 
ATOM     34  C   LIG    1       -5.784  -2.410   1.715  0.00  0.00    -0.050 A 
ATOM     35  C   LIG    1       -6.278  -3.769   2.176  0.00  0.00    +0.044 C 
ATOM     36  C   LIG    1       -6.533  -1.664   0.803  0.00  0.00    +0.005 A 
ATOM     37  C   LIG    1       -6.073  -0.421   0.377  0.00  0.00    +0.028 A 
ENDBRANCH  30  31
BRANCH  28  38
ATOM     38  C   LIG    1       -5.272   4.773  -0.379  0.00  0.00    +0.006 C 
ATOM     39  C   LIG    1       -5.073   5.150  -1.865  0.00  0.00    +0.017 C 
ATOM     40  C   LIG    1       -6.793   4.746  -0.075  0.00  0.00    +0.017 C 
ATOM     41  C   LIG    1       -4.618   5.855   0.512  0.00  0.00    +0.017 C 
ENDBRANCH  28  38
ENDBRANCH   4  26
TORSDOF 8
