REMARK  Name = DB03796
REMARK                            x       y       z     vdW  Elec       q    Type
REMARK                         _______ _______ _______ _____ _____    ______ ____
ROOT
ATOM      1  C   LIG    1       -0.611   1.479  -0.012  0.00  0.00    +0.000 C 
ENDROOT
BRANCH   1   2
ATOM      2  C   LIG    1       -0.219   2.221  -1.309  0.00  0.00    +0.000 C 
BRANCH   2   3
ATOM      3  C   LIG    1       -0.603   1.486  -2.608  0.00  0.00    +0.000 C 
BRANCH   3   4
ATOM      4  C   LIG    1       -0.254   2.287  -3.875  0.00  0.00    +0.001 C 
BRANCH   4   5
ATOM      5  C   LIG    1       -0.587   1.531  -5.175  0.00  0.00    +0.011 C 
BRANCH   5   6
ATOM      6  C   LIG    1       -0.237   2.344  -6.441  0.00  0.00    +0.120 C 
BRANCH   6   7
ATOM      7  C   LIG    1       -0.521   1.605  -7.756  0.00  0.00    +0.305 C 
ATOM      8  O   LIG    1       -0.994   0.472  -7.827  0.00  0.00    -0.251 OA
BRANCH   7   9
ATOM      9  O   LIG    1       -0.179   2.372  -8.832  0.00  0.00    -0.481 OA
ATOM     10  H   LIG    1       -0.349   1.926  -9.664  0.00  0.00    +0.295 HD
ENDBRANCH   7   9
ENDBRANCH   6   7
ENDBRANCH   5   6
ENDBRANCH   4   5
ENDBRANCH   3   4
ENDBRANCH   2   3
ENDBRANCH   1   2
BRANCH   1  11
ATOM     11  C   LIG    1       -0.023   0.062   0.159  0.00  0.00    -0.000 C 
BRANCH  11  12
ATOM     12  C   LIG    1        1.517   0.001   0.142  0.00  0.00    -0.000 C 
BRANCH  12  13
ATOM     13  C   LIG    1        2.061  -1.428   0.313  0.00  0.00    -0.000 C 
BRANCH  13  14
ATOM     14  C   LIG    1        3.595  -1.501   0.213  0.00  0.00    -0.000 C 
BRANCH  14  15
ATOM     15  C   LIG    1        4.135  -2.939   0.298  0.00  0.00    -0.000 C 
BRANCH  15  16
ATOM     16  C   LIG    1        5.664  -3.016   0.144  0.00  0.00    -0.000 C 
BRANCH  16  17
ATOM     17  C   LIG    1        6.202  -4.457   0.204  0.00  0.00    -0.000 C 
BRANCH  17  18
ATOM     18  C   LIG    1        7.727  -4.537   0.017  0.00  0.00    -0.003 C 
ATOM     19  C   LIG    1        8.262  -5.974   0.082  0.00  0.00    +0.004 C 
ENDBRANCH  17  18
ENDBRANCH  16  17
ENDBRANCH  15  16
ENDBRANCH  14  15
ENDBRANCH  13  14
ENDBRANCH  12  13
ENDBRANCH  11  12
ENDBRANCH   1  11
TORSDOF 15
