REMARK  Name = DB03925
REMARK                            x       y       z     vdW  Elec       q    Type
REMARK                         _______ _______ _______ _____ _____    ______ ____
ROOT
ATOM      1  N   LIG    1        1.498   0.040  -0.037  0.00  0.00    -0.308 N 
ATOM      2  H   LIG    1        1.932  -0.581   0.630  0.00  0.00    +0.149 HD
ATOM      3  C   LIG    1        2.277   0.949  -0.647  0.00  0.00    +0.233 C 
ATOM      4  O   LIG    1        1.848   1.777  -1.455  0.00  0.00    -0.274 OA
ENDROOT
BRANCH   1   5
ATOM      5  C   LIG    1        0.049  -0.147  -0.231  0.00  0.00    +0.113 C 
BRANCH   5   7
ATOM      6  C   LIG    1       -2.170  -0.719   0.993  0.00  0.00    +0.009 C 
ATOM      7  C   LIG    1       -0.641  -0.541   1.116  0.00  0.00    +0.006 C 
ATOM      8  C   LIG    1       -0.327   0.451   2.259  0.00  0.00    +0.009 C 
ENDBRANCH   5   7
BRANCH   5   9
ATOM      9  C   LIG    1       -0.273  -1.115  -1.419  0.00  0.00    +0.222 C 
BRANCH   9  10
ATOM     10  C   LIG    1        0.204  -2.537  -1.168  0.00  0.00    +0.247 A 
ATOM     11  O   LIG    1       -0.686  -3.437  -0.684  0.00  0.00    -0.421 OA
ATOM     12  C   LIG    1        0.071  -4.554  -0.527  0.00  0.00    +0.223 A 
ATOM     13  N   LIG    1        1.322  -4.361  -0.875  0.00  0.00    -0.112 NA
ATOM     14  N   LIG    1        1.412  -3.035  -1.285  0.00  0.00    -0.110 NA
BRANCH  12  15
ATOM     15  C   LIG    1       -0.600  -5.818   0.012  0.00  0.00    +0.040 C 
ATOM     16  C   LIG    1       -1.185  -5.526   1.412  0.00  0.00    +0.020 C 
ATOM     17  C   LIG    1       -1.739  -6.238  -0.943  0.00  0.00    +0.020 C 
ATOM     18  C   LIG    1        0.413  -6.982   0.126  0.00  0.00    +0.020 C 
ENDBRANCH  12  15
ENDBRANCH   9  10
BRANCH   9  19
ATOM     19  O   LIG    1        0.289  -0.650  -2.634  0.00  0.00    -0.381 OA
ATOM     20  H   LIG    1        0.007  -1.231  -3.344  0.00  0.00    +0.211 HD
ENDBRANCH   9  19
ENDBRANCH   5   9
ENDBRANCH   1   5
BRANCH   3  21
ATOM     21  C   LIG    1        3.775   0.869  -0.283  0.00  0.00    +0.222 C 
BRANCH  21  22
ATOM     22  N   LIG    1        4.623   1.763  -1.127  0.00  0.00    -0.282 N 
ATOM     23  C   LIG    1        5.371   1.234  -2.194  0.00  0.00    +0.144 A 
ATOM     24  N   LIG    1        6.239   1.984  -2.798  0.00  0.00    -0.235 NA
ATOM     25  C   LIG    1        6.398   3.286  -2.432  0.00  0.00    +0.141 A 
ATOM     26  C   LIG    1        5.728   3.860  -1.410  0.00  0.00    +0.108 A 
ATOM     27  C   LIG    1        4.773   3.057  -0.642  0.00  0.00    +0.275 A 
ATOM     28  O   LIG    1        4.170   3.506   0.340  0.00  0.00    -0.266 OA
BRANCH  23  29
ATOM     29  C   LIG    1        5.196  -0.163  -2.627  0.00  0.00    +0.018 A 
ATOM     30  C   LIG    1        3.973  -0.594  -3.156  0.00  0.00    +0.011 A 
ATOM     31  C   LIG    1        3.813  -1.920  -3.551  0.00  0.00    +0.001 A 
ATOM     32  C   LIG    1        4.878  -2.810  -3.428  0.00  0.00    +0.000 A 
ATOM     33  C   LIG    1        6.103  -2.386  -2.920  0.00  0.00    +0.001 A 
ATOM     34  C   LIG    1        6.265  -1.061  -2.522  0.00  0.00    +0.011 A 
ENDBRANCH  23  29
BRANCH  26  35
ATOM     35  N   LIG    1        5.889   5.175  -1.030  0.00  0.00    -0.353 N 
ATOM     36  H   LIG    1        5.357   5.562  -0.262  0.00  0.00    +0.143 HD
ATOM     37  H   LIG    1        6.534   5.787  -1.509  0.00  0.00    +0.143 HD
ENDBRANCH  26  35
ENDBRANCH  21  22
ENDBRANCH   3  21
TORSDOF 10
