REMARK  Name = DB03147
REMARK                            x       y       z     vdW  Elec       q    Type
REMARK                         _______ _______ _______ _____ _____    ______ ____
ROOT
ATOM      1  P   LIG    1        2.692   0.295   0.684  0.00  0.00    +0.483 P 
ATOM      2  O   LIG    1        2.689   0.569  -0.779  0.00  0.00    -0.227 OA
ENDROOT
BRANCH   1   3
ATOM      3  O   LIG    1        3.397   1.441   1.593  0.00  0.00    -0.302 OA
ATOM      4  H   LIG    1        3.764   2.202   1.105  0.00  0.00    +0.222 HD
ENDBRANCH   1   3
BRANCH   1   5
ATOM      5  O   LIG    1        1.224   0.114   1.373  0.00  0.00    -0.284 OA
BRANCH   5   6
ATOM      6  C   LIG    1        0.216   1.102   1.226  0.00  0.00    +0.206 C 
BRANCH   6   7
ATOM      7  C   LIG    1       -0.597   0.894  -0.077  0.00  0.00    +0.172 C 
BRANCH   7   8
ATOM      8  O   LIG    1       -1.230  -0.371   0.021  0.00  0.00    -0.387 OA
ATOM      9  H   LIG    1       -1.814  -0.362   0.782  0.00  0.00    +0.210 HD
ENDBRANCH   7   8
BRANCH   7  10
ATOM     10  C   LIG    1       -1.648   2.011  -0.374  0.00  0.00    +0.175 C 
BRANCH  10  11
ATOM     11  O   LIG    1       -1.013   3.276  -0.275  0.00  0.00    -0.387 OA
ATOM     12  H   LIG    1       -1.660   3.961  -0.458  0.00  0.00    +0.210 HD
ENDBRANCH  10  11
BRANCH  10  13
ATOM     13  C   LIG    1       -2.342   1.916  -1.768  0.00  0.00    +0.165 C 
BRANCH  13  14
ATOM     14  O   LIG    1       -3.049   0.695  -1.898  0.00  0.00    -0.387 OA
ATOM     15  H   LIG    1       -2.441  -0.028  -1.720  0.00  0.00    +0.210 HD
ENDBRANCH  13  14
BRANCH  13  16
ATOM     16  C   LIG    1       -3.317   3.089  -2.071  0.00  0.00    +0.158 C 
BRANCH  16  23
ATOM     17  C   LIG    1       -9.002   0.831  -4.838  0.00  0.00    +0.044 C 
ATOM     18  C   LIG    1       -7.652   1.407  -4.430  0.00  0.00    -0.045 A 
ATOM     19  C   LIG    1       -7.206   1.355  -3.099  0.00  0.00    -0.045 A 
ATOM     20  C   LIG    1       -8.048   0.704  -2.010  0.00  0.00    +0.044 C 
ATOM     21  C   LIG    1       -5.964   1.901  -2.760  0.00  0.00    +0.031 A 
ATOM     22  C   LIG    1       -5.148   2.508  -3.727  0.00  0.00    +0.069 A 
ATOM     23  N   LIG    1       -3.867   3.096  -3.444  0.00  0.00    -0.320 N 
ATOM     24  C   LIG    1       -3.071   3.641  -4.485  0.00  0.00    +0.170 A 
ATOM     25  C   LIG    1       -3.713   3.599  -5.874  0.00  0.00    +0.171 A 
ATOM     26  N   LIG    1       -4.864   3.107  -6.126  0.00  0.00    -0.237 NA
ATOM     27  C   LIG    1       -2.933   4.167  -6.988  0.00  0.00    +0.282 A 
ATOM     28  O   LIG    1       -3.300   4.219  -8.163  0.00  0.00    -0.265 OA
ATOM     29  N   LIG    1       -1.712   4.656  -6.610  0.00  0.00    -0.272 N 
ATOM     30  H   LIG    1       -1.151   5.050  -7.351  0.00  0.00    +0.174 HD
ATOM     31  C   LIG    1       -1.141   4.683  -5.359  0.00  0.00    +0.351 A 
ATOM     32  O   LIG    1       -0.020   5.183  -5.312  0.00  0.00    -0.245 OA
ATOM     33  N   LIG    1       -1.895   4.143  -4.290  0.00  0.00    -0.173 NA
ATOM     34  C   LIG    1       -5.606   2.544  -5.069  0.00  0.00    +0.089 A 
ATOM     35  C   LIG    1       -6.847   2.002  -5.404  0.00  0.00    +0.033 A 
ENDBRANCH  16  23
ENDBRANCH  13  16
ENDBRANCH  10  13
ENDBRANCH   7  10
ENDBRANCH   6   7
ENDBRANCH   5   6
ENDBRANCH   1   5
BRANCH   1  36
ATOM     36  O   LIG    1        3.471  -1.061   1.123  0.00  0.00    -0.186 OA
BRANCH  36  37
ATOM     37  P   LIG    1        3.441  -1.865   2.534  0.00  0.00    +0.483 P 
ATOM     38  O   LIG    1        3.782  -1.055   3.735  0.00  0.00    -0.227 OA
BRANCH  37  39
ATOM     39  O   LIG    1        4.426  -3.128   2.262  0.00  0.00    -0.302 OA
ATOM     40  H   LIG    1        5.127  -3.268   2.927  0.00  0.00    +0.222 HD
ENDBRANCH  37  39
BRANCH  37  41
ATOM     41  O   LIG    1        1.953  -2.535   2.554  0.00  0.00    -0.284 OA
BRANCH  41  42
ATOM     42  C   LIG    1        1.474  -3.301   1.459  0.00  0.00    +0.206 C 
BRANCH  42  43
ATOM     43  C   LIG    1        1.050  -4.696   1.948  0.00  0.00    +0.178 C 
ATOM     44  C   LIG    1        2.167  -5.568   2.526  0.00  0.00    +0.178 C 
ATOM     45  C   LIG    1        1.658  -6.992   2.306  0.00  0.00    +0.195 C 
ATOM     46  C   LIG    1        0.934  -6.805   0.966  0.00  0.00    +0.253 C 
ATOM     47  O   LIG    1        0.603  -5.454   0.833  0.00  0.00    -0.346 OA
BRANCH  46  48
ATOM     48  N   LIG    1        1.653  -7.292  -0.280  0.00  0.00    -0.286 N 
ATOM     49  C   LIG    1        1.051  -7.747  -1.420  0.00  0.00    +0.167 A 
ATOM     50  N   LIG    1       -0.271  -7.886  -1.690  0.00  0.00    -0.216 NA
ATOM     51  C   LIG    1       -0.472  -8.370  -2.925  0.00  0.00    +0.225 A 
ATOM     52  N   LIG    1        0.426  -8.709  -3.861  0.00  0.00    -0.219 NA
ATOM     53  C   LIG    1        1.745  -8.556  -3.562  0.00  0.00    +0.147 A 
ATOM     54  C   LIG    1        2.088  -8.053  -2.285  0.00  0.00    +0.147 A 
ATOM     55  N   LIG    1        3.278  -7.797  -1.719  0.00  0.00    -0.231 NA
ATOM     56  C   LIG    1        2.978  -7.338  -0.530  0.00  0.00    +0.203 A 
BRANCH  53  57
ATOM     57  N   LIG    1        2.693  -8.900  -4.523  0.00  0.00    -0.341 N 
ATOM     58  H   LIG    1        2.385  -9.252  -5.418  0.00  0.00    +0.144 HD
ATOM     59  H   LIG    1        3.674  -8.784  -4.314  0.00  0.00    +0.144 HD
ENDBRANCH  53  57
ENDBRANCH  46  48
BRANCH  44  60
ATOM     60  O   LIG    1        2.483  -5.269   3.874  0.00  0.00    -0.386 OA
ATOM     61  H   LIG    1        1.687  -5.365   4.403  0.00  0.00    +0.210 HD
ENDBRANCH  44  60
BRANCH  45  62
ATOM     62  O   LIG    1        0.741  -7.455   3.287  0.00  0.00    -0.385 OA
ATOM     63  H   LIG    1        1.231  -7.680   4.081  0.00  0.00    +0.210 HD
ENDBRANCH  45  62
ENDBRANCH  42  43
ENDBRANCH  41  42
ENDBRANCH  37  41
ENDBRANCH  36  37
ENDBRANCH   1  36
TORSDOF 21
