REMARK  Name = DB03823
REMARK                            x       y       z     vdW  Elec       q    Type
REMARK                         _______ _______ _______ _____ _____    ______ ____
ROOT
ATOM      1  C   LIG    1        0.026   0.096  -0.153  0.00  0.00    +0.232 C 
ATOM      2  O   LIG    1       -0.468   1.442  -0.204  0.00  0.00    -0.481 OA
ATOM      3  C   LIG    1       -1.830   1.595  -0.395  0.00  0.00    +0.132 A 
ATOM      4  C   LIG    1       -2.334   2.861  -0.097  0.00  0.00    +0.091 A 
ATOM      5  C   LIG    1       -3.674   3.151  -0.339  0.00  0.00    +0.124 A 
ATOM      6  C   LIG    1       -4.507   2.178  -0.886  0.00  0.00    +0.091 A 
ATOM      7  C   LIG    1       -4.003   0.911  -1.189  0.00  0.00    +0.127 A 
ATOM      8  C   LIG    1       -2.657   0.595  -0.948  0.00  0.00    +0.038 A 
ATOM      9  C   LIG    1       -2.074  -0.790  -1.224  0.00  0.00    +0.078 C 
ATOM     10  C   LIG    1       -0.539  -0.748  -1.323  0.00  0.00    +0.164 C 
ENDROOT
BRANCH   1  14
ATOM     11  C   LIG    1        4.357  -0.031   0.066  0.00  0.00    +0.201 A 
ATOM     12  C   LIG    1        3.587  -1.042   0.657  0.00  0.00    +0.162 A 
ATOM     13  C   LIG    1        2.194  -0.990   0.586  0.00  0.00    +0.056 A 
ATOM     14  C   LIG    1        1.553   0.064  -0.072  0.00  0.00    +0.002 A 
ATOM     15  C   LIG    1        2.325   1.069  -0.664  0.00  0.00    +0.056 A 
ATOM     16  C   LIG    1        3.719   1.027  -0.596  0.00  0.00    +0.162 A 
BRANCH  11  17
ATOM     17  O   LIG    1        5.729  -0.075   0.133  0.00  0.00    -0.501 OA
ATOM     18  H   LIG    1        6.146   0.669  -0.310  0.00  0.00    +0.292 HD
ENDBRANCH  11  17
BRANCH  12  19
ATOM     19  O   LIG    1        4.181  -2.093   1.310  0.00  0.00    -0.503 OA
ATOM     20  H   LIG    1        3.550  -2.720   1.671  0.00  0.00    +0.292 HD
ENDBRANCH  12  19
BRANCH  16  21
ATOM     21  O   LIG    1        4.445   2.032  -1.185  0.00  0.00    -0.503 OA
ATOM     22  H   LIG    1        3.893   2.701  -1.597  0.00  0.00    +0.292 HD
ENDBRANCH  16  21
ENDBRANCH   1  14
BRANCH   5  23
ATOM     23  O   LIG    1       -4.170   4.393  -0.047  0.00  0.00    -0.507 OA
ATOM     24  H   LIG    1       -5.101   4.482  -0.263  0.00  0.00    +0.292 HD
ENDBRANCH   5  23
BRANCH   7  25
ATOM     25  O   LIG    1       -4.856  -0.024  -1.717  0.00  0.00    -0.506 OA
ATOM     26  H   LIG    1       -5.748   0.310  -1.834  0.00  0.00    +0.292 HD
ENDBRANCH   7  25
BRANCH  10  27
ATOM     27  O   LIG    1       -0.107  -0.275  -2.587  0.00  0.00    -0.387 OA
ATOM     28  H   LIG    1       -0.200   0.680  -2.601  0.00  0.00    +0.210 HD
ENDBRANCH  10  27
TORSDOF 7
