REMARK  Name = DB03585
REMARK                            x       y       z     vdW  Elec       q    Type
REMARK                         _______ _______ _______ _____ _____    ______ ____
ROOT
ATOM      1  O   LIG    1        0.074  -1.456   2.469  0.00  0.00    -0.273 OA
ATOM      2  C   LIG    1       -0.282  -1.507   1.290  0.00  0.00    +0.249 C 
ATOM      3  C   LIG    1        0.214  -0.621   0.174  0.00  0.00    +0.165 C 
ATOM      4  C   LIG    1       -0.089  -1.477  -1.031  0.00  0.00    +0.249 C 
ATOM      5  N   LIG    1       -1.151  -2.239  -0.677  0.00  0.00    -0.180 N 
ATOM      6  O   LIG    1        0.437  -1.366  -2.140  0.00  0.00    -0.273 OA
ATOM      7  N   LIG    1       -1.265  -2.264   0.749  0.00  0.00    -0.180 N 
ENDROOT
BRANCH   5   8
ATOM      8  C   LIG    1       -1.975  -2.965  -1.564  0.00  0.00    +0.057 A 
ATOM      9  C   LIG    1       -1.421  -3.813  -2.532  0.00  0.00    +0.025 A 
ATOM     10  C   LIG    1       -2.254  -4.529  -3.387  0.00  0.00    +0.002 A 
ATOM     11  C   LIG    1       -3.636  -4.399  -3.274  0.00  0.00    +0.000 A 
ATOM     12  C   LIG    1       -4.195  -3.560  -2.314  0.00  0.00    +0.002 A 
ATOM     13  C   LIG    1       -3.365  -2.841  -1.458  0.00  0.00    +0.025 A 
ENDBRANCH   5   8
BRANCH   7  14
ATOM     14  C   LIG    1       -2.067  -3.162   1.482  0.00  0.00    +0.057 A 
ATOM     15  C   LIG    1       -2.917  -2.677   2.483  0.00  0.00    +0.029 A 
ATOM     16  C   LIG    1       -3.716  -3.562   3.203  0.00  0.00    +0.047 A 
ATOM     17  C   LIG    1       -3.661  -4.927   2.924  0.00  0.00    +0.117 A 
ATOM     18  C   LIG    1       -2.813  -5.415   1.932  0.00  0.00    +0.047 A 
ATOM     19  C   LIG    1       -2.013  -4.534   1.211  0.00  0.00    +0.029 A 
BRANCH  17  20
ATOM     20  O   LIG    1       -4.447  -5.797   3.632  0.00  0.00    -0.507 OA
ATOM     21  H   LIG    1       -4.987  -5.360   4.295  0.00  0.00    +0.292 HD
ENDBRANCH  17  20
ENDBRANCH   7  14
BRANCH   3  22
ATOM     22  C   LIG    1        1.736  -0.304   0.290  0.00  0.00    +0.022 C 
BRANCH  22  23
ATOM     23  C   LIG    1        2.061   0.851   1.260  0.00  0.00    +0.001 C 
BRANCH  23  24
ATOM     24  C   LIG    1        3.567   1.153   1.348  0.00  0.00    -0.003 C 
ATOM     25  C   LIG    1        3.891   2.309   2.303  0.00  0.00    +0.004 C 
ENDBRANCH  23  24
ENDBRANCH  22  23
ENDBRANCH   3  22
TORSDOF 6
