REMARK  Name = DB03088
REMARK                            x       y       z     vdW  Elec       q    Type
REMARK                         _______ _______ _______ _____ _____    ______ ____
ROOT
ATOM      1  CA  GLN A  1       -0.001   0.020   0.004  0.00  0.00    +0.182 C 
ATOM      2  CB  GLN A  1       -0.609  -0.595  -1.255  0.00  0.00    +0.043 C 
ATOM      3  CG  GLN A  1       -1.860   0.233  -1.502  0.00  0.00    +0.098 C 
ATOM      4  CD  GLN A  1       -1.665   1.539  -0.731  0.00  0.00    +0.214 C 
ATOM      5  OE1 GLN A  1       -2.386   2.531  -0.791  0.00  0.00    -0.276 OA
ATOM      6  N   GLN A  1       -0.558   1.370   0.014  0.00  0.00    -0.302 N 
ATOM      7  H   GLN A  1       -0.256   2.057   0.690  0.00  0.00    +0.150 HD
ENDROOT
BRANCH   1   8
ATOM      8  C   GLN A  1        1.542   0.007  -0.029  0.00  0.00    +0.325 C 
ATOM      9  OXT GLN A  1        2.239   1.002  -0.062  0.00  0.00    -0.249 OA
BRANCH   8  10
ATOM     10  O   GLN A  1        2.002  -1.278   0.009  0.00  0.00    -0.479 OA
ATOM     11  H   GLN A  1        2.961  -1.322  -0.001  0.00  0.00    +0.295 HD
ENDBRANCH   8  10
ENDBRANCH   1   8
TORSDOF 2
