REMARK  Name = DB03793
REMARK                            x       y       z     vdW  Elec       q    Type
REMARK                         _______ _______ _______ _____ _____    ______ ____
ROOT
ATOM      1  C   LIG    1       -2.794  -0.015   0.000  0.00  0.00    +0.000 A 
ATOM      2  C   LIG    1       -2.085  -1.212   0.000  0.00  0.00    +0.001 A 
ATOM      3  C   LIG    1       -0.693  -1.191   0.000  0.00  0.00    +0.015 A 
ATOM      4  C   LIG    1       -0.000   0.029   0.000  0.00  0.00    +0.059 A 
ATOM      5  C   LIG    1       -0.731   1.228   0.000  0.00  0.00    +0.015 A 
ATOM      6  C   LIG    1       -2.123   1.205   0.000  0.00  0.00    +0.001 A 
ENDROOT
BRANCH   4   7
ATOM      7  C   LIG    1        1.512   0.035   0.000  0.00  0.00    +0.337 C 
ATOM      8  O   LIG    1        2.174  -1.003   0.000  0.00  0.00    -0.245 OA
BRANCH   7   9
ATOM      9  O   LIG    1        2.088   1.274   0.000  0.00  0.00    -0.477 OA
ATOM     10  H   LIG    1        3.046   1.226   0.000  0.00  0.00    +0.295 HD
ENDBRANCH   7   9
ENDBRANCH   4   7
TORSDOF 2
