REMARK  Name = DB03701
REMARK                            x       y       z     vdW  Elec       q    Type
REMARK                         _______ _______ _______ _____ _____    ______ ____
ROOT
ATOM      1  C   LIG    1        1.831  -0.258  -0.382  0.00  0.00    -0.050 C 
ENDROOT
BRANCH   1   6
ATOM      2  C   LIG    1       -2.049  -0.596  -0.876  0.00  0.00    +0.066 C 
ATOM      3  N   LIG    1       -2.380   0.833  -0.983  0.00  0.00    -0.306 NA
ATOM      4  C   LIG    1       -1.577   1.586  -0.006  0.00  0.00    +0.066 C 
ATOM      5  C   LIG    1       -0.057   1.431  -0.249  0.00  0.00    -0.063 C 
ATOM      6  N   LIG    1        0.312  -0.069  -0.150  0.00  0.00    +0.383 N 
ATOM      7  H   LIG    1        0.085  -0.378   0.785  0.00  0.00    -0.082 HD
ATOM      8  C   LIG    1       -0.549  -0.885  -1.145  0.00  0.00    -0.063 C 
BRANCH   3   9
ATOM      9  C   LIG    1       -2.330   1.321  -2.368  0.00  0.00    +0.084 C 
BRANCH   9  10
ATOM     10  C   LIG    1       -2.945   2.725  -2.570  0.00  0.00    +0.020 C 
BRANCH  10  11
ATOM     11  C   LIG    1       -2.595   3.356  -3.931  0.00  0.00    +0.036 C 
BRANCH  11  12
ATOM     12  C   LIG    1       -1.108   3.649  -4.092  0.00  0.00    -0.047 A 
ATOM     13  C   LIG    1       -0.529   4.714  -3.397  0.00  0.00    +0.003 A 
ATOM     14  C   LIG    1        0.832   4.973  -3.530  0.00  0.00    +0.000 A 
ATOM     15  C   LIG    1        1.610   4.166  -4.358  0.00  0.00    +0.000 A 
ATOM     16  C   LIG    1        1.039   3.104  -5.056  0.00  0.00    +0.000 A 
ATOM     17  C   LIG    1       -0.322   2.845  -4.923  0.00  0.00    +0.003 A 
ENDBRANCH  11  12
ENDBRANCH  10  11
ENDBRANCH   9  10
ENDBRANCH   3   9
ENDBRANCH   1   6
BRANCH   1  18
ATOM     18  C   LIG    1        2.278  -1.719  -0.178  0.00  0.00    +0.142 C 
BRANCH  18  19
ATOM     19  O   LIG    1        1.727  -2.240   1.030  0.00  0.00    -0.369 OA
BRANCH  19  20
ATOM     20  C   LIG    1        2.049  -3.602   1.324  0.00  0.00    +0.178 C 
BRANCH  20  21
ATOM     21  C   LIG    1        3.525  -3.749   1.700  0.00  0.00    -0.014 A 
ATOM     22  C   LIG    1        4.093  -2.912   2.667  0.00  0.00    +0.009 A 
ATOM     23  C   LIG    1        5.439  -3.039   2.996  0.00  0.00    +0.039 A 
ATOM     24  C   LIG    1        6.219  -3.999   2.354  0.00  0.00    +0.123 A 
ATOM     25  F   LIG    1        7.527  -4.123   2.674  0.00  0.00    -0.205 F 
ATOM     26  C   LIG    1        5.663  -4.831   1.384  0.00  0.00    +0.039 A 
ATOM     27  C   LIG    1        4.316  -4.704   1.055  0.00  0.00    +0.009 A 
ENDBRANCH  20  21
BRANCH  20  28
ATOM     28  C   LIG    1        1.116  -4.128   2.414  0.00  0.00    -0.014 A 
ATOM     29  C   LIG    1        0.659  -3.289   3.437  0.00  0.00    +0.009 A 
ATOM     30  C   LIG    1       -0.204  -3.781   4.412  0.00  0.00    +0.039 A 
ATOM     31  C   LIG    1       -0.616  -5.111   4.363  0.00  0.00    +0.123 A 
ATOM     32  F   LIG    1       -1.454  -5.589   5.311  0.00  0.00    -0.205 F 
ATOM     33  C   LIG    1       -0.172  -5.952   3.345  0.00  0.00    +0.039 A 
ATOM     34  C   LIG    1        0.690  -5.460   2.369  0.00  0.00    +0.009 A 
ENDBRANCH  20  28
ENDBRANCH  19  20
ENDBRANCH  18  19
ENDBRANCH   1  18
TORSDOF 10
