REMARK  Name = DB03615
REMARK                            x       y       z     vdW  Elec       q    Type
REMARK                         _______ _______ _______ _____ _____    ______ ____
ROOT
ATOM      1  C   LIG    1       -1.166  -0.756  -1.414  0.00  0.00    +0.182 C 
ATOM      2  C   LIG    1       -2.705  -0.716  -1.170  0.00  0.00    +0.163 C 
ATOM      3  C   LIG    1       -3.117  -1.021   0.294  0.00  0.00    +0.084 C 
ATOM      4  C   LIG    1       -2.309  -0.161   1.280  0.00  0.00    +0.042 C 
ATOM      5  C   LIG    1       -0.794  -0.354   1.103  0.00  0.00    +0.084 C 
ATOM      6  C   LIG    1       -0.357   0.028  -0.336  0.00  0.00    +0.169 C 
ENDROOT
BRANCH   3   7
ATOM      7  N   LIG    1       -4.546  -0.899   0.537  0.00  0.00    -0.325 NA
ATOM      8  H   LIG    1       -4.763  -1.209   1.474  0.00  0.00    +0.119 HD
ATOM      9  H   LIG    1       -5.052  -1.502  -0.096  0.00  0.00    +0.119 HD
ENDBRANCH   3   7
BRANCH   5  10
ATOM     10  N   LIG    1       -0.049   0.340   2.139  0.00  0.00    -0.325 NA
ATOM     11  H   LIG    1       -0.210   1.334   2.061  0.00  0.00    +0.119 HD
ATOM     12  H   LIG    1        0.940   0.198   1.987  0.00  0.00    +0.119 HD
ENDBRANCH   5  10
BRANCH   2  13
ATOM     13  O   LIG    1       -3.398  -1.573  -2.061  0.00  0.00    -0.388 OA
ATOM     14  H   LIG    1       -3.126  -2.478  -1.890  0.00  0.00    +0.210 HD
ENDBRANCH   2  13
BRANCH   1  15
ATOM     15  O   LIG    1       -0.898  -0.181  -2.695  0.00  0.00    -0.340 OA
BRANCH  15  16
ATOM     16  C   LIG    1       -0.726  -1.064  -3.764  0.00  0.00    +0.282 C 
ATOM     17  C   LIG    1       -0.702  -0.250  -5.049  0.00  0.00    +0.201 C 
ATOM     18  C   LIG    1        0.062  -1.215  -5.954  0.00  0.00    +0.179 C 
ATOM     19  C   LIG    1        1.096  -1.849  -5.011  0.00  0.00    +0.178 C 
ATOM     20  O   LIG    1        0.524  -1.687  -3.714  0.00  0.00    -0.341 OA
BRANCH  17  21
ATOM     21  O   LIG    1       -2.017   0.097  -5.449  0.00  0.00    -0.384 OA
ATOM     22  H   LIG    1       -1.964   0.677  -6.211  0.00  0.00    +0.210 HD
ENDBRANCH  17  21
BRANCH  18  23
ATOM     23  O   LIG    1       -0.755  -2.196  -6.574  0.00  0.00    -0.386 OA
ATOM     24  H   LIG    1       -0.186  -2.856  -6.979  0.00  0.00    +0.210 HD
ENDBRANCH  18  23
BRANCH  19  25
ATOM     25  C   LIG    1        2.474  -1.158  -4.992  0.00  0.00    +0.190 C 
BRANCH  25  26
ATOM     26  O   LIG    1        3.193  -1.445  -6.174  0.00  0.00    -0.392 OA
ATOM     27  H   LIG    1        4.050  -1.014  -6.123  0.00  0.00    +0.210 HD
ENDBRANCH  25  26
ENDBRANCH  19  25
ENDBRANCH  15  16
ENDBRANCH   1  15
BRANCH   6  28
ATOM     28  O   LIG    1        1.053  -0.225  -0.409  0.00  0.00    -0.342 OA
BRANCH  28  29
ATOM     29  C   LIG    1        1.820   0.458  -1.367  0.00  0.00    +0.270 C 
ATOM     30  O   LIG    1        1.743   1.857  -1.246  0.00  0.00    -0.343 OA
ATOM     31  C   LIG    1        2.244   2.388  -0.014  0.00  0.00    +0.166 C 
ATOM     32  C   LIG    1        3.744   2.050   0.129  0.00  0.00    +0.175 C 
ATOM     33  C   LIG    1        3.976   0.531  -0.015  0.00  0.00    +0.167 C 
ATOM     34  C   LIG    1        3.278  -0.035  -1.276  0.00  0.00    +0.139 C 
BRANCH  34  35
ATOM     35  N   LIG    1        3.384  -1.482  -1.399  0.00  0.00    -0.321 NA
ATOM     36  H   LIG    1        4.361  -1.741  -1.413  0.00  0.00    +0.119 HD
ATOM     37  H   LIG    1        3.005  -1.773  -2.289  0.00  0.00    +0.119 HD
ENDBRANCH  34  35
BRANCH  32  38
ATOM     38  O   LIG    1        4.273   2.535   1.352  0.00  0.00    -0.387 OA
ATOM     39  H   LIG    1        3.864   2.054   2.075  0.00  0.00    +0.210 HD
ENDBRANCH  32  38
BRANCH  33  40
ATOM     40  O   LIG    1        5.366   0.250  -0.045  0.00  0.00    -0.387 OA
ATOM     41  H   LIG    1        5.808   0.838   0.573  0.00  0.00    +0.210 HD
ENDBRANCH  33  40
BRANCH  31  42
ATOM     42  C   LIG    1        1.967   3.908  -0.001  0.00  0.00    +0.112 C 
BRANCH  42  43
ATOM     43  N   LIG    1        0.541   4.180   0.048  0.00  0.00    -0.328 NA
ATOM     44  H   LIG    1        0.386   5.178   0.056  0.00  0.00    +0.118 HD
ATOM     45  H   LIG    1        0.154   3.823   0.909  0.00  0.00    +0.118 HD
ENDBRANCH  42  43
ENDBRANCH  31  42
ENDBRANCH  28  29
ENDBRANCH   6  28
TORSDOF 16
