REMARK  Name = DB03568
REMARK                            x       y       z     vdW  Elec       q    Type
REMARK                         _______ _______ _______ _____ _____    ______ ____
ROOT
ATOM      1  C   LIG    1        2.052  -1.488   0.013  0.00  0.00    +0.305 C 
ATOM      2  O   LIG    1        2.246  -2.044  -1.091  0.00  0.00    -0.251 OA
ENDROOT
BRANCH   1   3
ATOM      3  O   LIG    1        2.238  -2.026   1.128  0.00  0.00    -0.481 OA
ATOM      4  H   LIG    1        2.547  -2.909   1.176  0.00  0.00    +0.295 HD
ENDBRANCH   1   3
BRANCH   1   5
ATOM      5  C   LIG    1        1.543  -0.034  -0.001  0.00  0.00    +0.120 C 
BRANCH   5   7
ATOM      6  C   LIG    1       -0.547   1.448  -0.001  0.00  0.00    +0.004 C 
ATOM      7  C   LIG    1       -0.001   0.014  -0.001  0.00  0.00    +0.008 C 
ENDBRANCH   5   7
ENDBRANCH   1   5
TORSDOF 3
