REMARK  Name = DB03754
REMARK                            x       y       z     vdW  Elec       q    Type
REMARK                         _______ _______ _______ _____ _____    ______ ____
ROOT
ATOM      1  C   LIG    1        1.503   0.008   0.018  0.00  0.00    +0.086 C 
ENDROOT
BRANCH   1   2
ATOM      2  N   LIG    1        1.931  -1.387  -0.019  0.00  0.00    -0.319 NA
ATOM      3  H   LIG    1        2.940  -1.426  -0.037  0.00  0.00    +0.119 HD
ATOM      4  H   LIG    1        1.612  -1.817  -0.875  0.00  0.00    +0.119 HD
ENDBRANCH   1   2
BRANCH   1   5
ATOM      5  C   LIG    1       -0.053  -0.004  -0.022  0.00  0.00    +0.182 C 
BRANCH   5   6
ATOM      6  O   LIG    1       -0.607   1.298   0.039  0.00  0.00    -0.393 OA
ATOM      7  H   LIG    1       -1.564   1.221   0.033  0.00  0.00    +0.209 HD
ENDBRANCH   5   6
ENDBRANCH   1   5
BRANCH   1   8
ATOM      8  C   LIG    1        2.071   0.661   1.315  0.00  0.00    +0.182 C 
BRANCH   8   9
ATOM      9  O   LIG    1        1.459   0.195   2.505  0.00  0.00    -0.393 OA
ATOM     10  H   LIG    1        1.856   0.649   3.252  0.00  0.00    +0.209 HD
ENDBRANCH   8   9
ENDBRANCH   1   8
BRANCH   1  11
ATOM     11  C   LIG    1        2.066   0.696  -1.263  0.00  0.00    +0.182 C 
BRANCH  11  12
ATOM     12  O   LIG    1        3.479   0.809  -1.277  0.00  0.00    -0.393 OA
ATOM     13  H   LIG    1        3.740   1.261  -2.083  0.00  0.00    +0.209 HD
ENDBRANCH  11  12
ENDBRANCH   1  11
TORSDOF 7
