REMARK  Name = DB03323
REMARK                            x       y       z     vdW  Elec       q    Type
REMARK                         _______ _______ _______ _____ _____    ______ ____
ROOT
ATOM      1  O   LIG    1        1.511  -0.492  -0.420  0.00  0.00    -0.340 OA
ENDROOT
BRANCH   1   3
ATOM      2  O   LIG    1       -0.741   0.097  -0.127  0.00  0.00    -0.341 OA
ATOM      3  C   LIG    1        0.178  -0.749  -0.776  0.00  0.00    +0.282 C 
ATOM      4  C   LIG    1        0.046  -0.623  -2.303  0.00  0.00    +0.201 C 
ATOM      5  C   LIG    1        0.219   0.848  -2.748  0.00  0.00    +0.179 C 
ATOM      6  C   LIG    1       -0.732   1.769  -1.955  0.00  0.00    +0.177 C 
ATOM      7  C   LIG    1       -0.614   1.493  -0.434  0.00  0.00    +0.178 C 
BRANCH   4   8
ATOM      8  O   LIG    1        0.926  -1.509  -2.974  0.00  0.00    -0.384 OA
ATOM      9  H   LIG    1        0.670  -2.410  -2.766  0.00  0.00    +0.210 HD
ENDBRANCH   4   8
BRANCH   5  10
ATOM     10  O   LIG    1        0.032   0.995  -4.146  0.00  0.00    -0.386 OA
ATOM     11  H   LIG    1       -0.859   0.713  -4.367  0.00  0.00    +0.210 HD
ENDBRANCH   5  10
BRANCH   6  12
ATOM     12  O   LIG    1       -0.480   3.133  -2.248  0.00  0.00    -0.386 OA
ATOM     13  H   LIG    1       -0.641   3.277  -3.183  0.00  0.00    +0.210 HD
ENDBRANCH   6  12
BRANCH   7  14
ATOM     14  C   LIG    1       -1.626   2.274   0.434  0.00  0.00    +0.190 C 
BRANCH  14  15
ATOM     15  O   LIG    1       -2.965   1.971   0.093  0.00  0.00    -0.392 OA
ATOM     16  H   LIG    1       -3.548   2.486   0.657  0.00  0.00    +0.210 HD
ENDBRANCH  14  15
ENDBRANCH   7  14
ENDBRANCH   1   3
BRANCH   1  17
ATOM     17  C   LIG    1        1.892  -0.565   0.960  0.00  0.00    +0.183 C 
ATOM     18  C   LIG    1        2.072  -2.016   1.481  0.00  0.00    +0.179 C 
ATOM     19  C   LIG    1        2.822  -2.073   2.838  0.00  0.00    +0.201 C 
ATOM     20  C   LIG    1        4.072  -1.170   2.821  0.00  0.00    +0.279 C 
ATOM     21  O   LIG    1        3.704   0.126   2.436  0.00  0.00    -0.341 OA
ATOM     22  C   LIG    1        3.229   0.208   1.088  0.00  0.00    +0.178 C 
BRANCH  18  23
ATOM     23  O   LIG    1        0.834  -2.694   1.613  0.00  0.00    -0.386 OA
ATOM     24  H   LIG    1        0.296  -2.226   2.256  0.00  0.00    +0.210 HD
ENDBRANCH  18  23
BRANCH  19  25
ATOM     25  O   LIG    1        3.144  -3.413   3.180  0.00  0.00    -0.384 OA
ATOM     26  H   LIG    1        2.408  -3.975   2.924  0.00  0.00    +0.210 HD
ENDBRANCH  19  25
BRANCH  20  27
ATOM     27  O   LIG    1        4.586  -1.137   4.094  0.00  0.00    -0.365 OA
ATOM     28  H   LIG    1        5.434  -0.688   4.058  0.00  0.00    +0.213 HD
ENDBRANCH  20  27
BRANCH  22  29
ATOM     29  C   LIG    1        3.100   1.698   0.710  0.00  0.00    +0.190 C 
BRANCH  29  30
ATOM     30  O   LIG    1        4.362   2.336   0.731  0.00  0.00    -0.392 OA
ATOM     31  H   LIG    1        4.247   3.252   0.468  0.00  0.00    +0.210 HD
ENDBRANCH  29  30
ENDBRANCH  22  29
ENDBRANCH   1  17
TORSDOF 12
