REMARK  Name = DB03756
REMARK                            x       y       z     vdW  Elec       q    Type
REMARK                         _______ _______ _______ _____ _____    ______ ____
ROOT
ATOM      1  C   LIG    1        0.619  -0.742  -0.731  0.00  0.00    -0.027 C 
ATOM      2  C   LIG    1        1.845  -1.164  -1.099  0.00  0.00    -0.027 C 
ENDROOT
BRANCH   1   3
ATOM      3  C   LIG    1       -0.432  -1.502   0.061  0.00  0.00    +0.053 C 
BRANCH   3   5
ATOM      4  C   LIG    1       -1.757  -0.121   1.774  0.00  0.00    -0.027 C 
ATOM      5  C   LIG    1       -0.707  -0.887   1.422  0.00  0.00    -0.027 C 
BRANCH   4   6
ATOM      6  C   LIG    1       -2.907   0.330   0.889  0.00  0.00    +0.053 C 
BRANCH   6   8
ATOM      7  C   LIG    1       -5.381   0.448   1.583  0.00  0.00    -0.027 C 
ATOM      8  C   LIG    1       -4.251  -0.236   1.314  0.00  0.00    -0.027 C 
BRANCH   7   9
ATOM      9  C   LIG    1       -5.603   1.948   1.492  0.00  0.00    +0.053 C 
BRANCH   9  11
ATOM     10  C   LIG    1       -4.745   3.507   3.359  0.00  0.00    -0.031 C 
ATOM     11  C   LIG    1       -5.633   2.631   2.849  0.00  0.00    -0.027 C 
BRANCH  10  13
ATOM     12  C   LIG    1       -2.200   3.613   3.429  0.00  0.00    +0.008 C 
ATOM     13  C   LIG    1       -3.482   4.048   2.708  0.00  0.00    +0.023 C 
ENDBRANCH  10  13
ENDBRANCH   9  11
ENDBRANCH   7   9
ENDBRANCH   6   8
ENDBRANCH   4   6
ENDBRANCH   3   5
ENDBRANCH   1   3
BRANCH   2  14
ATOM     14  C   LIG    1        2.496  -2.506  -0.812  0.00  0.00    +0.053 C 
BRANCH  14  15
ATOM     15  C   LIG    1        2.682  -3.356  -2.057  0.00  0.00    -0.027 C 
ATOM     16  C   LIG    1        2.010  -4.470  -2.410  0.00  0.00    -0.027 C 
BRANCH  16  17
ATOM     17  C   LIG    1        0.881  -5.158  -1.661  0.00  0.00    +0.053 C 
BRANCH  17  18
ATOM     18  C   LIG    1        1.266  -6.531  -1.136  0.00  0.00    -0.027 C 
ATOM     19  C   LIG    1        1.388  -6.928   0.147  0.00  0.00    -0.030 C 
BRANCH  19  20
ATOM     20  C   LIG    1        1.171  -6.107   1.412  0.00  0.00    +0.038 C 
BRANCH  20  21
ATOM     21  C   LIG    1        2.426  -5.951   2.299  0.00  0.00    +0.124 C 
BRANCH  21  22
ATOM     22  C   LIG    1        3.508  -5.047   1.696  0.00  0.00    +0.305 C 
ATOM     23  O   LIG    1        3.680  -3.882   2.047  0.00  0.00    -0.251 OA
BRANCH  22  24
ATOM     24  O   LIG    1        4.242  -5.691   0.743  0.00  0.00    -0.481 OA
ATOM     25  H   LIG    1        4.917  -5.127   0.360  0.00  0.00    +0.295 HD
ENDBRANCH  22  24
ENDBRANCH  21  22
ENDBRANCH  20  21
ENDBRANCH  19  20
ENDBRANCH  17  18
ENDBRANCH  16  17
ENDBRANCH  14  15
ENDBRANCH   2  14
TORSDOF 15
