REMARK  Name = DB03619
REMARK                            x       y       z     vdW  Elec       q    Type
REMARK                         _______ _______ _______ _____ _____    ______ ____
ROOT
ATOM      1  C   LIG    1       -5.953  -0.639   4.973  0.00  0.00    +0.115 C 
ATOM      2  C   LIG    1       -5.881  -1.413   3.640  0.00  0.00    +0.035 C 
ATOM      3  C   LIG    1       -5.006  -2.702   3.696  0.00  0.00    -0.002 C 
ATOM      4  C   LIG    1       -3.575  -2.432   4.288  0.00  0.00    -0.026 C 
ATOM      5  C   LIG    1       -2.891  -3.798   4.603  0.00  0.00    +0.012 C 
ATOM      6  C   LIG    1       -2.740  -1.584   3.247  0.00  0.00    +0.001 C 
ATOM      7  C   LIG    1       -1.324  -1.168   3.753  0.00  0.00    +0.036 C 
ATOM      8  C   LIG    1       -0.488  -0.355   2.727  0.00  0.00    +0.121 C 
ATOM      9  C   LIG    1       -0.386  -1.098   1.346  0.00  0.00    +0.000 C 
ATOM     10  C   LIG    1        0.478  -2.391   1.516  0.00  0.00    +0.014 C 
ATOM     11  C   LIG    1        0.130  -0.277   0.109  0.00  0.00    +0.001 C 
ATOM     12  C   LIG    1       -0.509  -1.013  -1.106  0.00  0.00    +0.005 C 
ATOM     13  C   LIG    1       -1.697  -1.839  -0.586  0.00  0.00    +0.005 C 
ATOM     14  C   LIG    1       -1.834  -1.410   0.875  0.00  0.00    +0.001 C 
ATOM     15  C   LIG    1       -2.644  -2.300   1.857  0.00  0.00    -0.004 C 
ATOM     16  C   LIG    1       -4.060  -2.612   1.307  0.00  0.00    +0.004 C 
ATOM     17  C   LIG    1       -3.766  -1.724   5.666  0.00  0.00    +0.010 C 
ATOM     18  C   LIG    1       -4.925  -3.401   2.312  0.00  0.00    +0.004 C 
ATOM     19  C   LIG    1       -4.559  -0.407   5.590  0.00  0.00    +0.032 C 
ENDROOT
BRANCH   1  20
ATOM     20  O   LIG    1       -6.636   0.586   4.805  0.00  0.00    -0.392 OA
ATOM     21  H   LIG    1       -7.465   0.543   5.288  0.00  0.00    +0.210 HD
ENDBRANCH   1  20
BRANCH   8  22
ATOM     22  O   LIG    1       -1.026   0.949   2.581  0.00  0.00    -0.391 OA
ATOM     23  H   LIG    1       -1.059   1.363   3.446  0.00  0.00    +0.210 HD
ENDBRANCH   8  22
BRANCH  11  24
ATOM     24  C   LIG    1        1.671  -0.035  -0.058  0.00  0.00    -0.010 C 
ATOM     25  C   LIG    1        2.324   0.611   1.185  0.00  0.00    +0.008 C 
BRANCH  24  26
ATOM     26  C   LIG    1        1.975   0.810  -1.330  0.00  0.00    +0.014 C 
BRANCH  26  27
ATOM     27  C   LIG    1        3.465   0.850  -1.746  0.00  0.00    +0.121 C 
BRANCH  27  28
ATOM     28  C   LIG    1        3.671   1.472  -3.131  0.00  0.00    +0.305 C 
ATOM     29  O   LIG    1        3.966   0.816  -4.128  0.00  0.00    -0.251 OA
BRANCH  28  30
ATOM     30  O   LIG    1        3.488   2.824  -3.110  0.00  0.00    -0.481 OA
ATOM     31  H   LIG    1        3.614   3.221  -3.974  0.00  0.00    +0.295 HD
ENDBRANCH  28  30
ENDBRANCH  27  28
ENDBRANCH  26  27
ENDBRANCH  24  26
ENDBRANCH  11  24
TORSDOF 7
