REMARK  Name = DB03206
REMARK                            x       y       z     vdW  Elec       q    Type
REMARK                         _______ _______ _______ _____ _____    ______ ____
ROOT
ATOM      1  C   LIG    1       -0.666  -0.765  -1.111  0.00  0.00    +0.134 C 
ATOM      2  C   LIG    1       -2.207  -0.578  -1.216  0.00  0.00    +0.168 C 
ATOM      3  C   LIG    1       -2.567   0.928  -1.237  0.00  0.00    +0.128 C 
ATOM      4  C   LIG    1       -2.014   1.639   0.012  0.00  0.00    -0.048 C 
ATOM      5  N   LIG    1       -0.481   1.520   0.010  0.00  0.00    +0.386 N 
ATOM      6  H1  LIG    1       -0.099   1.983  -0.802  0.00  0.00    -0.085 HD
ATOM      7  H2  LIG    1       -0.110   1.998   0.820  0.00  0.00    -0.085 HD
ATOM      8  CA  LIG    1       -0.002   0.047   0.042  0.00  0.00    -0.014 C 
ENDROOT
BRANCH   2   9
ATOM      9  O   LIG    1       -2.728  -1.241  -2.357  0.00  0.00    -0.387 OA
ATOM     10  H   LIG    1       -2.460  -2.162  -2.336  0.00  0.00    +0.210 HD
ENDBRANCH   2   9
BRANCH   3  11
ATOM     11  O   LIG    1       -3.961   1.150  -1.330  0.00  0.00    -0.391 OA
ATOM     12  H   LIG    1       -4.404   0.637  -0.650  0.00  0.00    +0.210 HD
ENDBRANCH   3  11
BRANCH   1  13
ATOM     13  O   LIG    1       -0.325  -2.135  -0.995  0.00  0.00    -0.391 OA
ATOM     14  H   LIG    1       -1.131  -2.657  -0.983  0.00  0.00    +0.210 HD
ENDBRANCH   1  13
BRANCH   8  15
ATOM     15  C   LIG    1        1.547   0.064  -0.012  0.00  0.00    +0.143 C 
BRANCH  15  16
ATOM     16  O   LIG    1        2.111   0.684   1.129  0.00  0.00    -0.397 OA
ATOM     17  H   LIG    1        3.068   0.623   1.070  0.00  0.00    +0.209 HD
ENDBRANCH  15  16
ENDBRANCH   8  15
TORSDOF 5
