REMARK  Name = DB03419
REMARK                            x       y       z     vdW  Elec       q    Type
REMARK                         _______ _______ _______ _____ _____    ______ ____
ROOT
ATOM      1  O   LIG    1       -0.547  -2.958  -1.349  0.00  0.00    -0.247 OA
ATOM      2  C   LIG    1       -1.275  -2.158  -1.930  0.00  0.00    +0.327 A 
ATOM      3  N   LIG    1       -1.728  -2.348  -3.214  0.00  0.00    -0.275 N 
ATOM      4  H   LIG    1       -1.421  -3.202  -3.657  0.00  0.00    +0.173 HD
ATOM      5  C   LIG    1       -2.535  -1.551  -3.980  0.00  0.00    +0.254 A 
ATOM      6  O   LIG    1       -2.870  -1.840  -5.126  0.00  0.00    -0.268 OA
ATOM      7  C   LIG    1       -2.946  -0.338  -3.290  0.00  0.00    +0.088 A 
ATOM      8  C   LIG    1       -2.518  -0.122  -2.030  0.00  0.00    +0.092 A 
ATOM      9  N   LIG    1       -1.709  -0.994  -1.359  0.00  0.00    -0.314 N 
ATOM     10  H   LIG    1       -1.403  -0.807  -0.414  0.00  0.00    +0.170 HD
ENDROOT
TORSDOF 0
