REMARK  Name = DB03017
REMARK                            x       y       z     vdW  Elec       q    Type
REMARK                         _______ _______ _______ _____ _____    ______ ____
ROOT
ATOM      1  C   LIG    1       -0.558   1.450   0.000  0.00  0.00    +0.000 C 
ENDROOT
BRANCH   1   2
ATOM      2  C   LIG    1       -2.095   1.526   0.000  0.00  0.00    +0.001 C 
BRANCH   2   3
ATOM      3  C   LIG    1       -2.619   2.973   0.000  0.00  0.00    +0.011 C 
BRANCH   3   4
ATOM      4  C   LIG    1       -4.164   3.049   0.000  0.00  0.00    +0.120 C 
BRANCH   4   5
ATOM      5  C   LIG    1       -4.776   4.462   0.000  0.00  0.00    +0.305 C 
ATOM      6  O   LIG    1       -5.991   4.644   0.000  0.00  0.00    -0.251 OA
BRANCH   5   7
ATOM      7  O   LIG    1       -3.851   5.467   0.000  0.00  0.00    -0.481 OA
ATOM      8  H   LIG    1       -4.258   6.336   0.000  0.00  0.00    +0.295 HD
ENDBRANCH   5   7
ENDBRANCH   4   5
ENDBRANCH   3   4
ENDBRANCH   2   3
ENDBRANCH   1   2
BRANCH   1   9
ATOM      9  C   LIG    1       -0.023   0.007   0.000  0.00  0.00    +0.000 C 
BRANCH   9  10
ATOM     10  C   LIG    1        1.515  -0.054   0.000  0.00  0.00    +0.000 C 
BRANCH  10  11
ATOM     11  C   LIG    1        2.066  -1.491   0.000  0.00  0.00    -0.000 C 
BRANCH  11  12
ATOM     12  C   LIG    1        3.605  -1.537   0.000  0.00  0.00    -0.000 C 
BRANCH  12  13
ATOM     13  C   LIG    1        4.168  -2.970   0.000  0.00  0.00    -0.000 C 
BRANCH  13  14
ATOM     14  C   LIG    1        5.707  -3.006   0.000  0.00  0.00    -0.003 C 
ATOM     15  C   LIG    1        6.276  -4.431   0.000  0.00  0.00    +0.004 C 
ENDBRANCH  13  14
ENDBRANCH  12  13
ENDBRANCH  11  12
ENDBRANCH  10  11
ENDBRANCH   9  10
ENDBRANCH   1   9
TORSDOF 11
