REMARK  Name = DB03310
REMARK                            x       y       z     vdW  Elec       q    Type
REMARK                         _______ _______ _______ _____ _____    ______ ____
ROOT
ATOM      1  S   UNK A  1        0.762  -1.383   0.188  0.00  0.00    -0.091 S 
ENDROOT
BRANCH   1   2
ATOM      2  C   UNK A  1        1.682  -1.575  -1.363  0.00  0.00    +0.112 C 
BRANCH   2   3
ATOM      3  C   UNK A  1        3.211  -1.648  -1.204  0.00  0.00    +0.169 C 
BRANCH   3   5
ATOM      4  C   UNK A  1        4.915  -0.181  -0.117  0.00  0.00    +0.214 C 
ATOM      5  N   UNK A  1        3.682  -0.396  -0.606  0.00  0.00    -0.303 N 
ATOM      6  H   UNK A  1        3.007   0.354  -0.581  0.00  0.00    +0.149 HD
ATOM      7  O   UNK A  1        5.796  -1.041  -0.103  0.00  0.00    -0.276 OA
BRANCH   4   8
ATOM      8  C   UNK A  1        5.179   1.216   0.460  0.00  0.00    +0.098 C 
BRANCH   8   9
ATOM      9  C   UNK A  1        6.621   1.745   0.250  0.00  0.00    +0.039 C 
BRANCH   9  10
ATOM     10  C   UNK A  1        6.726   3.288   0.168  0.00  0.00    +0.161 C 
BRANCH  10  11
ATOM     11  N   UNK A  1        8.099   3.764  -0.068  0.00  0.00    -0.318 NA
ATOM     12  H   UNK A  1        8.325   3.701  -1.050  0.00  0.00    +0.119 HD
ATOM     13  H   UNK A  1        8.761   3.162   0.401  0.00  0.00    +0.119 HD
ENDBRANCH  10  11
BRANCH  10  14
ATOM     14  C   UNK A  1        6.188   4.025   1.411  0.00  0.00    +0.322 C 
ATOM     15  O   UNK A  1        5.248   4.815   1.344  0.00  0.00    -0.249 OA
BRANCH  14  16
ATOM     16  O   UNK A  1        6.846   3.675   2.556  0.00  0.00    -0.480 OA
ATOM     17  H   UNK A  1        6.500   4.130   3.327  0.00  0.00    +0.295 HD
ENDBRANCH  14  16
ENDBRANCH  10  14
ENDBRANCH   9  10
ENDBRANCH   8   9
ENDBRANCH   4   8
ENDBRANCH   3   5
BRANCH   3  18
ATOM     18  C   UNK A  1        3.869  -1.927  -2.566  0.00  0.00    +0.235 C 
ATOM     19  N   GLY A  2        4.042  -3.223  -2.876  0.00  0.00    -0.303 N 
ATOM     20  H   GLY A  2        3.768  -3.926  -2.205  0.00  0.00    +0.149 HD
ATOM     21  O   UNK A  1        4.168  -0.991  -3.309  0.00  0.00    -0.274 OA
BRANCH  19  22
ATOM     22  CA  GLY A  2        4.615  -3.713  -4.138  0.00  0.00    +0.224 C 
BRANCH  22  23
ATOM     23  C   GLY A  2        3.590  -3.772  -5.298  0.00  0.00    +0.322 C 
ATOM     24  O   GLY A  2        3.931  -4.002  -6.439  0.00  0.00    -0.249 OA
BRANCH  23  25
ATOM     25  OXT GLY A  2        2.295  -3.569  -4.904  0.00  0.00    -0.480 OA
ATOM     26  HXT GLY A  2        1.680  -3.615  -5.639  0.00  0.00    +0.295 HD
ENDBRANCH  23  25
ENDBRANCH  22  23
ENDBRANCH  19  22
ENDBRANCH   3  18
ENDBRANCH   2   3
ENDBRANCH   1   2
BRANCH   1  27
ATOM     27  S   UNK A  1       -1.175  -1.195  -0.423  0.00  0.00    -0.091 S 
BRANCH  27  28
ATOM     28  C   UNK A  1       -1.346   0.534  -0.972  0.00  0.00    +0.112 C 
BRANCH  28  29
ATOM     29  C   UNK A  1       -1.274   1.663   0.083  0.00  0.00    +0.169 C 
BRANCH  29  30
ATOM     30  C   UNK A  1       -2.237   1.421   1.260  0.00  0.00    +0.235 C 
ATOM     31  N   GLY A  2       -3.506   1.818   1.063  0.00  0.00    -0.303 N 
ATOM     32  H   GLY A  2       -3.753   2.239   0.179  0.00  0.00    +0.149 HD
ATOM     33  O   UNK A  1       -1.831   0.886   2.293  0.00  0.00    -0.274 OA
BRANCH  31  34
ATOM     34  CA  GLY A  2       -4.582   1.703   2.058  0.00  0.00    +0.224 C 
BRANCH  34  35
ATOM     35  C   GLY A  2       -4.601   2.866   3.080  0.00  0.00    +0.322 C 
ATOM     36  O   GLY A  2       -5.338   2.855   4.043  0.00  0.00    -0.249 OA
BRANCH  35  37
ATOM     37  OXT GLY A  2       -3.742   3.887   2.775  0.00  0.00    -0.480 OA
ATOM     38  HXT GLY A  2       -3.769   4.595   3.422  0.00  0.00    +0.295 HD
ENDBRANCH  35  37
ENDBRANCH  34  35
ENDBRANCH  31  34
ENDBRANCH  29  30
BRANCH  29  39
ATOM     39  N   UNK A  1        0.113   1.822   0.525  0.00  0.00    -0.303 N 
ATOM     40  H   UNK A  1        0.710   1.022   0.377  0.00  0.00    +0.149 HD
ATOM     41  C   UNK A  1        0.604   2.895   1.169  0.00  0.00    +0.214 C 
ATOM     42  O   UNK A  1       -0.060   3.907   1.397  0.00  0.00    -0.276 OA
BRANCH  41  43
ATOM     43  C   UNK A  1        2.072   2.815   1.609  0.00  0.00    +0.098 C 
BRANCH  43  44
ATOM     44  C   UNK A  1        2.340   3.384   3.027  0.00  0.00    +0.039 C 
BRANCH  44  45
ATOM     45  C   UNK A  1        3.453   2.641   3.801  0.00  0.00    +0.161 C 
BRANCH  45  46
ATOM     46  N   UNK A  1        3.101   1.245   4.123  0.00  0.00    -0.318 NA
ATOM     47  H   UNK A  1        2.162   1.173   4.489  0.00  0.00    +0.119 HD
ATOM     48  H   UNK A  1        3.729   0.851   4.809  0.00  0.00    +0.119 HD
ENDBRANCH  45  46
BRANCH  45  49
ATOM     49  C   UNK A  1        3.823   3.374   5.109  0.00  0.00    +0.322 C 
ATOM     50  O   UNK A  1        3.401   3.054   6.222  0.00  0.00    -0.249 OA
BRANCH  49  51
ATOM     51  O   UNK A  1        4.654   4.427   4.858  0.00  0.00    -0.480 OA
ATOM     52  H   UNK A  1        4.880   4.909   5.656  0.00  0.00    +0.295 HD
ENDBRANCH  49  51
ENDBRANCH  45  49
ENDBRANCH  44  45
ENDBRANCH  43  44
ENDBRANCH  41  43
ENDBRANCH  29  39
ENDBRANCH  28  29
ENDBRANCH  27  28
ENDBRANCH   1  27
TORSDOF 27
