REMARK  Name = DB03856
REMARK                            x       y       z     vdW  Elec       q    Type
REMARK                         _______ _______ _______ _____ _____    ______ ____
ROOT
ATOM      1  C   LIG    1        1.617   0.006  -0.024  0.00  0.00    +0.175 C 
ENDROOT
BRANCH   1   2
ATOM      2  C   LIG    1        2.105  -1.476  -0.005  0.00  0.00    +0.372 C 
ATOM      3  F   LIG    1        1.604  -2.237  -0.981  0.00  0.00    -0.207 F 
ATOM      4  F   LIG    1        3.432  -1.625   0.011  0.00  0.00    -0.207 F 
ENDBRANCH   1   2
BRANCH   1   5
ATOM      5  N   LIG    1        2.085   0.615   1.227  0.00  0.00    -0.311 NA
ATOM      6  H   LIG    1        3.095   0.576   1.251  0.00  0.00    +0.119 HD
ATOM      7  H   LIG    1        1.759   0.072   2.013  0.00  0.00    +0.119 HD
ENDBRANCH   1   5
BRANCH   1   8
ATOM      8  C   LIG    1        2.205   0.728  -1.299  0.00  0.00    +0.331 C 
ATOM      9  O   LIG    1        1.737   0.406  -2.417  0.00  0.00    -0.249 OA
BRANCH   8  10
ATOM     10  O   LIG    1        3.117   1.583  -1.178  0.00  0.00    -0.479 OA
ATOM     11  H   LIG    1        3.463   2.010  -1.938  0.00  0.00    +0.295 HD
ENDBRANCH   8  10
ENDBRANCH   1   8
BRANCH   1  12
ATOM     12  C   LIG    1        0.052   0.068  -0.004  0.00  0.00    +0.037 C 
BRANCH  12  13
ATOM     13  C   LIG    1       -0.582   1.480   0.004  0.00  0.00    -0.017 C 
BRANCH  13  14
ATOM     14  C   LIG    1       -2.117   1.431   0.009  0.00  0.00    -0.086 C 
BRANCH  14  15
ATOM     15  N   LIG    1       -2.682   2.854   0.002  0.00  0.00    +0.378 N 
ATOM     16  H   LIG    1       -2.365   3.357   0.818  0.00  0.00    -0.090 HD
ATOM     17  H   LIG    1       -2.370   3.345  -0.824  0.00  0.00    -0.090 HD
ATOM     18  H   LIG    1       -3.692   2.828   0.005  0.00  0.00    -0.090 HD
ENDBRANCH  14  15
ENDBRANCH  13  14
ENDBRANCH  12  13
ENDBRANCH   1  12
TORSDOF 8
