REMARK  Name = DB04967
REMARK                            x       y       z     vdW  Elec       q    Type
REMARK                         _______ _______ _______ _____ _____    ______ ____
ROOT
ATOM      1  S   LIG    1        8.046  -4.073   0.402  0.00  0.00    -0.088 S 
ATOM      2  C   LIG    1        8.521  -2.478  -0.179  0.00  0.00    +0.024 A 
ATOM      3  C   LIG    1        9.762  -2.335  -0.805  0.00  0.00    +0.016 A 
ATOM      4  C   LIG    1       10.207  -1.081  -1.214  0.00  0.00    +0.001 A 
ATOM      5  C   LIG    1        9.420   0.043  -0.979  0.00  0.00    +0.001 A 
ATOM      6  C   LIG    1        8.191  -0.091  -0.335  0.00  0.00    +0.013 A 
ATOM      7  C   LIG    1        7.723  -1.351   0.078  0.00  0.00    +0.036 A 
ATOM      8  C   LIG    1        6.402  -1.462   0.774  0.00  0.00    +0.197 A 
ATOM      9  C   LIG    1        5.594  -2.735   0.574  0.00  0.00    +0.057 A 
ATOM     10  C   LIG    1        4.168  -2.727   0.574  0.00  0.00    +0.039 A 
ATOM     11  C   LIG    1        3.472  -3.932   0.408  0.00  0.00    +0.024 A 
ATOM     12  C   LIG    1        4.143  -5.131   0.241  0.00  0.00    +0.006 A 
ATOM     13  C   LIG    1        5.531  -5.164   0.224  0.00  0.00    -0.036 A 
ATOM     14  C   LIG    1        6.212  -6.516   0.033  0.00  0.00    +0.045 C 
ATOM     15  O   LIG    1        5.919  -0.462   1.311  0.00  0.00    -0.287 OA
ATOM     16  C   LIG    1        6.264  -3.971   0.370  0.00  0.00    +0.028 A 
ENDROOT
BRANCH  10  17
ATOM     17  N   LIG    1        3.439  -1.524   0.714  0.00  0.00    -0.345 N 
ATOM     18  H   LIG    1        3.968  -0.726   1.038  0.00  0.00    +0.146 HD
BRANCH  17  19
ATOM     19  C   LIG    1        1.994  -1.473   0.907  0.00  0.00    +0.083 C 
BRANCH  19  20
ATOM     20  C   LIG    1        1.454  -0.032   1.024  0.00  0.00    -0.060 C 
BRANCH  20  21
ATOM     21  N   LIG    1        0.139   0.144   0.222  0.00  0.00    +0.380 N 
ATOM     22  H   LIG    1        0.301  -0.260  -0.691  0.00  0.00    -0.082 HD
BRANCH  21  23
ATOM     23  C   LIG    1       -0.215   1.636  -0.004  0.00  0.00    -0.082 C 
ATOM     24  C   LIG    1        0.708   2.276  -1.055  0.00  0.00    -0.017 C 
ENDBRANCH  21  23
BRANCH  21  25
ATOM     25  C   LIG    1       -1.032  -0.649   0.859  0.00  0.00    -0.082 C 
ATOM     26  C   LIG    1       -2.139  -0.928  -0.172  0.00  0.00    -0.017 C 
ENDBRANCH  21  25
ENDBRANCH  20  21
ENDBRANCH  19  20
ENDBRANCH  17  19
ENDBRANCH  10  17
TORSDOF 6
