REMARK  Name = DB04813
REMARK                            x       y       z     vdW  Elec       q    Type
REMARK                         _______ _______ _______ _____ _____    ______ ____
ROOT
ATOM      1  S   LIG    1        0.120   0.124   0.000  0.00  0.00    -0.082 S 
ENDROOT
BRANCH   1   7
ATOM      2 CL   LIG    1        4.896  -0.208   2.711  0.00  0.00    -0.080 Cl
ATOM      3  C   LIG    1        3.987  -0.150   1.239  0.00  0.00    +0.085 A 
ATOM      4  C   LIG    1        4.672  -0.199   0.023  0.00  0.00    +0.043 A 
ATOM      5  C   LIG    1        3.970  -0.154  -1.181  0.00  0.00    +0.044 A 
ATOM      6  C   LIG    1        2.579  -0.059  -1.173  0.00  0.00    +0.038 A 
ATOM      7  C   LIG    1        1.886  -0.007   0.039  0.00  0.00    +0.057 A 
ATOM      8 CL   LIG    1        4.822  -0.213  -2.681  0.00  0.00    -0.083 Cl
ATOM      9  C   LIG    1        2.589  -0.055   1.253  0.00  0.00    +0.149 A 
BRANCH   9  10
ATOM     10  O   LIG    1        1.921  -0.006   2.454  0.00  0.00    -0.504 OA
ATOM     11  H   LIG    1        2.512  -0.058   3.208  0.00  0.00    +0.292 HD
ENDBRANCH   9  10
ENDBRANCH   1   7
BRANCH   1  12
ATOM     12  C   LIG    1       -0.075   1.884  -0.039  0.00  0.00    +0.057 A 
ATOM     13  C   LIG    1       -0.152   2.575   1.173  0.00  0.00    +0.038 A 
ATOM     14  C   LIG    1       -0.297   3.962   1.181  0.00  0.00    +0.044 A 
ATOM     15  C   LIG    1       -0.368   4.662  -0.023  0.00  0.00    +0.043 A 
ATOM     16  C   LIG    1       -0.294   3.979  -1.239  0.00  0.00    +0.085 A 
ATOM     17 CL   LIG    1       -0.385   4.885  -2.711  0.00  0.00    -0.080 Cl
ATOM     18 CL   LIG    1       -0.387   4.811   2.681  0.00  0.00    -0.083 Cl
ATOM     19  C   LIG    1       -0.148   2.585  -1.253  0.00  0.00    +0.149 A 
BRANCH  19  20
ATOM     20  O   LIG    1       -0.075   1.920  -2.454  0.00  0.00    -0.504 OA
ATOM     21  H   LIG    1       -0.149   2.509  -3.209  0.00  0.00    +0.292 HD
ENDBRANCH  19  20
ENDBRANCH   1  12
TORSDOF 4
