REMARK  Name = DB04934
REMARK                            x       y       z     vdW  Elec       q    Type
REMARK                         _______ _______ _______ _____ _____    ______ ____
ROOT
ATOM      1  O   LIG    1       11.515  -0.924   0.447  0.00  0.00    -0.444 OA
ATOM      2  C   LIG    1       10.616  -1.861  -0.021  0.00  0.00    +0.314 C 
ATOM      3  C   LIG    1       10.649  -3.041   0.948  0.00  0.00    +0.114 C 
ATOM      4  C   LIG    1        9.204  -1.154  -0.050  0.00  0.00    +0.250 C 
ATOM      5  C   LIG    1        9.460   0.150   0.630  0.00  0.00    +0.077 A 
ATOM      6  C   LIG    1        8.646   1.255   1.000  0.00  0.00    +0.033 A 
ATOM      7  C   LIG    1        7.152   1.219   0.845  0.00  0.00    +0.118 A 
ATOM      8  C   LIG    1        6.494   2.516   0.948  0.00  0.00    +0.179 A 
ATOM      9  C   LIG    1        7.092   3.675   1.310  0.00  0.00    +0.127 A 
ATOM     10  C   LIG    1        8.505   3.721   1.764  0.00  0.00    +0.215 A 
ATOM     11  O   LIG    1        9.006   4.722   2.281  0.00  0.00    -0.285 OA
ATOM     12  N   LIG    1        6.335   4.827   1.339  0.00  0.00    -0.276 N 
ATOM     13  H   LIG    1        5.446   4.757   1.812  0.00  0.00    +0.155 HD
ATOM     14  C   LIG    1        6.613   5.993   0.705  0.00  0.00    +0.244 C 
ATOM     15  C   LIG    1        5.685   7.057   1.025  0.00  0.00    +0.012 C 
ATOM     16  C   LIG    1        6.200   7.987   2.116  0.00  0.00    +0.049 C 
ATOM     17  C   LIG    1        4.429   7.140   0.516  0.00  0.00    +0.008 C 
ATOM     18  C   LIG    1        3.835   6.361  -0.564  0.00  0.00    -0.003 C 
ATOM     19  C   LIG    1        4.410   6.191  -1.773  0.00  0.00    -0.021 C 
ATOM     20  C   LIG    1        3.852   5.391  -2.960  0.00  0.00    +0.037 C 
ATOM     21  C   LIG    1        2.328   5.143  -2.877  0.00  0.00    +0.014 C 
ATOM     22  C   LIG    1        4.616   4.057  -3.242  0.00  0.00    +0.126 C 
ATOM     23  C   LIG    1        5.917   4.146  -4.108  0.00  0.00    +0.044 C 
ATOM     24  C   LIG    1        6.950   5.176  -3.605  0.00  0.00    +0.013 C 
ATOM     25  C   LIG    1        6.557   2.752  -4.446  0.00  0.00    +0.126 C 
ATOM     26  C   LIG    1        7.285   2.010  -3.265  0.00  0.00    +0.056 C 
ATOM     27  C   LIG    1        6.510   0.752  -2.803  0.00  0.00    +0.014 C 
ATOM     28  C   LIG    1        8.839   1.777  -3.346  0.00  0.00    +0.187 C 
ATOM     29  C   LIG    1        9.463   0.787  -4.395  0.00  0.00    +0.060 C 
ATOM     30  C   LIG    1        8.609  -0.449  -4.744  0.00  0.00    +0.014 C 
ATOM     31  C   LIG    1       10.906   0.334  -3.983  0.00  0.00    +0.150 C 
ATOM     32  C   LIG    1       10.939  -0.359  -2.627  0.00  0.00    +0.042 C 
ATOM     33  C   LIG    1       10.983  -1.693  -2.437  0.00  0.00    +0.190 C 
ATOM     34  O   LIG    1        7.594   6.186  -0.016  0.00  0.00    -0.270 OA
ATOM     35  O   LIG    1        5.139   2.586   0.705  0.00  0.00    -0.450 OA
ATOM     36  C   LIG    1        4.404   1.431   0.508  0.00  0.00    +0.159 A 
ATOM     37  C   LIG    1        3.031   1.539   0.326  0.00  0.00    +0.071 A 
ATOM     38  C   LIG    1        2.245   0.393   0.130  0.00  0.00    +0.037 A 
ATOM     39  C   LIG    1        2.906  -0.849   0.082  0.00  0.00    +0.071 A 
ATOM     40  C   LIG    1        4.293  -0.968   0.263  0.00  0.00    +0.147 A 
ATOM     41  C   LIG    1        5.061   0.197   0.486  0.00  0.00    +0.148 A 
ATOM     42  N   LIG    1        6.465   0.156   0.658  0.00  0.00    -0.236 NA
ATOM     43  C   LIG    1        9.289   2.432   1.508  0.00  0.00    +0.075 A 
ATOM     44  C   LIG    1       10.693   2.404   1.741  0.00  0.00    +0.135 A 
ATOM     45  C   LIG    1       11.467   1.283   1.419  0.00  0.00    +0.034 A 
ATOM     46  C   LIG    1       12.976   1.277   1.657  0.00  0.00    +0.051 C 
ATOM     47  O   LIG    1        8.226  -1.704  -0.552  0.00  0.00    -0.284 OA
ATOM     48  O   LIG    1       10.995  -2.409  -1.272  0.00  0.00    -0.453 OA
ATOM     49  C   LIG    1       10.830   0.191   0.852  0.00  0.00    +0.143 A 
ENDROOT
BRANCH  38  50
ATOM     50  N   LIG    1        0.862   0.480  -0.077  0.00  0.00    -0.333 N 
ATOM     51  C   LIG    1        0.128   1.759   0.007  0.00  0.00    +0.086 C 
ATOM     52  C   LIG    1       -0.230   2.146   1.461  0.00  0.00    -0.060 C 
ATOM     53  N   LIG    1       -1.140   1.050   2.059  0.00  0.00    +0.382 N 
ATOM     54  H   LIG    1       -1.989   1.004   1.512  0.00  0.00    -0.082 HD
ATOM     55  C   LIG    1       -0.420  -0.311   1.932  0.00  0.00    -0.060 C 
ATOM     56  C   LIG    1       -0.053  -0.553   0.449  0.00  0.00    +0.086 C 
BRANCH  53  57
ATOM     57  C   LIG    1       -1.500   1.320   3.542  0.00  0.00    -0.076 C 
BRANCH  57  58
ATOM     58  C   LIG    1       -2.356   2.598   3.739  0.00  0.00    -0.034 C 
ATOM     59  C   LIG    1       -3.620   2.634   2.856  0.00  0.00    +0.005 C 
ATOM     60  C   LIG    1       -2.723   2.770   5.223  0.00  0.00    +0.005 C 
ENDBRANCH  57  58
ENDBRANCH  53  57
ENDBRANCH  38  50
BRANCH  31  61
ATOM     61  O   LIG    1       11.838   1.415  -3.933  0.00  0.00    -0.375 OA
ATOM     62  C   LIG    1       12.207   1.986  -5.182  0.00  0.00    +0.194 C 
ENDBRANCH  31  61
BRANCH  25  63
ATOM     63  O   LIG    1        7.385   2.886  -5.588  0.00  0.00    -0.391 OA
ATOM     64  H   LIG    1        7.764   2.027  -5.789  0.00  0.00    +0.210 HD
ENDBRANCH  25  63
BRANCH  22  65
ATOM     65  O   LIG    1        4.823   3.394  -2.015  0.00  0.00    -0.391 OA
ATOM     66  H   LIG    1        5.420   3.921  -1.479  0.00  0.00    +0.210 HD
ENDBRANCH  22  65
BRANCH  40  67
ATOM     67  O   LIG    1        4.801  -2.141   0.212  0.00  0.00    -0.504 OA
ATOM     68  H   LIG    1        5.723  -2.258   0.328  0.00  0.00    +0.292 HD
ENDBRANCH  40  67
BRANCH  44  69
ATOM     69  O   LIG    1       11.370   3.479   2.273  0.00  0.00    -0.506 OA
ATOM     70  H   LIG    1       12.312   3.320   2.355  0.00  0.00    +0.292 HD
ENDBRANCH  44  69
BRANCH  28  71
ATOM     71  O   LIG    1        9.527   3.023  -3.513  0.00  0.00    -0.461 OA
BRANCH  71  72
ATOM     72  C   LIG    1        9.915   3.784  -2.467  0.00  0.00    +0.304 C 
ATOM     73  C   LIG    1       10.677   5.027  -2.906  0.00  0.00    +0.136 C 
ATOM     74  O   LIG    1        9.707   3.549  -1.280  0.00  0.00    -0.251 OA
ENDBRANCH  71  72
ENDBRANCH  28  71
TORSDOF 10
