REMARK  Name = DB04947
REMARK                            x       y       z     vdW  Elec       q    Type
REMARK                         _______ _______ _______ _____ _____    ______ ____
ROOT
ATOM      1  N   LIG    1        0.063  -0.168   0.165  0.00  0.00    -0.292 NA
ATOM      2  C   LIG    1       -0.448  -0.437   1.512  0.00  0.00    +0.058 C 
ATOM      3  C   LIG    1       -0.134   0.841   2.320  0.00  0.00    +0.020 C 
ATOM      4  C   LIG    1       -0.098   1.949   1.258  0.00  0.00    +0.021 C 
ATOM      5  C   LIG    1       -1.974  -0.719   1.376  0.00  0.00    +0.028 C 
ATOM      6  C   LIG    1       -2.747   0.495   0.770  0.00  0.00    +0.036 C 
ATOM      7  C   LIG    1       -1.941   1.189  -0.387  0.00  0.00    +0.122 C 
ATOM      8  C   LIG    1       -0.404   1.211  -0.064  0.00  0.00    +0.072 C 
ENDROOT
BRANCH   6   9
ATOM      9  C   LIG    1       -4.251   0.292   0.502  0.00  0.00    -0.043 A 
ATOM     10  C   LIG    1       -4.870  -0.958   0.637  0.00  0.00    +0.007 A 
ATOM     11  C   LIG    1       -6.233  -1.098   0.387  0.00  0.00    +0.038 A 
ATOM     12  C   LIG    1       -6.984   0.010   0.003  0.00  0.00    +0.123 A 
ATOM     13  C   LIG    1       -6.383   1.258  -0.130  0.00  0.00    +0.038 A 
ATOM     14  F   LIG    1       -8.308  -0.127  -0.239  0.00  0.00    -0.205 F 
ATOM     15  C   LIG    1       -5.021   1.398   0.121  0.00  0.00    +0.007 A 
ENDBRANCH   6   9
BRANCH   7  16
ATOM     16  C   LIG    1       -2.156   0.541  -1.778  0.00  0.00    +0.312 C 
ATOM     17  O   LIG    1       -2.482  -0.641  -1.913  0.00  0.00    -0.250 OA
BRANCH  16  18
ATOM     18  O   LIG    1       -2.025   1.439  -2.777  0.00  0.00    -0.468 OA
ATOM     19  C   LIG    1       -2.198   1.044  -4.130  0.00  0.00    +0.280 C 
ENDBRANCH  16  18
ENDBRANCH   7  16
BRANCH   1  20
ATOM     20  C   LIG    1        1.521  -0.340   0.061  0.00  0.00    +0.112 C 
BRANCH  20  23
ATOM     21  I   LIG    1        2.594  -0.113  -4.344  0.00  0.00    -0.053 I 
ATOM     22  C   LIG    1        1.509  -0.204  -2.500  0.00  0.00    +0.042 C 
ATOM     23  C   LIG    1        2.153  -0.277  -1.324  0.00  0.00    -0.005 C 
ENDBRANCH  20  23
ENDBRANCH   1  20
TORSDOF 5
