REMARK  Name = DB04894
REMARK                            x       y       z     vdW  Elec       q    Type
REMARK                         _______ _______ _______ _____ _____    ______ ____
ROOT
ATOM      1  C   LIG    1        1.433  -0.045   0.134  0.00  0.00    +0.169 C 
ATOM      2  N   LIG    1        1.859   1.177  -0.550  0.00  0.00    -0.302 N 
ATOM      3  H   LIG    1        2.303   1.871   0.035  0.00  0.00    +0.150 HD
ATOM      4  C   LIG    1        1.674   1.446  -1.855  0.00  0.00    +0.234 C 
ATOM      5  C   LIG    1        2.154   2.848  -2.309  0.00  0.00    +0.161 C 
ATOM      6  N   LIG    1        3.547   3.154  -1.955  0.00  0.00    -0.302 N 
ATOM      7  H   LIG    1        3.676   4.054  -1.516  0.00  0.00    +0.150 HD
ATOM      8  C   LIG    1        4.640   2.386  -2.134  0.00  0.00    +0.234 C 
ATOM      9  C   LIG    1        5.966   2.992  -1.625  0.00  0.00    +0.159 C 
ATOM     10  N   LIG    1        5.857   3.459  -0.238  0.00  0.00    -0.302 N 
ATOM     11  H   LIG    1        6.010   4.450  -0.110  0.00  0.00    +0.150 HD
ATOM     12  C   LIG    1        5.591   2.718   0.854  0.00  0.00    +0.234 C 
ATOM     13  C   LIG    1        5.546   3.451   2.210  0.00  0.00    +0.163 C 
ATOM     14  N   LIG    1        4.653   4.615   2.247  0.00  0.00    -0.302 N 
ATOM     15  H   LIG    1        3.814   4.470   2.790  0.00  0.00    +0.150 HD
ATOM     16  C   LIG    1        4.807   5.818   1.661  0.00  0.00    +0.234 C 
ATOM     17  C   LIG    1        3.681   6.846   1.891  0.00  0.00    +0.163 C 
ATOM     18  N   LIG    1        2.347   6.246   1.984  0.00  0.00    -0.302 N 
ATOM     19  H   LIG    1        1.917   6.278   2.898  0.00  0.00    +0.150 HD
ATOM     20  C   LIG    1        1.691   5.647   0.975  0.00  0.00    +0.235 C 
ATOM     21  C   LIG    1        0.323   5.035   1.336  0.00  0.00    +0.169 C 
ATOM     22  C   LIG    1        0.393   3.507   1.546  0.00  0.00    +0.112 C 
ATOM     23  S   LIG    1        1.735   2.846   2.579  0.00  0.00    -0.091 S 
ATOM     24  S   LIG    1        1.253   0.888   2.889  0.00  0.00    -0.091 S 
ATOM     25  O   LIG    1        2.121   5.552  -0.175  0.00  0.00    -0.274 OA
ATOM     26  O   LIG    1        5.766   6.143   0.961  0.00  0.00    -0.274 OA
ATOM     27  O   LIG    1        5.382   1.506   0.833  0.00  0.00    -0.274 OA
ATOM     28  O   LIG    1        4.628   1.261  -2.634  0.00  0.00    -0.274 OA
ATOM     29  O   LIG    1        1.174   0.650  -2.648  0.00  0.00    -0.274 OA
ATOM     30  C   LIG    1        2.044  -0.071   1.554  0.00  0.00    +0.112 C 
ENDROOT
BRANCH   1  33
ATOM     31  N   LIG    1       -0.533  -1.490   0.227  0.00  0.00    -0.302 N 
ATOM     32  H   LIG    1        0.139  -2.244   0.252  0.00  0.00    +0.150 HD
ATOM     33  C   LIG    1       -0.099  -0.222   0.160  0.00  0.00    +0.235 C 
ATOM     34  O   LIG    1       -0.837   0.766   0.138  0.00  0.00    -0.274 OA
BRANCH  31  35
ATOM     35  C   LIG    1       -1.940  -1.894   0.303  0.00  0.00    +0.163 C 
BRANCH  35  36
ATOM     36  C   LIG    1       -2.128  -3.025   1.333  0.00  0.00    +0.231 C 
ATOM     37  N   LIG    1       -3.291  -3.044   1.990  0.00  0.00    -0.328 N 
ATOM     38  H   LIG    1       -3.990  -2.337   1.816  0.00  0.00    +0.145 HD
ATOM     39  H   LIG    1       -3.476  -3.768   2.669  0.00  0.00    +0.145 HD
ATOM     40  O   LIG    1       -1.255  -3.875   1.504  0.00  0.00    -0.274 OA
ENDBRANCH  35  36
BRANCH  35  41
ATOM     41  C   LIG    1       -2.442  -2.331  -1.092  0.00  0.00    +0.069 C 
BRANCH  41  42
ATOM     42  C   LIG    1       -2.327  -1.313  -2.189  0.00  0.00    -0.020 A 
ATOM     43  C   LIG    1       -3.069  -0.066  -2.357  0.00  0.00    +0.003 A 
ATOM     44  C   LIG    1       -4.100   0.582  -1.636  0.00  0.00    +0.010 A 
ATOM     45  C   LIG    1       -4.622   1.821  -2.061  0.00  0.00    +0.001 A 
ATOM     46  C   LIG    1       -4.124   2.445  -3.222  0.00  0.00    +0.002 A 
ATOM     47  C   LIG    1       -3.099   1.829  -3.962  0.00  0.00    +0.026 A 
ATOM     48  C   LIG    1       -2.585   0.595  -3.527  0.00  0.00    +0.047 A 
ATOM     49  N   LIG    1       -1.597  -0.240  -4.006  0.00  0.00    -0.360 N 
ATOM     50  H   LIG    1       -1.029  -0.074  -4.824  0.00  0.00    +0.165 HD
ATOM     51  C   LIG    1       -1.439  -1.354  -3.209  0.00  0.00    +0.087 A 
ENDBRANCH  41  42
ENDBRANCH  35  41
ENDBRANCH  31  35
ENDBRANCH   1  33
BRANCH  21  52
ATOM     52  N   LIG    1       -0.708   5.295   0.327  0.00  0.00    -0.305 N 
ATOM     53  H   LIG    1       -1.108   4.471  -0.098  0.00  0.00    +0.149 HD
ATOM     54  C   LIG    1       -1.149   6.504  -0.063  0.00  0.00    +0.199 C 
ATOM     55  O   LIG    1       -0.735   7.570   0.404  0.00  0.00    -0.278 OA
BRANCH  54  56
ATOM     56  C   LIG    1       -2.270   6.484  -1.129  0.00  0.00    +0.017 C 
BRANCH  56  57
ATOM     57  N   LIG    1       -1.825   7.415  -2.225  0.00  0.00    +0.386 N 
ATOM     58  H   LIG    1       -2.578   7.518  -2.891  0.00  0.00    -0.089 HD
ATOM     59  H   LIG    1       -1.604   8.314  -1.819  0.00  0.00    -0.089 HD
ATOM     60  H   LIG    1       -1.011   7.030  -2.683  0.00  0.00    -0.089 HD
ENDBRANCH  56  57
BRANCH  56  61
ATOM     61  C   LIG    1       -3.643   6.872  -0.520  0.00  0.00    +0.028 C 
BRANCH  61  62
ATOM     62  C   LIG    1       -4.829   6.824  -1.472  0.00  0.00    -0.048 A 
ATOM     63  C   LIG    1       -5.451   5.591  -1.759  0.00  0.00    +0.003 A 
ATOM     64  C   LIG    1       -6.478   5.530  -2.692  0.00  0.00    +0.000 A 
ATOM     65  C   LIG    1       -6.877   6.676  -3.368  0.00  0.00    +0.000 A 
ATOM     66  C   LIG    1       -6.248   7.891  -3.124  0.00  0.00    +0.000 A 
ATOM     67  C   LIG    1       -5.220   7.972  -2.194  0.00  0.00    +0.003 A 
ENDBRANCH  61  62
ENDBRANCH  56  61
ENDBRANCH  54  56
ENDBRANCH  21  52
BRANCH   5  68
ATOM     68  C   LIG    1        1.821   3.194  -3.798  0.00  0.00    +0.012 C 
ATOM     69  C   LIG    1        2.528   2.340  -4.872  0.00  0.00    +0.009 C 
ATOM     70  C   LIG    1        0.307   3.267  -4.077  0.00  0.00    +0.009 C 
ENDBRANCH   5  68
BRANCH  17  71
ATOM     71  C   LIG    1        3.926   7.702   3.156  0.00  0.00    +0.067 C 
BRANCH  71  72
ATOM     72  C   LIG    1        5.307   8.326   3.274  0.00  0.00    -0.045 A 
ATOM     73  C   LIG    1        5.622   9.486   2.537  0.00  0.00    +0.007 A 
ATOM     74  C   LIG    1        6.911  10.049   2.619  0.00  0.00    +0.045 A 
ATOM     75  C   LIG    1        7.889   9.453   3.440  0.00  0.00    +0.117 A 
ATOM     76  C   LIG    1        7.576   8.298   4.182  0.00  0.00    +0.045 A 
ATOM     77  C   LIG    1        6.287   7.736   4.101  0.00  0.00    +0.007 A 
BRANCH  75  78
ATOM     78  O   LIG    1        9.140   9.991   3.514  0.00  0.00    -0.507 OA
ATOM     79  H   LIG    1        9.248  10.767   2.959  0.00  0.00    +0.292 HD
ENDBRANCH  75  78
ENDBRANCH  71  72
ENDBRANCH  17  71
BRANCH  13  80
ATOM     80  C   LIG    1        6.949   3.780   2.780  0.00  0.00    +0.069 C 
BRANCH  80  81
ATOM     81  C   LIG    1        7.946   2.657   2.786  0.00  0.00    -0.020 A 
ATOM     82  C   LIG    1        9.086   2.444   1.897  0.00  0.00    +0.003 A 
ATOM     83  C   LIG    1        9.665   3.170   0.829  0.00  0.00    +0.010 A 
ATOM     84  C   LIG    1       10.792   2.681   0.137  0.00  0.00    +0.001 A 
ATOM     85  C   LIG    1       11.373   1.451   0.501  0.00  0.00    +0.002 A 
ATOM     86  C   LIG    1       10.828   0.705   1.562  0.00  0.00    +0.026 A 
ATOM     87  C   LIG    1        9.702   1.202   2.243  0.00  0.00    +0.047 A 
ATOM     88  N   LIG    1        8.945   0.726   3.293  0.00  0.00    -0.360 N 
ATOM     89  H   LIG    1        9.098  -0.143   3.784  0.00  0.00    +0.165 HD
ATOM     90  C   LIG    1        7.910   1.583   3.607  0.00  0.00    +0.087 A 
ENDBRANCH  80  81
ENDBRANCH  13  80
BRANCH   9  91
ATOM     91  C   LIG    1        7.204   2.070  -1.776  0.00  0.00    +0.032 C 
BRANCH  91  92
ATOM     92  C   LIG    1        7.656   1.808  -3.224  0.00  0.00    +0.000 C 
BRANCH  92  93
ATOM     93  C   LIG    1        8.955   0.991  -3.281  0.00  0.00    -0.019 C 
BRANCH  93  94
ATOM     94  C   LIG    1        9.416   0.721  -4.721  0.00  0.00    -0.086 C 
BRANCH  94  95
ATOM     95  N   LIG    1       10.660  -0.069  -4.757  0.00  0.00    +0.378 N 
ATOM     96  H   LIG    1       11.393   0.433  -4.277  0.00  0.00    -0.090 HD
ATOM     97  H   LIG    1       10.508  -0.958  -4.302  0.00  0.00    -0.090 HD
ATOM     98  H   LIG    1       10.933  -0.226  -5.717  0.00  0.00    -0.090 HD
ENDBRANCH  94  95
ENDBRANCH  93  94
ENDBRANCH  92  93
ENDBRANCH  91  92
ENDBRANCH   9  91
TORSDOF 21
