REMARK  Name = DB04898
REMARK                            x       y       z     vdW  Elec       q    Type
REMARK                         _______ _______ _______ _____ _____    ______ ____
ROOT
ATOM      1  O   LIG    1        1.761  -0.985  -0.168  0.00  0.00    -0.274 OA
ATOM      2  C   LIG    1        1.278   0.114  -0.459  0.00  0.00    +0.233 C 
ATOM      3  N   LIG    1        2.052   1.193  -0.691  0.00  0.00    -0.289 N 
ATOM      4  C   LIG    1        1.788   2.503  -1.344  0.00  0.00    +0.111 C 
ATOM      5  C   LIG    1        3.307   2.756  -1.233  0.00  0.00    +0.051 C 
ATOM      6  C   LIG    1        3.519   1.391  -0.540  0.00  0.00    +0.163 C 
ENDROOT
BRANCH   6   7
ATOM      7  C   LIG    1        4.024   1.526   0.919  0.00  0.00    +0.234 C 
ATOM      8  N   LIG    1        3.109   1.631   1.904  0.00  0.00    -0.310 N 
ATOM      9  H   LIG    1        2.133   1.592   1.650  0.00  0.00    +0.149 HD
ATOM     10  O   LIG    1        5.237   1.527   1.129  0.00  0.00    -0.274 OA
BRANCH   8  11
ATOM     11  C   LIG    1        3.398   1.647   3.336  0.00  0.00    +0.139 C 
BRANCH  11  12
ATOM     12  C   LIG    1        3.675   0.263   3.914  0.00  0.00    -0.030 A 
ATOM     13  C   LIG    1        2.746  -0.764   3.749  0.00  0.00    +0.006 A 
ATOM     14  C   LIG    1        2.997  -2.025   4.278  0.00  0.00    +0.016 A 
ATOM     15  C   LIG    1        4.182  -2.308   4.987  0.00  0.00    +0.069 A 
ATOM     16  C   LIG    1        5.104  -1.251   5.134  0.00  0.00    +0.016 A 
ATOM     17  C   LIG    1        4.856   0.014   4.608  0.00  0.00    +0.006 A 
BRANCH  15  18
ATOM     18  C   LIG    1        4.427  -3.679   5.548  0.00  0.00    +0.362 C 
ATOM     19  N   LIG    1        3.525  -4.576   5.406  0.00  0.00    +0.151 NA
BRANCH  18  20
ATOM     20  N   LIG    1        5.659  -3.797   6.177  0.00  0.00    -0.243 N 
ATOM     21  H   LIG    1        6.297  -3.016   6.218  0.00  0.00    +0.289 HD
ATOM     22  H   LIG    1        5.934  -4.676   6.590  0.00  0.00    +0.289 HD
ENDBRANCH  18  20
BRANCH  19  23
ATOM     23  O   LIG    1        3.857  -5.824   5.970  0.00  0.00    -0.311 OA
ATOM     24  H   LIG    1        3.078  -6.347   5.770  0.00  0.00    +0.361 HD
ENDBRANCH  19  23
ENDBRANCH  15  18
ENDBRANCH  11  12
ENDBRANCH   8  11
ENDBRANCH   6   7
BRANCH   2  25
ATOM     25  C   LIG    1       -0.269   0.309  -0.516  0.00  0.00    +0.144 C 
BRANCH  25  26
ATOM     26  C   LIG    1       -0.978  -0.329  -1.766  0.00  0.00    +0.015 C 
ATOM     27  C   LIG    1       -1.012   0.654  -2.961  0.00  0.00    +0.005 C 
ATOM     28  C   LIG    1       -2.012   0.145  -4.022  0.00  0.00    +0.000 C 
ATOM     29  C   LIG    1       -1.600  -1.260  -4.534  0.00  0.00    +0.000 C 
ATOM     30  C   LIG    1       -1.253  -2.251  -3.393  0.00  0.00    +0.000 C 
ATOM     31  C   LIG    1       -0.302  -1.592  -2.371  0.00  0.00    +0.005 C 
ENDBRANCH  25  26
BRANCH  25  32
ATOM     32  N   LIG    1       -0.767  -0.336   0.726  0.00  0.00    -0.296 NA
ATOM     33  H   LIG    1       -0.098  -1.048   0.987  0.00  0.00    +0.123 HD
BRANCH  32  34
ATOM     34  C   LIG    1       -0.825   0.584   1.863  0.00  0.00    +0.203 C 
BRANCH  34  35
ATOM     35  C   LIG    1       -1.229  -0.104   3.174  0.00  0.00    +0.321 C 
ATOM     36  O   LIG    1       -0.702   0.225   4.238  0.00  0.00    -0.249 OA
BRANCH  35  37
ATOM     37  O   LIG    1       -2.200  -1.037   3.028  0.00  0.00    -0.464 OA
BRANCH  37  38
ATOM     38  C   LIG    1       -2.676  -1.769   4.150  0.00  0.00    +0.229 C 
ATOM     39  C   LIG    1       -3.762  -2.747   3.693  0.00  0.00    +0.048 C 
ENDBRANCH  37  38
ENDBRANCH  35  37
ENDBRANCH  34  35
ENDBRANCH  32  34
ENDBRANCH  25  32
ENDBRANCH   2  25
TORSDOF 13
