REMARK  Name = DB04980
REMARK                            x       y       z     vdW  Elec       q    Type
REMARK                         _______ _______ _______ _____ _____    ______ ____
ROOT
ATOM      1  C   LIG    1       -6.614   4.973  -1.337  0.00  0.00    +0.050 C 
ATOM      2  C   LIG    1       -5.224   4.426  -1.018  0.00  0.00    +0.022 C 
ATOM      3  C   LIG    1       -4.032   5.148  -0.958  0.00  0.00    +0.045 C 
ATOM      4  C   LIG    1       -2.727   4.665  -0.735  0.00  0.00    +0.044 A 
ATOM      5  C   LIG    1       -1.603   5.461  -0.707  0.00  0.00    -0.022 A 
ATOM      6  C   LIG    1       -1.587   6.969  -0.907  0.00  0.00    +0.046 C 
ATOM      7  C   LIG    1       -0.480   4.632  -0.486  0.00  0.00    -0.019 A 
ATOM      8  C   LIG    1       -0.926   3.334  -0.389  0.00  0.00    +0.045 A 
ATOM      9  C   LIG    1       -0.111   2.198  -0.202  0.00  0.00    +0.051 C 
ATOM     10  C   LIG    1       -0.543   0.859  -0.148  0.00  0.00    +0.045 A 
ATOM     11  C   LIG    1        0.236  -0.263   0.015  0.00  0.00    -0.019 A 
ATOM     12  C   LIG    1       -0.619  -1.392  -0.003  0.00  0.00    -0.022 A 
ATOM     13  C   LIG    1       -0.211  -2.848   0.144  0.00  0.00    +0.046 C 
ATOM     14  C   LIG    1       -1.909  -0.944  -0.170  0.00  0.00    +0.045 A 
ATOM     15  C   LIG    1       -3.079  -1.725  -0.234  0.00  0.00    +0.052 C 
ATOM     16  C   LIG    1       -4.399  -1.249  -0.397  0.00  0.00    +0.049 A 
ATOM     17  C   LIG    1       -5.538  -2.023  -0.438  0.00  0.00    +0.003 A 
ATOM     18  C   LIG    1       -6.647  -1.154  -0.578  0.00  0.00    -0.018 A 
ATOM     19  C   LIG    1       -6.174   0.137  -0.668  0.00  0.00    +0.045 A 
ATOM     20  C   LIG    1       -6.986   1.280  -0.834  0.00  0.00    +0.049 C 
ATOM     21  C   LIG    1       -6.587   2.610  -0.950  0.00  0.00    +0.037 C 
ATOM     22  C   LIG    1       -8.113  -1.562  -0.615  0.00  0.00    +0.046 C 
ATOM     23  N   LIG    1       -4.805   0.062  -0.554  0.00  0.00    -0.354 N 
ATOM     24  H   LIG    1       -4.185   0.857  -0.575  0.00  0.00    +0.166 HD
ATOM     25  N   LIG    1       -1.842   0.424  -0.257  0.00  0.00    -0.355 N 
ATOM     26  H   LIG    1       -2.638   1.029  -0.382  0.00  0.00    +0.166 HD
ATOM     27  N   LIG    1       -2.298   3.374  -0.527  0.00  0.00    -0.355 N 
ATOM     28  H   LIG    1       -2.904   2.569  -0.500  0.00  0.00    +0.166 HD
ATOM     29  N   LIG    1       -5.330   3.086  -0.914  0.00  0.00    -0.317 N 
ATOM     30  H   LIG    1       -4.528   2.488  -0.785  0.00  0.00    +0.152 HD
ATOM     31  C   LIG    1       -6.704   5.269  -2.864  0.00  0.00    +0.023 C 
ATOM     32  C   LIG    1       -7.156   6.185  -0.445  0.00  0.00    +0.150 C 
ATOM     33  C   LIG    1       -8.719   6.279  -0.538  0.00  0.00    +0.051 C 
ATOM     34  C   LIG    1       -9.447   5.164  -0.789  0.00  0.00    +0.012 C 
ATOM     35  C   LIG    1       -8.816   3.866  -0.891  0.00  0.00    +0.007 C 
ATOM     36  C   LIG    1       -7.481   3.760  -1.045  0.00  0.00    -0.014 C 
ENDROOT
BRANCH  17  37
ATOM     37  C   LIG    1       -5.579  -3.477  -0.330  0.00  0.00    +0.002 C 
ATOM     38  C   LIG    1       -6.326  -4.322  -1.060  0.00  0.00    +0.009 C 
ENDBRANCH  17  37
BRANCH  32  39
ATOM     39  C   LIG    1       -6.379   7.508  -0.690  0.00  0.00    +0.316 C 
ATOM     40  O   LIG    1       -5.569   7.923   0.142  0.00  0.00    -0.250 OA
BRANCH  39  41
ATOM     41  O   LIG    1       -6.708   8.130  -1.845  0.00  0.00    -0.467 OA
ATOM     42  C   LIG    1       -6.096   9.360  -2.202  0.00  0.00    +0.280 C 
ENDBRANCH  39  41
ENDBRANCH  32  39
BRANCH  33  43
ATOM     43  C   LIG    1       -9.426   7.562  -0.343  0.00  0.00    +0.336 C 
ATOM     44  O   LIG    1       -9.088   8.379   0.516  0.00  0.00    -0.245 OA
BRANCH  43  45
ATOM     45  O   LIG    1      -10.435   7.761  -1.229  0.00  0.00    -0.465 OA
ATOM     46  C   LIG    1      -11.198   8.960  -1.202  0.00  0.00    +0.280 C 
ENDBRANCH  43  45
ENDBRANCH  33  43
BRANCH   7  47
ATOM     47  C   LIG    1        0.975   5.087  -0.408  0.00  0.00    +0.048 C 
BRANCH  47  48
ATOM     48  C   LIG    1        1.758   4.875  -1.725  0.00  0.00    +0.125 C 
BRANCH  48  49
ATOM     49  C   LIG    1        1.187   5.642  -2.922  0.00  0.00    +0.307 C 
ATOM     50  O   LIG    1        1.600   6.763  -3.224  0.00  0.00    -0.251 OA
BRANCH  49  51
ATOM     51  O   LIG    1        0.203   4.958  -3.544  0.00  0.00    -0.462 OA
BRANCH  51  52
ATOM     52  C   LIG    1       -0.499   5.529  -4.642  0.00  0.00    +0.260 C 
BRANCH  52  53
ATOM     53  C   LIG    1       -1.628   4.589  -5.092  0.00  0.00    +0.197 C 
BRANCH  53  54
ATOM     54  O   LIG    1       -2.669   4.557  -4.137  0.00  0.00    -0.392 OA
ATOM     55  H   LIG    1       -3.369   3.991  -4.470  0.00  0.00    +0.210 HD
ENDBRANCH  53  54
ENDBRANCH  52  53
ENDBRANCH  51  52
ENDBRANCH  49  51
ENDBRANCH  48  49
ENDBRANCH  47  48
ENDBRANCH   7  47
BRANCH  11  56
ATOM     56  C   LIG    1        1.753  -0.273   0.187  0.00  0.00    +0.048 C 
BRANCH  56  57
ATOM     57  C   LIG    1        2.221   0.134   1.604  0.00  0.00    +0.125 C 
BRANCH  57  58
ATOM     58  C   LIG    1        1.716  -0.772   2.732  0.00  0.00    +0.307 C 
ATOM     59  O   LIG    1        1.052  -0.315   3.664  0.00  0.00    -0.251 OA
BRANCH  58  60
ATOM     60  O   LIG    1        2.066  -2.064   2.562  0.00  0.00    -0.462 OA
BRANCH  60  61
ATOM     61  C   LIG    1        1.656  -3.055   3.495  0.00  0.00    +0.260 C 
BRANCH  61  62
ATOM     62  C   LIG    1        2.127  -4.432   3.011  0.00  0.00    +0.197 C 
BRANCH  62  63
ATOM     63  O   LIG    1        1.716  -5.425   3.926  0.00  0.00    -0.392 OA
ATOM     64  H   LIG    1        2.222  -5.324   4.736  0.00  0.00    +0.210 HD
ENDBRANCH  62  63
ENDBRANCH  61  62
ENDBRANCH  60  61
ENDBRANCH  58  60
ENDBRANCH  57  58
ENDBRANCH  56  57
ENDBRANCH  11  56
TORSDOF 19
