REMARK  Name = DB04711
REMARK                            x       y       z     vdW  Elec       q    Type
REMARK                         _______ _______ _______ _____ _____    ______ ____
ROOT
ATOM      1  C   LIG    1       -0.077   0.135   0.135  0.00  0.00    +0.010 C 
ENDROOT
BRANCH   1   2
ATOM      2  C   LIG    1       -0.673   1.395  -0.532  0.00  0.00    +0.096 C 
BRANCH   2   5
ATOM      3  N   LIG    1       -2.738   2.602  -1.015  0.00  0.00    -0.284 N 
ATOM      4  H   LIG    1       -2.123   3.293  -1.418  0.00  0.00    +0.155 HD
ATOM      5  C   LIG    1       -2.206   1.488  -0.473  0.00  0.00    +0.217 C 
ATOM      6  O   LIG    1       -2.878   0.589   0.041  0.00  0.00    -0.275 OA
BRANCH   3  15
ATOM      7  I   LIG    1       -3.558   4.263   1.614  0.00  0.00    -0.041 I 
ATOM      8  C   LIG    1       -4.725   3.593  -0.015  0.00  0.00    +0.051 A 
ATOM      9  C   LIG    1       -6.108   3.862  -0.077  0.00  0.00    +0.087 A 
ATOM     10  C   LIG    1       -6.855   3.413  -1.181  0.00  0.00    +0.029 A 
ATOM     11  C   LIG    1       -6.228   2.712  -2.208  0.00  0.00    +0.031 A 
ATOM     12  C   LIG    1       -4.865   2.441  -2.158  0.00  0.00    +0.037 A 
ATOM     13  I   LIG    1       -4.011   1.393  -3.764  0.00  0.00    -0.042 I 
ATOM     14  I   LIG    1       -8.920   3.754  -1.384  0.00  0.00    -0.043 I 
ATOM     15  C   LIG    1       -4.112   2.871  -1.056  0.00  0.00    +0.061 A 
BRANCH   9  16
ATOM     16  C   LIG    1       -6.787   4.622   1.026  0.00  0.00    +0.339 C 
ATOM     17  O   LIG    1       -7.283   4.060   1.999  0.00  0.00    -0.245 OA
BRANCH  16  18
ATOM     18  O   LIG    1       -6.792   5.973   0.834  0.00  0.00    -0.477 OA
ATOM     19  H   LIG    1       -7.229   6.439   1.550  0.00  0.00    +0.295 HD
ENDBRANCH  16  18
ENDBRANCH   9  16
ENDBRANCH   3  15
ENDBRANCH   2   5
ENDBRANCH   1   2
BRANCH   1  20
ATOM     20  C   LIG    1        1.458   0.085   0.043  0.00  0.00    +0.010 C 
BRANCH  20  21
ATOM     21  C   LIG    1        2.055  -1.169   0.718  0.00  0.00    +0.096 C 
BRANCH  21  22
ATOM     22  C   LIG    1        3.589  -1.207   0.662  0.00  0.00    +0.217 C 
ATOM     23  N   LIG    1        4.221  -1.479   1.822  0.00  0.00    -0.284 N 
ATOM     24  H   LIG    1        3.673  -1.644   2.653  0.00  0.00    +0.155 HD
ATOM     25  O   LIG    1        4.171  -1.004  -0.406  0.00  0.00    -0.275 OA
BRANCH  23  26
ATOM     26  C   LIG    1        5.614  -1.535   1.956  0.00  0.00    +0.061 A 
ATOM     27  C   LIG    1        6.323  -0.367   2.269  0.00  0.00    +0.037 A 
ATOM     28  C   LIG    1        7.705  -0.419   2.413  0.00  0.00    +0.031 A 
ATOM     29  C   LIG    1        8.396  -1.618   2.258  0.00  0.00    +0.029 A 
ATOM     30  C   LIG    1        7.694  -2.800   1.956  0.00  0.00    +0.087 A 
ATOM     31  I   LIG    1       10.483  -1.554   2.501  0.00  0.00    -0.043 I 
ATOM     32  I   LIG    1        5.376   1.488   2.536  0.00  0.00    -0.042 I 
ATOM     33  C   LIG    1        6.292  -2.760   1.807  0.00  0.00    +0.051 A 
ATOM     34  I   LIG    1        5.193  -4.511   1.370  0.00  0.00    -0.041 I 
BRANCH  30  35
ATOM     35  C   LIG    1        8.442  -4.092   1.796  0.00  0.00    +0.339 C 
ATOM     36  O   LIG    1        8.884  -4.462   0.710  0.00  0.00    -0.245 OA
BRANCH  35  37
ATOM     37  O   LIG    1        8.575  -4.793   2.958  0.00  0.00    -0.477 OA
ATOM     38  H   LIG    1        9.056  -5.613   2.834  0.00  0.00    +0.295 HD
ENDBRANCH  35  37
ENDBRANCH  30  35
ENDBRANCH  23  26
ENDBRANCH  21  22
ENDBRANCH  20  21
ENDBRANCH   1  20
TORSDOF 11
