REMARK  Name = DB04858
REMARK                            x       y       z     vdW  Elec       q    Type
REMARK                         _______ _______ _______ _____ _____    ______ ____
ROOT
ATOM      1  C   LIG    1       -2.031   3.651  -0.019  0.00  0.00    +0.002 A 
ATOM      2  C   LIG    1       -0.636   3.690  -0.001  0.00  0.00    +0.002 A 
ATOM      3  C   LIG    1        0.103   2.506  -0.006  0.00  0.00    +0.031 A 
ATOM      4  C   LIG    1       -0.548   1.264  -0.029  0.00  0.00    +0.112 A 
ATOM      5  N   LIG    1        0.111   0.027  -0.036  0.00  0.00    -0.149 N 
ATOM      6  C   LIG    1       -0.636  -1.214  -0.060  0.00  0.00    +0.248 A 
ATOM      7  N   LIG    1       -1.921  -1.251  -0.076  0.00  0.00    -0.095 NA
ATOM      8  N   LIG    1       -2.563  -0.067  -0.070  0.00  0.00    -0.042 N 
ATOM      9  O   LIG    1       -3.957  -0.169  -0.084  0.00  0.00    -0.144 OA
ATOM     10  C   LIG    1       -1.957   1.241  -0.047  0.00  0.00    +0.133 A 
ATOM     11  C   LIG    1       -2.699   2.427  -0.042  0.00  0.00    +0.033 A 
ENDROOT
BRANCH   6  12
ATOM     12  N   LIG    1       -0.078  -2.336  -0.066  0.00  0.00    -0.325 N 
ATOM     13  H   LIG    1        0.890  -2.515  -0.055  0.00  0.00    +0.145 HD
ATOM     14  H   LIG    1       -0.837  -3.033  -0.084  0.00  0.00    +0.145 HD
ENDBRANCH   6  12
BRANCH   5  15
ATOM     15  O   LIG    1        1.492  -0.000  -0.017  0.00  0.00    -0.423 OA
ATOM     16  H   LIG    1        1.656  -0.947  -0.001  0.00  0.00    +0.326 HD
ENDBRANCH   5  15
TORSDOF 2
