REMARK  Name = DB04272
REMARK                            x       y       z     vdW  Elec       q    Type
REMARK                         _______ _______ _______ _____ _____    ______ ____
ROOT
ATOM      1  C   LIG    1        1.629   0.125  -0.077  0.00  0.00    +0.182 C 
ENDROOT
BRANCH   1   2
ATOM      2  C   LIG    1        2.301   0.920  -1.229  0.00  0.00    +0.338 C 
ATOM      3  O   LIG    1        2.159   0.645  -2.421  0.00  0.00    -0.248 OA
BRANCH   2   4
ATOM      4  O   LIG    1        3.071   1.963  -0.793  0.00  0.00    -0.479 OA
ATOM      5  H   LIG    1        3.479   2.443  -1.517  0.00  0.00    +0.295 HD
ENDBRANCH   2   4
ENDBRANCH   1   2
BRANCH   1   6
ATOM      6  O   LIG    1        1.934   0.622   1.202  0.00  0.00    -0.376 OA
ATOM      7  H   LIG    1        1.474   0.070   1.838  0.00  0.00    +0.211 HD
ENDBRANCH   1   6
BRANCH   1   8
ATOM      8  C   LIG    1        2.091  -1.353  -0.168  0.00  0.00    +0.167 C 
BRANCH   8   9
ATOM      9  C   LIG    1        3.581  -1.596   0.069  0.00  0.00    +0.308 C 
ATOM     10  O   LIG    1        4.412  -0.757   0.416  0.00  0.00    -0.251 OA
BRANCH   9  11
ATOM     11  O   LIG    1        3.876  -2.910  -0.150  0.00  0.00    -0.481 OA
ATOM     12  H   LIG    1        4.806  -3.102  -0.008  0.00  0.00    +0.295 HD
ENDBRANCH   9  11
ENDBRANCH   8   9
ENDBRANCH   1   8
BRANCH   1  13
ATOM     13  C   LIG    1        0.093   0.169  -0.283  0.00  0.00    +0.167 C 
BRANCH  13  14
ATOM     14  C   LIG    1       -0.551   1.551  -0.166  0.00  0.00    +0.308 C 
ATOM     15  O   LIG    1        0.013   2.593   0.165  0.00  0.00    -0.251 OA
BRANCH  14  16
ATOM     16  O   LIG    1       -1.877   1.470  -0.475  0.00  0.00    -0.481 OA
ATOM     17  H   LIG    1       -2.318   2.320  -0.408  0.00  0.00    +0.295 HD
ENDBRANCH  14  16
ENDBRANCH  13  14
ENDBRANCH   1  13
TORSDOF 9
