REMARK  Name = DB04885
REMARK                            x       y       z     vdW  Elec       q    Type
REMARK                         _______ _______ _______ _____ _____    ______ ____
ROOT
ATOM      1  O   LIG    1        4.112  -0.871  -0.029  0.00  0.00    -0.292 OA
ATOM      2  C   LIG    1        3.507  -0.845  -1.102  0.00  0.00    +0.170 C 
ATOM      3  C   LIG    1        4.194  -0.986  -2.385  0.00  0.00    +0.046 A 
ATOM      4  C   LIG    1        5.583  -1.241  -2.668  0.00  0.00    +0.011 A 
ATOM      5  C   LIG    1        6.748  -1.467  -1.914  0.00  0.00    +0.011 A 
ATOM      6  C   LIG    1        7.956  -1.685  -2.582  0.00  0.00    +0.001 A 
ATOM      7  C   LIG    1        8.028  -1.682  -3.976  0.00  0.00    +0.006 A 
ATOM      8  C   LIG    1        6.899  -1.460  -4.768  0.00  0.00    -0.023 A 
ATOM      9  C   LIG    1        6.837  -1.410  -6.290  0.00  0.00    +0.039 C 
ATOM     10  C   LIG    1        5.405  -1.737  -6.792  0.00  0.00    +0.026 C 
ATOM     11  C   LIG    1        4.297  -0.897  -6.092  0.00  0.00    +0.122 C 
ATOM     12  N   LIG    1        4.459  -1.010  -4.635  0.00  0.00    -0.343 N 
ATOM     13  C   LIG    1        5.702  -1.240  -4.080  0.00  0.00    +0.053 A 
ATOM     14  C   LIG    1        3.545  -0.860  -3.614  0.00  0.00    +0.030 A 
ATOM     15  C   LIG    1        2.083  -0.492  -3.807  0.00  0.00    +0.055 C 
ATOM     16  C   LIG    1        1.557   0.128  -2.492  0.00  0.00    +0.019 C 
ATOM     17  C   LIG    1        1.968  -0.653  -1.210  0.00  0.00    +0.075 C 
ENDROOT
BRANCH  17  18
ATOM     18  C   LIG    1        1.386  -0.060   0.103  0.00  0.00    +0.098 C 
BRANCH  18  19
ATOM     19  N   LIG    1       -0.074  -0.027   0.082  0.00  0.00    -0.276 NA
ATOM     20  C   LIG    1       -0.903  -1.139   0.182  0.00  0.00    +0.096 C 
ATOM     21  C   LIG    1       -2.221  -0.710   0.115  0.00  0.00    +0.093 C 
ATOM     22  N   LIG    1       -2.186   0.663  -0.027  0.00  0.00    -0.290 NA
ATOM     23  H   LIG    1       -2.997   1.262  -0.104  0.00  0.00    +0.124 HD
ATOM     24  C   LIG    1       -0.878   1.095  -0.053  0.00  0.00    +0.103 C 
ATOM     25  C   LIG    1       -0.429   2.532  -0.198  0.00  0.00    +0.048 C 
ENDBRANCH  18  19
ENDBRANCH  17  18
TORSDOF 2
