REMARK  Name = DB04339
REMARK                            x       y       z     vdW  Elec       q    Type
REMARK                         _______ _______ _______ _____ _____    ______ ____
ROOT
ATOM      1  C   UNK    1       -0.054   0.043  -0.066  0.00  0.00    +0.171 C 
ENDROOT
BRANCH   1   2
ATOM      2  N   UNK    1       -0.636  -0.590  -1.261  0.00  0.00    -0.318 NA
ATOM      3  H   UNK    1       -0.193  -0.268  -2.110  0.00  0.00    +0.119 HD
ATOM      4  H   UNK    1       -1.626  -0.409  -1.338  0.00  0.00    +0.119 HD
ENDBRANCH   1   2
BRANCH   1   5
ATOM      5  C   UNK    1       -0.678   1.445   0.057  0.00  0.00    +0.323 C 
ATOM      6  O   UNK    1       -1.524   1.711   0.908  0.00  0.00    -0.249 OA
BRANCH   5   7
ATOM      7  O   UNK    1       -0.196   2.318  -0.879  0.00  0.00    -0.480 OA
ATOM      8  H   UNK    1       -0.590   3.190  -0.802  0.00  0.00    +0.295 HD
ENDBRANCH   5   7
ENDBRANCH   1   5
BRANCH   1   9
ATOM      9  C   UNK    1        1.492   0.070  -0.055  0.00  0.00    +0.099 C 
BRANCH   9  10
ATOM     10  S   UNK    1        2.189  -1.585   0.224  0.00  0.00    -0.147 S 
BRANCH  10  11
ATOM     11  C   UNK    1        3.939  -1.246  -0.117  0.00  0.00    +0.189 C 
BRANCH  11  12
ATOM     12  C   UNK    1        4.810  -2.488   0.066  0.00  0.00    +0.315 C 
ATOM     13  O   UNK    1        5.456  -2.712   1.088  0.00  0.00    -0.250 OA
BRANCH  12  14
ATOM     14  O   UNK    1        4.767  -3.304  -1.027  0.00  0.00    -0.480 OA
ATOM     15  H   UNK    1        5.306  -4.090  -0.916  0.00  0.00    +0.295 HD
ENDBRANCH  12  14
ENDBRANCH  11  12
ENDBRANCH  10  11
ENDBRANCH   9  10
ENDBRANCH   1   9
TORSDOF 8
