REMARK  Name = DB04879
REMARK                            x       y       z     vdW  Elec       q    Type
REMARK                         _______ _______ _______ _____ _____    ______ ____
ROOT
ATOM      1  C   LIG    1        1.587   0.304   0.464  0.00  0.00    +0.153 A 
ATOM      2  C   LIG    1        2.185  -0.857   1.045  0.00  0.00    +0.026 A 
ATOM      3  C   LIG    1        1.458  -1.873   1.730  0.00  0.00    +0.012 A 
ATOM      4  C   LIG    1        2.116  -2.976   2.264  0.00  0.00    +0.001 A 
ATOM      5  C   LIG    1        3.494  -3.107   2.139  0.00  0.00    +0.001 A 
ATOM      6  C   LIG    1        4.241  -2.136   1.481  0.00  0.00    +0.010 A 
ATOM      7  C   LIG    1        3.604  -0.992   0.924  0.00  0.00    +0.009 A 
ATOM      8  C   LIG    1        4.281   0.052   0.232  0.00  0.00    +0.076 A 
ATOM      9  N   LIG    1        3.650   1.124  -0.308  0.00  0.00    -0.152 NA
ATOM     10  N   LIG    1        2.322   1.241  -0.193  0.00  0.00    -0.133 NA
ENDROOT
BRANCH   1  11
ATOM     11  N   LIG    1        0.191   0.491   0.535  0.00  0.00    -0.298 N 
ATOM     12  H   LIG    1       -0.305  -0.317   0.882  0.00  0.00    +0.154 HD
BRANCH  11  17
ATOM     13 CL   LIG    1       -3.555   4.859  -0.859  0.00  0.00    -0.084 Cl
ATOM     14  C   LIG    1       -2.447   3.600  -0.451  0.00  0.00    +0.041 A 
ATOM     15  C   LIG    1       -1.112   3.908  -0.199  0.00  0.00    +0.022 A 
ATOM     16  C   LIG    1       -0.218   2.893   0.129  0.00  0.00    +0.025 A 
ATOM     17  C   LIG    1       -0.655   1.563   0.197  0.00  0.00    +0.033 A 
ATOM     18  C   LIG    1       -2.000   1.269  -0.041  0.00  0.00    +0.025 A 
ATOM     19  C   LIG    1       -2.895   2.284  -0.370  0.00  0.00    +0.022 A 
ENDBRANCH  11  17
ENDBRANCH   1  11
BRANCH   8  20
ATOM     20  C   LIG    1        5.800   0.034   0.050  0.00  0.00    +0.093 C 
BRANCH  20  21
ATOM     21  C   LIG    1        6.280  -0.781  -1.144  0.00  0.00    -0.039 A 
ATOM     22  C   LIG    1        5.836  -0.485  -2.440  0.00  0.00    +0.023 A 
ATOM     23  C   LIG    1        6.309  -1.255  -3.504  0.00  0.00    +0.111 A 
ATOM     24  N   LIG    1        7.187  -2.278  -3.342  0.00  0.00    -0.263 NA
ATOM     25  C   LIG    1        7.614  -2.550  -2.083  0.00  0.00    +0.111 A 
ATOM     26  C   LIG    1        7.189  -1.830  -0.964  0.00  0.00    +0.023 A 
ENDBRANCH  20  21
ENDBRANCH   8  20
TORSDOF 4
