REMARK  Name = DB04873
REMARK                            x       y       z     vdW  Elec       q    Type
REMARK                         _______ _______ _______ _____ _____    ______ ____
ROOT
ATOM      1  C   LIG    1       -4.796  -0.114  -3.351  0.00  0.00    +0.250 C 
ATOM      2  N   LIG    1       -4.653  -0.653  -2.126  0.00  0.00    -0.311 N 
ATOM      3  H   LIG    1       -4.980  -1.597  -1.978  0.00  0.00    +0.149 HD
ATOM      4  O   LIG    1       -4.471   1.039  -3.636  0.00  0.00    -0.270 OA
ENDROOT
BRANCH   1  16
ATOM      5  O   LIG    1       -6.800  -2.399  -2.918  0.00  0.00    -0.477 OA
ATOM      6  C   LIG    1       -7.303  -3.734  -2.865  0.00  0.00    +0.232 C 
ATOM      7  C   LIG    1       -8.240  -3.987  -4.061  0.00  0.00    +0.063 C 
ATOM      8  C   LIG    1       -7.507  -3.800  -5.409  0.00  0.00    +0.128 C 
ATOM      9  N   LIG    1       -6.621  -2.635  -5.315  0.00  0.00    -0.311 N 
ATOM     10  C   LIG    1       -5.957  -2.013  -6.354  0.00  0.00    +0.053 A 
ATOM     11  C   LIG    1       -5.981  -2.265  -7.733  0.00  0.00    +0.026 A 
ATOM     12  C   LIG    1       -5.208  -1.439  -8.547  0.00  0.00    +0.002 A 
ATOM     13  C   LIG    1       -4.440  -0.405  -8.022  0.00  0.00    +0.001 A 
ATOM     14  C   LIG    1       -4.407  -0.159  -6.652  0.00  0.00    +0.011 A 
ATOM     15  C   LIG    1       -5.164  -0.967  -5.784  0.00  0.00    +0.016 A 
ATOM     16  C   LIG    1       -5.334  -1.003  -4.351  0.00  0.00    +0.105 A 
ATOM     17  C   LIG    1       -6.263  -2.019  -4.129  0.00  0.00    +0.209 A 
ENDBRANCH   1  16
BRANCH   2  18
ATOM     18  C   LIG    1       -4.117   0.042  -0.956  0.00  0.00    +0.108 C 
BRANCH  18  19
ATOM     19  C   LIG    1       -2.583   0.254  -0.989  0.00  0.00    +0.003 C 
ATOM     20  C   LIG    1       -2.115   1.145   0.178  0.00  0.00    -0.014 C 
ATOM     21  C   LIG    1       -0.610   1.454   0.073  0.00  0.00    -0.079 C 
ATOM     22  N   LIG    1        0.181   0.120   0.074  0.00  0.00    +0.380 N 
ATOM     23  H   LIG    1       -0.003  -0.348   0.951  0.00  0.00    -0.082 HD
ATOM     24  C   LIG    1       -0.288  -0.833  -1.056  0.00  0.00    -0.079 C 
ATOM     25  C   LIG    1       -1.802  -1.075  -0.914  0.00  0.00    -0.014 C 
BRANCH  22  26
ATOM     26  C   LIG    1        1.707   0.351  -0.050  0.00  0.00    -0.079 C 
BRANCH  26  27
ATOM     27  C   LIG    1        2.281   1.042   1.202  0.00  0.00    -0.019 C 
BRANCH  27  28
ATOM     28  C   LIG    1        3.817   1.103   1.183  0.00  0.00    -0.005 C 
ATOM     29  C   LIG    1        4.403   1.803   2.418  0.00  0.00    +0.004 C 
ENDBRANCH  27  28
ENDBRANCH  26  27
ENDBRANCH  22  26
ENDBRANCH  18  19
ENDBRANCH   2  18
TORSDOF 6
