REMARK  Name = DB04743
REMARK                            x       y       z     vdW  Elec       q    Type
REMARK                         _______ _______ _______ _____ _____    ______ ____
ROOT
ATOM      1  C   LIG    1       -0.936   1.051  -0.010  0.00  0.00    +0.153 A 
ATOM      2  C   LIG    1       -2.325   0.914  -0.106  0.00  0.00    +0.080 A 
ATOM      3  C   LIG    1       -2.927  -0.352  -0.145  0.00  0.00    +0.125 A 
ATOM      4  C   LIG    1       -2.102  -1.483  -0.076  0.00  0.00    +0.034 A 
ATOM      5  C   LIG    1       -0.718  -1.353   0.025  0.00  0.00    +0.030 A 
ATOM      6  C   LIG    1       -0.121  -0.087   0.059  0.00  0.00    +0.090 A 
ENDROOT
BRANCH   3   7
ATOM      7  N   LIG    1       -4.400  -0.490  -0.255  0.00  0.00    +0.006 N 
ATOM      8  O   LIG    1       -4.884  -1.618  -0.275  0.00  0.00    -0.130 OA
BRANCH   7   9
ATOM      9  O   LIG    1       -5.082   0.528  -0.323  0.00  0.00    -0.396 OA
ATOM     10  H   LIG    1       -4.671   1.370  -0.304  0.00  0.00    +0.329 HD
ENDBRANCH   7   9
ENDBRANCH   3   7
BRANCH   6  11
ATOM     11  N   LIG    1        1.270   0.082   0.151  0.00  0.00    -0.217 N 
ATOM     12  H   LIG    1        1.625   1.027   0.170  0.00  0.00    +0.173 HD
BRANCH  11  13
ATOM     13  S   LIG    1        2.440  -1.246   0.059  0.00  0.00    +0.040 S 
ATOM     14  O   LIG    1        2.273  -2.046   1.276  0.00  0.00    -0.155 OA
ATOM     15  C   LIG    1        4.088  -0.334   0.128  0.00  0.00    +0.218 C 
ATOM     16  O   LIG    1        2.280  -1.862  -1.263  0.00  0.00    -0.155 OA
ENDBRANCH  11  13
ENDBRANCH   6  11
BRANCH   1  17
ATOM     17  O   LIG    1       -0.376   2.310   0.035  0.00  0.00    -0.454 OA
BRANCH  17  18
ATOM     18  C   LIG    1       -0.402   3.137  -1.070  0.00  0.00    +0.129 A 
ATOM     19  C   LIG    1       -0.575   2.668  -2.382  0.00  0.00    +0.046 A 
ATOM     20  C   LIG    1       -0.568   3.560  -3.451  0.00  0.00    +0.004 A 
ATOM     21  C   LIG    1       -0.381   4.920  -3.213  0.00  0.00    +0.000 A 
ATOM     22  C   LIG    1       -0.199   5.394  -1.917  0.00  0.00    +0.004 A 
ATOM     23  C   LIG    1       -0.205   4.501  -0.849  0.00  0.00    +0.046 A 
ENDBRANCH  17  18
ENDBRANCH   1  17
TORSDOF 6
