REMARK  Name = DB04942
REMARK                            x       y       z     vdW  Elec       q    Type
REMARK                         _______ _______ _______ _____ _____    ______ ____
ROOT
ATOM      1  O   LIG    1       -0.504   2.319   0.024  0.00  0.00    -0.270 OA
ATOM      2  C   LIG    1       -0.814   1.127  -0.013  0.00  0.00    +0.248 C 
ATOM      3  N   LIG    1        0.077   0.108  -0.044  0.00  0.00    -0.281 N 
ATOM      4  H   LIG    1       -0.312  -0.818  -0.139  0.00  0.00    +0.155 HD
ENDROOT
BRANCH   3   5
ATOM      5  C   LIG    1        1.483   0.151  -0.003  0.00  0.00    +0.034 A 
ATOM      6  C   LIG    1        2.233   1.238   0.446  0.00  0.00    +0.023 A 
ATOM      7  C   LIG    1        3.620   1.166   0.445  0.00  0.00    +0.006 A 
ATOM      8  C   LIG    1        4.317   0.026   0.009  0.00  0.00    -0.038 A 
ATOM      9  C   LIG    1        3.557  -1.103  -0.414  0.00  0.00    -0.036 A 
ATOM     10  C   LIG    1        4.213  -2.413  -0.926  0.00  0.00    -0.009 C 
ATOM     11  C   LIG    1        3.551  -3.653  -0.269  0.00  0.00    +0.016 C 
ATOM     12  C   LIG    1        4.094  -2.439  -2.471  0.00  0.00    +0.016 C 
ATOM     13  C   LIG    1        5.713  -2.468  -0.530  0.00  0.00    +0.012 C 
ATOM     14  C   LIG    1        6.441  -1.146  -0.780  0.00  0.00    +0.012 C 
ATOM     15  C   LIG    1        5.867   0.025   0.061  0.00  0.00    -0.010 C 
ATOM     16  C   LIG    1        6.439   1.324  -0.566  0.00  0.00    +0.016 C 
ATOM     17  C   LIG    1        6.301  -0.147   1.538  0.00  0.00    +0.016 C 
ATOM     18  C   LIG    1        2.155  -0.998  -0.414  0.00  0.00    +0.027 A 
ENDBRANCH   3   5
BRANCH   2  19
ATOM     19  C   LIG    1       -2.274   0.720  -0.017  0.00  0.00    +0.037 A 
ATOM     20  C   LIG    1       -2.682  -0.557  -0.429  0.00  0.00    +0.014 A 
ATOM     21  C   LIG    1       -4.029  -0.908  -0.421  0.00  0.00    +0.016 A 
ATOM     22  C   LIG    1       -5.019  -0.000  -0.004  0.00  0.00    +0.059 A 
ATOM     23  C   LIG    1       -4.598   1.280   0.400  0.00  0.00    +0.016 A 
ATOM     24  C   LIG    1       -3.252   1.633   0.393  0.00  0.00    +0.014 A 
BRANCH  22  25
ATOM     25  C   LIG    1       -6.485  -0.386   0.007  0.00  0.00    +0.337 C 
ATOM     26  O   LIG    1       -6.809  -1.544  -0.351  0.00  0.00    -0.245 OA
BRANCH  25  27
ATOM     27  O   LIG    1       -7.332   0.463   0.376  0.00  0.00    -0.477 OA
ATOM     28  H   LIG    1       -8.143   0.183   0.752  0.00  0.00    +0.295 HD
ENDBRANCH  25  27
ENDBRANCH  22  25
ENDBRANCH   2  19
TORSDOF 4
