REMARK  Name = DB04845
REMARK                            x       y       z     vdW  Elec       q    Type
REMARK                         _______ _______ _______ _____ _____    ______ ____
ROOT
ATOM      1  O   LIG    1       -1.163  -2.669  -2.267  0.00  0.00    -0.365 OA
ATOM      2  C   LIG    1       -0.132  -1.845  -1.773  0.00  0.00    +0.153 C 
ATOM      3  C   LIG    1       -0.540  -0.446  -1.252  0.00  0.00    +0.061 C 
ATOM      4  C   LIG    1        0.189   0.009   0.045  0.00  0.00    +0.102 C 
ATOM      5  N   LIG    1       -0.216   1.356   0.451  0.00  0.00    -0.309 N 
ATOM      6  H   LIG    1        0.450   2.075   0.207  0.00  0.00    +0.149 HD
ATOM      7  C   LIG    1       -1.357   1.784   1.025  0.00  0.00    +0.216 C 
ATOM      8  O   LIG    1       -1.525   2.992   1.186  0.00  0.00    -0.276 OA
ATOM      9  C   LIG    1       -2.468   0.803   1.471  0.00  0.00    +0.128 C 
ATOM     10  C   LIG    1       -3.099   1.158   2.855  0.00  0.00    +0.136 C 
ATOM     11  C   LIG    1       -4.567   0.646   3.144  0.00  0.00    +0.050 C 
ATOM     12  C   LIG    1       -4.985   1.171   4.551  0.00  0.00    +0.021 C 
ATOM     13  C   LIG    1       -5.546   1.298   2.125  0.00  0.00    +0.021 C 
ATOM     14  C   LIG    1       -4.691  -0.917   3.173  0.00  0.00    +0.147 C 
ATOM     15  O   LIG    1       -3.819  -1.588   3.724  0.00  0.00    -0.296 OA
ATOM     16  C   LIG    1       -5.970  -1.618   2.627  0.00  0.00    +0.081 C 
ATOM     17  C   LIG    1       -7.096  -1.513   3.692  0.00  0.00    +0.018 C 
ATOM     18  C   LIG    1       -5.771  -3.104   2.147  0.00  0.00    +0.127 C 
ATOM     19  C   LIG    1       -4.756  -3.386   0.983  0.00  0.00    +0.015 C 
ATOM     20  C   LIG    1       -4.649  -2.225  -0.034  0.00  0.00    +0.010 C 
ATOM     21  C   LIG    1       -3.402  -3.957   1.494  0.00  0.00    +0.006 C 
ATOM     22  C   LIG    1       -2.339  -4.247   0.413  0.00  0.00    +0.003 C 
ATOM     23  C   LIG    1       -1.374  -3.064   0.213  0.00  0.00    +0.037 C 
ATOM     24  C   LIG    1       -0.545  -3.115  -1.086  0.00  0.00    +0.093 C 
ATOM     25  C   LIG    1        0.398  -4.325  -1.207  0.00  0.00    +0.044 C 
ENDROOT
BRANCH   4  26
ATOM     26  C   LIG    1        1.724  -0.069   0.030  0.00  0.00    -0.050 C 
ATOM     27  C   LIG    1        2.338  -0.255   1.416  0.00  0.00    +0.041 C 
ATOM     28  C   LIG    1        2.449   0.067  -1.109  0.00  0.00    +0.029 C 
BRANCH  28  29
ATOM     29  C   LIG    1        3.884  -0.004  -1.374  0.00  0.00    +0.071 A 
ATOM     30  C   LIG    1        4.529   0.495  -2.502  0.00  0.00    +0.074 A 
ATOM     31  S   LIG    1        6.226   0.144  -2.405  0.00  0.00    -0.080 S 
ATOM     32  C   LIG    1        5.932  -0.653  -0.892  0.00  0.00    +0.076 A 
ATOM     33  C   LIG    1        7.018  -1.310  -0.071  0.00  0.00    +0.073 C 
ATOM     34  N   LIG    1        4.674  -0.638  -0.524  0.00  0.00    -0.245 NA
ENDBRANCH  28  29
ENDBRANCH   4  26
BRANCH  10  35
ATOM     35  O   LIG    1       -2.168   0.795   3.866  0.00  0.00    -0.390 OA
ATOM     36  H   LIG    1       -2.531   1.043   4.719  0.00  0.00    +0.210 HD
ENDBRANCH  10  35
BRANCH  18  37
ATOM     37  O   LIG    1       -7.026  -3.616   1.723  0.00  0.00    -0.391 OA
ATOM     38  H   LIG    1       -7.656  -3.512   2.440  0.00  0.00    +0.210 HD
ENDBRANCH  18  37
TORSDOF 4
