REMARK  Name = DB04862
REMARK                            x       y       z     vdW  Elec       q    Type
REMARK                         _______ _______ _______ _____ _____    ______ ____
ROOT
ATOM      1  N   LIG    1        0.102   0.273   0.317  0.00  0.00    -0.269 N 
ATOM      2  H   LIG    1       -0.436  -0.569   0.460  0.00  0.00    +0.156 HD
ATOM      3  C   LIG    1       -0.592   1.427   0.255  0.00  0.00    +0.308 C 
ATOM      4  N   LIG    1       -1.916   1.168   0.267  0.00  0.00    -0.269 N 
ATOM      5  H   LIG    1       -2.186   0.208   0.420  0.00  0.00    +0.156 HD
ATOM      6  O   LIG    1       -0.092   2.552   0.213  0.00  0.00    -0.252 OA
ENDROOT
BRANCH   1  11
ATOM      7  C   LIG    1        3.788   0.717  -0.236  0.00  0.00    -0.028 A 
ATOM      8  C   LIG    1        4.235  -0.517   0.245  0.00  0.00    +0.005 A 
ATOM      9  C   LIG    1        3.323  -1.458   0.718  0.00  0.00    +0.002 A 
ATOM     10  C   LIG    1        1.960  -1.166   0.727  0.00  0.00    +0.023 A 
ATOM     11  C   LIG    1        1.496   0.074   0.276  0.00  0.00    +0.035 A 
ATOM     12  C   LIG    1        2.421   1.013  -0.212  0.00  0.00    +0.028 A 
BRANCH   7  13
ATOM     13  C   LIG    1        4.791   1.749  -0.740  0.00  0.00    +0.143 C 
BRANCH  13  15
ATOM     14  C   LIG    1        4.679   1.329  -3.212  0.00  0.00    +0.401 C 
ATOM     15  N   LIG    1        5.401   1.428  -2.031  0.00  0.00    -0.277 N 
ATOM     16  H   LIG    1        6.401   1.294  -2.068  0.00  0.00    +0.152 HD
ATOM     17  O   LIG    1        3.464   1.498  -3.341  0.00  0.00    -0.226 OA
BRANCH  14  18
ATOM     18  O   LIG    1        5.526   1.010  -4.215  0.00  0.00    -0.445 OA
BRANCH  18  22
ATOM     19  O   LIG    1        5.878  -1.226  -6.220  0.00  0.00    -0.376 OA
ATOM     20  C   LIG    1        6.610  -0.305  -7.024  0.00  0.00    +0.163 C 
ATOM     21  C   LIG    1        6.218   1.091  -6.529  0.00  0.00    +0.075 C 
ATOM     22  C   LIG    1        5.071   0.852  -5.560  0.00  0.00    +0.206 C 
ATOM     23  C   LIG    1        4.667  -0.602  -5.817  0.00  0.00    +0.204 C 
ENDBRANCH  18  22
ENDBRANCH  14  18
ENDBRANCH  13  15
ENDBRANCH   7  13
ENDBRANCH   1  11
BRANCH   4  24
ATOM     24  C   LIG    1       -2.994   2.068   0.167  0.00  0.00    +0.038 A 
ATOM     25  C   LIG    1       -4.232   1.605   0.609  0.00  0.00    +0.024 A 
ATOM     26  C   LIG    1       -5.356   2.421   0.538  0.00  0.00    +0.017 A 
ATOM     27  C   LIG    1       -5.270   3.716   0.015  0.00  0.00    +0.061 A 
ATOM     28  C   LIG    1       -4.033   4.196  -0.454  0.00  0.00    +0.133 A 
ATOM     29  C   LIG    1       -2.904   3.359  -0.376  0.00  0.00    +0.069 A 
BRANCH  27  30
ATOM     30  C   LIG    1       -6.511   4.551  -0.033  0.00  0.00    +0.158 A 
ATOM     31  C   LIG    1       -6.795   5.910  -0.094  0.00  0.00    +0.161 A 
ATOM     32  N   LIG    1       -8.095   6.132  -0.122  0.00  0.00    -0.224 NA
ATOM     33  C   LIG    1       -8.618   4.931  -0.081  0.00  0.00    +0.308 A 
ATOM     34  O   LIG    1       -7.713   3.922  -0.025  0.00  0.00    -0.442 OA
ENDBRANCH  27  30
BRANCH  28  35
ATOM     35  O   LIG    1       -3.992   5.474  -0.985  0.00  0.00    -0.494 OA
ATOM     36  C   LIG    1       -2.757   6.012  -1.445  0.00  0.00    +0.277 C 
ENDBRANCH  28  35
ENDBRANCH   4  24
TORSDOF 8
