REMARK  Name = DB04455
REMARK                            x       y       z     vdW  Elec       q    Type
REMARK                         _______ _______ _______ _____ _____    ______ ____
ROOT
ATOM      1  C   LIG    1        1.560  -0.013   0.003  0.00  0.00    +0.046 C 
ENDROOT
BRANCH   1   3
ATOM      2  C   LIG    1       -0.490   1.427  -0.002  0.00  0.00    -0.092 C 
ATOM      3  N   LIG    1       -0.005  -0.045   0.000  0.00  0.00    +0.381 N 
ATOM      4  C   LIG    1       -0.587  -0.730  -1.263  0.00  0.00    -0.092 C 
ATOM      5  C   LIG    1       -0.591  -0.728   1.262  0.00  0.00    -0.092 C 
ENDBRANCH   1   3
BRANCH   1   6
ATOM      6  C   LIG    1        2.169  -1.432   0.011  0.00  0.00    +0.288 C 
ATOM      7  O   LIG    1        2.390  -1.974  -1.095  0.00  0.00    -0.253 OA
BRANCH   6   8
ATOM      8  O   LIG    1        2.406  -1.952   1.125  0.00  0.00    -0.482 OA
ATOM      9  H   LIG    1        2.775  -2.812   1.171  0.00  0.00    +0.295 HD
ENDBRANCH   6   8
ENDBRANCH   1   6
TORSDOF 3
