REMARK  Name = DB04468
REMARK                            x       y       z     vdW  Elec       q    Type
REMARK                         _______ _______ _______ _____ _____    ______ ____
ROOT
ATOM      1  C   LIG    1        5.691  -0.025  -0.026  0.00  0.00    -0.007 C 
ATOM      2  C   LIG    1        6.375  -0.841  -0.884  0.00  0.00    -0.032 C 
ENDROOT
BRANCH   1   6
ATOM      3  C   LIG    1        1.403   0.248   0.062  0.00  0.00    +0.120 A 
ATOM      4  C   LIG    1        2.186   1.403  -0.080  0.00  0.00    +0.046 A 
ATOM      5  C   LIG    1        3.574   1.311  -0.102  0.00  0.00    +0.012 A 
ATOM      6  C   LIG    1        4.205   0.068   0.010  0.00  0.00    -0.017 A 
ATOM      7  C   LIG    1        3.422  -1.082   0.160  0.00  0.00    +0.012 A 
ATOM      8  C   LIG    1        2.034  -0.990   0.184  0.00  0.00    +0.046 A 
BRANCH   3   9
ATOM      9  O   LIG    1        0.022   0.240   0.091  0.00  0.00    -0.494 OA
BRANCH   9  10
ATOM     10  C   LIG    1       -0.690   1.468  -0.053  0.00  0.00    +0.210 C 
BRANCH  10  11
ATOM     11  C   LIG    1       -2.207   1.212   0.035  0.00  0.00    -0.038 C 
BRANCH  11  12
ATOM     12  N   LIG    1       -2.584   0.372   1.279  0.00  0.00    +0.378 N 
ATOM     13  H   LIG    1       -2.025  -0.470   1.243  0.00  0.00    -0.082 HD
ATOM     14  C   LIG    1       -4.060  -0.068   1.233  0.00  0.00    -0.096 C 
ATOM     15  C   LIG    1       -2.261   1.078   2.612  0.00  0.00    -0.096 C 
ENDBRANCH  11  12
ENDBRANCH  10  11
ENDBRANCH   9  10
ENDBRANCH   3   9
ENDBRANCH   1   6
BRANCH   1  16
ATOM     16  C   LIG    1        6.368   0.847   0.968  0.00  0.00    -0.017 A 
ATOM     17  C   LIG    1        6.128   0.669   2.336  0.00  0.00    +0.012 A 
ATOM     18  C   LIG    1        6.753   1.489   3.271  0.00  0.00    +0.046 A 
ATOM     19  C   LIG    1        7.616   2.495   2.840  0.00  0.00    +0.117 A 
ATOM     20  C   LIG    1        7.853   2.689   1.481  0.00  0.00    +0.046 A 
ATOM     21  C   LIG    1        7.227   1.868   0.547  0.00  0.00    +0.012 A 
BRANCH  19  22
ATOM     22  O   LIG    1        8.233   3.302   3.758  0.00  0.00    -0.507 OA
ATOM     23  H   LIG    1        8.004   3.083   4.664  0.00  0.00    +0.292 HD
ENDBRANCH  19  22
ENDBRANCH   1  16
BRANCH   2  24
ATOM     24  C   LIG    1        5.697  -1.633  -1.943  0.00  0.00    -0.021 A 
ATOM     25  C   LIG    1        5.835  -3.026  -1.984  0.00  0.00    +0.008 A 
ATOM     26  C   LIG    1        5.197  -3.766  -2.976  0.00  0.00    +0.001 A 
ATOM     27  C   LIG    1        4.423  -3.115  -3.933  0.00  0.00    +0.000 A 
ATOM     28  C   LIG    1        4.281  -1.730  -3.907  0.00  0.00    +0.001 A 
ATOM     29  C   LIG    1        4.919  -0.991  -2.915  0.00  0.00    +0.008 A 
ENDBRANCH   2  24
BRANCH   2  30
ATOM     30  C   LIG    1        7.902  -0.999  -0.864  0.00  0.00    +0.033 C 
ATOM     31  C   LIG    1        8.610  -0.428  -2.103  0.00  0.00    +0.009 C 
ENDBRANCH   2  30
TORSDOF 9
