REMARK  Name = DB04878
REMARK                            x       y       z     vdW  Elec       q    Type
REMARK                         _______ _______ _______ _____ _____    ______ ____
ROOT
ATOM      1  C   UNK A  0        1.670  -1.972   1.172  0.00  0.00    +0.116 C 
ATOM      2  C   UNK A  0        2.115  -2.945   0.020  0.00  0.00    +0.179 C 
ATOM      3  C   UNK A  0        1.706  -2.466  -1.404  0.00  0.00    +0.173 C 
ATOM      4  C   UNK A  0        2.145  -1.002  -1.677  0.00  0.00    +0.132 C 
ATOM      5  C   UNK A  0        1.639   0.009  -0.609  0.00  0.00    -0.037 C 
ATOM      6  C   UNK A  0        2.035  -0.498   0.807  0.00  0.00    +0.026 C 
ENDROOT
BRANCH   5   7
ATOM      7  N   SER A  1        0.094   0.076  -0.728  0.00  0.00    +0.388 N 
ATOM      8  H1  SER A  1       -0.251  -0.840  -0.472  0.00  0.00    -0.085 HD
ATOM      9  H2  SER A  1       -0.147   0.191  -1.703  0.00  0.00    -0.085 HD
BRANCH   7  10
ATOM     10  CA  SER A  1       -0.679   1.111   0.122  0.00  0.00    -0.020 C 
BRANCH  10  11
ATOM     11  C   SER A  1       -0.271   2.549  -0.284  0.00  0.00    +0.142 C 
BRANCH  11  12
ATOM     12  O   SER A  1       -0.969   3.508   0.484  0.00  0.00    -0.397 OA
ATOM     13  H   SER A  1       -0.641   3.480   1.386  0.00  0.00    +0.209 HD
ENDBRANCH  11  12
ENDBRANCH  10  11
BRANCH  10  14
ATOM     14  CB  SER A  1       -2.192   0.804   0.003  0.00  0.00    +0.142 C 
BRANCH  14  15
ATOM     15  OG  SER A  1       -2.684   0.978  -1.314  0.00  0.00    -0.397 OA
ATOM     16  H   SER A  1       -3.631   0.816  -1.312  0.00  0.00    +0.209 HD
ENDBRANCH  14  15
ENDBRANCH  10  14
ENDBRANCH   7  10
ENDBRANCH   5   7
BRANCH   1  17
ATOM     17  O   UNK A  0        0.258  -2.085   1.297  0.00  0.00    -0.384 OA
ATOM     18  H   UNK A  0        0.043  -3.012   1.433  0.00  0.00    +0.210 HD
ENDBRANCH   1  17
BRANCH   4  19
ATOM     19  O   UNK A  0        1.785  -0.587  -2.987  0.00  0.00    -0.391 OA
ATOM     20  H   UNK A  0        1.877  -1.338  -3.580  0.00  0.00    +0.210 HD
ENDBRANCH   4  19
BRANCH   3  21
ATOM     21  O   UNK A  0        2.212  -3.335  -2.406  0.00  0.00    -0.387 OA
ATOM     22  H   UNK A  0        3.171  -3.349  -2.349  0.00  0.00    +0.210 HD
ENDBRANCH   3  21
BRANCH   2  23
ATOM     23  O   UNK A  0        1.676  -4.283   0.218  0.00  0.00    -0.386 OA
ATOM     24  H   UNK A  0        2.031  -4.601   1.053  0.00  0.00    +0.210 HD
ENDBRANCH   2  23
BRANCH   1  25
ATOM     25  C   UNK A  0        2.300  -2.334   2.552  0.00  0.00    +0.193 C 
BRANCH  25  26
ATOM     26  O   UNK A  0        2.043  -3.656   2.990  0.00  0.00    -0.392 OA
ATOM     27  H   UNK A  0        2.438  -3.772   3.859  0.00  0.00    +0.210 HD
ENDBRANCH  25  26
ENDBRANCH   1  25
TORSDOF 12
