REMARK  Name = DB04972
REMARK                            x       y       z     vdW  Elec       q    Type
REMARK                         _______ _______ _______ _____ _____    ______ ____
ROOT
ATOM      1  C   UNK A  1       -2.329   1.803   0.317  0.00  0.00    +0.180 C 
ENDROOT
BRANCH   1   2
ATOM      2  N   UNK A  1       -2.838   1.156  -0.893  0.00  0.00    -0.303 N 
ATOM      3  H   UNK A  1       -2.271   1.275  -1.720  0.00  0.00    +0.149 HD
ATOM      4  C   UNK A  1       -3.979   0.450  -0.982  0.00  0.00    +0.214 C 
ATOM      5  O   UNK A  1       -4.736   0.281  -0.027  0.00  0.00    -0.276 OA
BRANCH   4   6
ATOM      6  C   UNK A  1       -4.346  -0.179  -2.338  0.00  0.00    +0.095 C 
BRANCH   6   7
ATOM      7  C   UNK A  1       -3.309  -0.003  -3.478  0.00  0.00    +0.004 C 
BRANCH   7   8
ATOM      8  C   UNK A  1       -3.682  -0.745  -4.787  0.00  0.00    +0.036 C 
BRANCH   8   9
ATOM      9  N   UNK A  1       -3.677  -2.264  -4.533  0.00  0.00    +0.387 N 
ATOM     10  H   UNK A  1       -2.755  -2.565  -4.251  0.00  0.00    -0.089 HD
ATOM     11  H   UNK A  1       -4.330  -2.491  -3.796  0.00  0.00    -0.089 HD
ATOM     12  H   UNK A  1       -3.950  -2.759  -5.370  0.00  0.00    -0.089 HD
ENDBRANCH   8   9
BRANCH   8  13
ATOM     13  C   UNK A  1       -2.696  -0.422  -5.944  0.00  0.00    +0.290 C 
ATOM     14  O   UNK A  1       -2.809   0.714  -6.455  0.00  0.00    -0.253 OA
BRANCH  13  15
ATOM     15  O   UNK A  1       -1.844  -1.265  -6.310  0.00  0.00    -0.482 OA
ATOM     16  H   UNK A  1       -1.803  -2.102  -5.892  0.00  0.00    +0.295 HD
ENDBRANCH  13  15
ENDBRANCH   8  13
ENDBRANCH   7   8
ENDBRANCH   6   7
ENDBRANCH   4   6
ENDBRANCH   1   2
BRANCH   1  17
ATOM     17  C   UNK A  1       -2.544   3.320   0.223  0.00  0.00    +0.236 C 
ATOM     18  O   UNK A  1       -2.404   3.894  -0.858  0.00  0.00    -0.274 OA
ATOM     19  N   UNK A  2       -2.839   3.937   1.381  0.00  0.00    -0.297 N 
ATOM     20  H   UNK A  2       -2.968   3.374   2.209  0.00  0.00    +0.150 HD
BRANCH  19  21
ATOM     21  C   UNK A  2       -3.103   5.383   1.559  0.00  0.00    +0.213 C 
BRANCH  21  22
ATOM     22  C   UNK A  2       -2.533   5.857   2.888  0.00  0.00    -0.017 A 
ATOM     23  C   UNK A  2       -2.607   5.061   4.042  0.00  0.00    +0.006 A 
ATOM     24  C   UNK A  2       -2.080   5.517   5.248  0.00  0.00    +0.000 A 
ATOM     25  C   UNK A  2       -1.479   6.771   5.308  0.00  0.00    +0.000 A 
ATOM     26  C   UNK A  2       -1.402   7.575   4.173  0.00  0.00    +0.000 A 
ATOM     27  C   UNK A  2       -1.930   7.119   2.969  0.00  0.00    +0.006 A 
ENDBRANCH  21  22
BRANCH  21  28
ATOM     28  C   UNK A  2       -4.616   5.801   1.336  0.00  0.00    +0.330 C 
ATOM     29  O   UNK A  2       -4.858   7.014   1.537  0.00  0.00    -0.249 OA
BRANCH  28  30
ATOM     30  O   UNK A  2       -5.415   4.912   0.952  0.00  0.00    -0.479 OA
ATOM     31  H   UNK A  2       -5.116   4.032   0.836  0.00  0.00    +0.295 HD
ENDBRANCH  28  30
ENDBRANCH  21  28
ENDBRANCH  19  21
ENDBRANCH   1  17
BRANCH   1  32
ATOM     32  C   UNK A  1       -0.831   1.496   0.523  0.00  0.00    +0.197 C 
BRANCH  32  33
ATOM     33  S   UNK A  1       -0.492  -0.329   0.895  0.00  0.00    -0.027 S 
ATOM     34  O   UNK A  1       -1.116  -0.645   2.184  0.00  0.00    -0.174 OA
ATOM     35  O   UNK A  1       -0.846  -1.115  -0.291  0.00  0.00    -0.174 OA
BRANCH  33  36
ATOM     36  C   UNK A  1        1.386  -0.402   1.138  0.00  0.00    +0.194 C 
BRANCH  36  37
ATOM     37  C   UNK A  1        2.137  -0.218  -0.191  0.00  0.00    +0.193 C 
BRANCH  37  38
ATOM     38  O   UNK A  1        1.927  -1.300  -1.089  0.00  0.00    -0.304 OA
BRANCH  38  39
ATOM     39  P   UNK A  1        2.947  -2.577  -1.127  0.00  0.00    +0.349 P 
ATOM     40  O   UNK A  1        4.375  -2.210  -0.909  0.00  0.00    -0.254 OA
BRANCH  39  41
ATOM     41  N   UNK A  1        2.267  -3.662   0.014  0.00  0.00    -0.217 NA
BRANCH  41  42
ATOM     42  C   UNK A  1        3.086  -4.166   1.126  0.00  0.00    +0.111 C 
BRANCH  42  43
ATOM     43  C   UNK A  1        3.994  -5.343   0.742  0.00  0.00    +0.124 C 
ATOM     44 CL   UNK A  1        4.914  -5.897   2.162  0.00  0.00    -0.124 Cl
ENDBRANCH  42  43
ENDBRANCH  41  42
BRANCH  41  45
ATOM     45  C   UNK A  1        0.814  -3.882   0.108  0.00  0.00    +0.111 C 
BRANCH  45  46
ATOM     46  C   UNK A  1        0.356  -5.346   0.242  0.00  0.00    +0.124 C 
ATOM     47 CL   UNK A  1        0.808  -6.313  -1.185  0.00  0.00    -0.124 Cl
ENDBRANCH  45  46
ENDBRANCH  41  45
ENDBRANCH  39  41
BRANCH  39  48
ATOM     48  N   UNK A  1        2.624  -3.323  -2.637  0.00  0.00    -0.217 NA
BRANCH  48  49
ATOM     49  C   UNK A  1        2.285  -2.464  -3.790  0.00  0.00    +0.111 C 
BRANCH  49  50
ATOM     50  C   UNK A  1        0.902  -2.717  -4.418  0.00  0.00    +0.124 C 
ATOM     51 CL   UNK A  1       -0.414  -2.483  -3.239  0.00  0.00    -0.124 Cl
ENDBRANCH  49  50
ENDBRANCH  48  49
BRANCH  48  52
ATOM     52  C   UNK A  1        3.373  -4.555  -2.953  0.00  0.00    +0.111 C 
BRANCH  52  53
ATOM     53  C   UNK A  1        2.782  -5.456  -4.051  0.00  0.00    +0.124 C 
ATOM     54 CL   UNK A  1        3.723  -6.964  -4.173  0.00  0.00    -0.124 Cl
ENDBRANCH  52  53
ENDBRANCH  48  52
ENDBRANCH  39  48
ENDBRANCH  38  39
ENDBRANCH  37  38
ENDBRANCH  36  37
ENDBRANCH  33  36
ENDBRANCH  32  33
ENDBRANCH   1  32
TORSDOF 28
