REMARK  Name = DB04909
REMARK                            x       y       z     vdW  Elec       q    Type
REMARK                         _______ _______ _______ _____ _____    ______ ____
ROOT
ATOM      1  N   LIG    1        3.936  -2.967   0.833  0.00  0.00    -0.342 N 
ATOM      2  H   LIG    1        3.339  -3.686   0.449  0.00  0.00    +0.146 HD
ENDROOT
BRANCH   1  12
ATOM      3  C   LIG    1        7.534  -2.584   1.752  0.00  0.00    +0.123 A 
ATOM      4  C   LIG    1        8.012  -3.884   1.551  0.00  0.00    +0.056 A 
ATOM      5  C   LIG    1        7.153  -4.920   1.101  0.00  0.00    +0.009 A 
ATOM      6  C   LIG    1        7.593  -6.263   0.879  0.00  0.00    -0.040 A 
ATOM      7  C   LIG    1        9.044  -6.658   1.124  0.00  0.00    +0.044 C 
ATOM      8  C   LIG    1        6.680  -7.217   0.434  0.00  0.00    +0.023 A 
ATOM      9  C   LIG    1        5.362  -6.838   0.221  0.00  0.00    +0.112 A 
ATOM     10  N   LIG    1        4.906  -5.581   0.420  0.00  0.00    -0.253 NA
ATOM     11  C   LIG    1        5.774  -4.615   0.855  0.00  0.00    +0.092 A 
ATOM     12  C   LIG    1        5.293  -3.283   1.065  0.00  0.00    +0.057 A 
ATOM     13  C   LIG    1        6.194  -2.307   1.507  0.00  0.00    +0.070 A 
BRANCH   3  14
ATOM     14  O   LIG    1        8.311  -1.528   2.188  0.00  0.00    -0.495 OA
ATOM     15  C   LIG    1        9.692  -1.742   2.459  0.00  0.00    +0.277 C 
ENDBRANCH   3  14
ENDBRANCH   1  12
BRANCH   1  16
ATOM     16  C   LIG    1        3.401  -1.616   0.937  0.00  0.00    +0.101 C 
BRANCH  16  17
ATOM     17  C   LIG    1        1.888  -1.548   0.673  0.00  0.00    +0.019 C 
BRANCH  17  18
ATOM     18  C   LIG    1        1.334  -0.114   0.722  0.00  0.00    +0.001 C 
BRANCH  18  19
ATOM     19  C   LIG    1       -0.190  -0.055   0.514  0.00  0.00    -0.002 C 
BRANCH  19  20
ATOM     20  C   LIG    1       -0.738   1.382   0.465  0.00  0.00    -0.019 C 
BRANCH  20  21
ATOM     21  C   LIG    1       -2.268   1.417   0.287  0.00  0.00    -0.079 C 
BRANCH  21  22
ATOM     22  N   LIG    1       -2.769   2.855  -0.006  0.00  0.00    +0.379 N 
ATOM     23  H   LIG    1       -2.118   3.262  -0.663  0.00  0.00    -0.082 HD
BRANCH  22  24
ATOM     24  C   LIG    1       -4.158   2.852  -0.696  0.00  0.00    -0.082 C 
ATOM     25  C   LIG    1       -4.040   2.462  -2.179  0.00  0.00    -0.017 C 
ENDBRANCH  22  24
BRANCH  22  26
ATOM     26  C   LIG    1       -2.748   3.754   1.257  0.00  0.00    -0.082 C 
ATOM     27  C   LIG    1       -2.714   5.244   0.875  0.00  0.00    -0.017 C 
ENDBRANCH  22  26
ENDBRANCH  21  22
ENDBRANCH  20  21
ENDBRANCH  19  20
ENDBRANCH  18  19
ENDBRANCH  17  18
ENDBRANCH  16  17
ENDBRANCH   1  16
TORSDOF 11
