REMARK  Name = DB04485
REMARK                            x       y       z     vdW  Elec       q    Type
REMARK                         _______ _______ _______ _____ _____    ______ ____
ROOT
ATOM      1  C1*   T A  1       -0.090  -0.237   0.276  0.00  0.00    +0.226 C 
ATOM      2  C2*   T A  1       -0.614  -0.368   1.701  0.00  0.00    +0.088 C 
ATOM      3  C3*   T A  1       -2.064   0.050   1.486  0.00  0.00    +0.150 C 
ATOM      4  C4*   T A  1       -1.978   1.109   0.368  0.00  0.00    +0.175 C 
ATOM      5  O4*   T A  1       -0.696   0.915  -0.227  0.00  0.00    -0.348 OA
ENDROOT
BRANCH   1   6
ATOM      6  N1    T A  1        1.358  -0.166   0.101  0.00  0.00    -0.274 N 
ATOM      7  C6    T A  1        2.063   0.873   0.670  0.00  0.00    +0.101 A 
ATOM      8  C5    T A  1        3.395   1.053   0.535  0.00  0.00    +0.030 A 
ATOM      9  C4    T A  1        4.140   0.088  -0.272  0.00  0.00    +0.257 A 
ATOM     10  O4    T A  1        5.353   0.120  -0.476  0.00  0.00    -0.267 OA
ATOM     11  N3    T A  1        3.352  -0.890  -0.806  0.00  0.00    -0.275 N 
ATOM     12  H3    T A  1        3.841  -1.566  -1.375  0.00  0.00    +0.173 HD
ATOM     13  C5M   T A  1        4.162   2.211   1.162  0.00  0.00    +0.051 C 
ATOM     14  C2    T A  1        2.001  -1.097  -0.695  0.00  0.00    +0.331 A 
ATOM     15  O2    T A  1        1.484  -2.051  -1.276  0.00  0.00    -0.246 OA
ENDBRANCH   1   6
BRANCH   3  16
ATOM     16  O3*   T A  1       -2.880  -1.052   1.129  0.00  0.00    -0.389 OA
ATOM     17  H3*   T A  1       -3.783  -0.744   1.024  0.00  0.00    +0.210 HD
ENDBRANCH   3  16
BRANCH   4  18
ATOM     18  C5*   T A  1       -2.099   2.581   0.822  0.00  0.00    +0.190 C 
BRANCH  18  19
ATOM     19  O5*   T A  1       -1.146   2.931   1.807  0.00  0.00    -0.392 OA
ATOM     20  H5*   T A  1       -1.265   3.857   2.032  0.00  0.00    +0.210 HD
ENDBRANCH  18  19
ENDBRANCH   4  18
TORSDOF 4
