REMARK  Name = DB04841
REMARK                            x       y       z     vdW  Elec       q    Type
REMARK                         _______ _______ _______ _____ _____    ______ ____
ROOT
ATOM      1  C   LIG    1        1.486  -0.035  -0.109  0.00  0.00    +0.117 C 
ENDROOT
BRANCH   1   6
ATOM      2  F   LIG    1        3.470   2.961  -4.502  0.00  0.00    -0.205 F 
ATOM      3  C   LIG    1        2.994   2.243  -3.459  0.00  0.00    +0.123 A 
ATOM      4  C   LIG    1        1.941   1.354  -3.656  0.00  0.00    +0.038 A 
ATOM      5  C   LIG    1        1.451   0.615  -2.583  0.00  0.00    +0.008 A 
ATOM      6  C   LIG    1        2.016   0.764  -1.310  0.00  0.00    -0.026 A 
ATOM      7  C   LIG    1        3.073   1.660  -1.123  0.00  0.00    +0.008 A 
ATOM      8  C   LIG    1        3.562   2.399  -2.196  0.00  0.00    +0.038 A 
ENDBRANCH   1   6
BRANCH   1   9
ATOM      9  C   LIG    1        2.100  -1.443  -0.118  0.00  0.00    -0.026 A 
ATOM     10  C   LIG    1        1.557  -2.465  -0.909  0.00  0.00    +0.008 A 
ATOM     11  C   LIG    1        2.124  -3.736  -0.897  0.00  0.00    +0.038 A 
ATOM     12  C   LIG    1        3.235  -3.989  -0.095  0.00  0.00    +0.123 A 
ATOM     13  C   LIG    1        3.783  -2.980   0.694  0.00  0.00    +0.038 A 
ATOM     14  F   LIG    1        3.786  -5.223  -0.083  0.00  0.00    -0.205 F 
ATOM     15  C   LIG    1        3.215  -1.708   0.683  0.00  0.00    +0.008 A 
ENDBRANCH   1   9
BRANCH   1  16
ATOM     16  N   LIG    1        0.006  -0.031  -0.005  0.00  0.00    -0.289 NA
ATOM     17  C   LIG    1       -0.483  -0.772   1.173  0.00  0.00    +0.100 C 
ATOM     18  C   LIG    1       -2.030  -0.813   1.185  0.00  0.00    +0.100 C 
ATOM     19  N   LIG    1       -2.571   0.552   1.248  0.00  0.00    -0.296 NA
ATOM     20  C   LIG    1       -2.095   1.296   0.076  0.00  0.00    +0.100 C 
ATOM     21  C   LIG    1       -0.549   1.335   0.059  0.00  0.00    +0.100 C 
BRANCH  19  22
ATOM     22  C   LIG    1       -4.036   0.535   1.281  0.00  0.00    +0.111 C 
BRANCH  22  23
ATOM     23  C   LIG    1       -4.719   0.197   2.601  0.00  0.00    -0.011 C 
ATOM     24  C   LIG    1       -4.119  -0.034   3.787  0.00  0.00    +0.005 C 
BRANCH  24  25
ATOM     25  C   LIG    1       -4.789  -0.382   5.058  0.00  0.00    -0.025 A 
ATOM     26  C   LIG    1       -6.122  -0.813   5.107  0.00  0.00    +0.008 A 
ATOM     27  C   LIG    1       -6.716  -1.123   6.328  0.00  0.00    +0.001 A 
ATOM     28  C   LIG    1       -5.982  -1.001   7.505  0.00  0.00    +0.000 A 
ATOM     29  C   LIG    1       -4.658  -0.573   7.470  0.00  0.00    +0.001 A 
ATOM     30  C   LIG    1       -4.064  -0.264   6.249  0.00  0.00    +0.008 A 
ENDBRANCH  24  25
ENDBRANCH  22  23
ENDBRANCH  19  22
ENDBRANCH   1  16
TORSDOF 6
