REMARK  Name = DB04824
REMARK                            x       y       z     vdW  Elec       q    Type
REMARK                         _______ _______ _______ _____ _____    ______ ____
ROOT
ATOM      1  O   LIG    1       -0.381   1.337   0.036  0.00  0.00    -0.440 OA
ATOM      2  C   LIG    1       -1.131   1.672  -1.040  0.00  0.00    +0.341 C 
ATOM      3  C   LIG    1       -1.297   0.456  -1.849  0.00  0.00    +0.067 A 
ATOM      4  C   LIG    1       -1.999   0.242  -3.036  0.00  0.00    +0.015 A 
ATOM      5  C   LIG    1       -2.017  -1.039  -3.593  0.00  0.00    +0.001 A 
ATOM      6  C   LIG    1       -1.343  -2.087  -2.962  0.00  0.00    +0.000 A 
ATOM      7  C   LIG    1       -0.641  -1.858  -1.777  0.00  0.00    +0.009 A 
ATOM      8  C   LIG    1       -0.611  -0.571  -1.225  0.00  0.00    +0.019 A 
ATOM      9  O   LIG    1       -1.567   2.807  -1.220  0.00  0.00    -0.245 OA
ATOM     10  C   LIG    1        0.058  -0.026   0.026  0.00  0.00    +0.190 C 
ENDROOT
BRANCH  10  11
ATOM     11  C   LIG    1       -0.466  -0.809   1.256  0.00  0.00    +0.005 A 
ATOM     12  C   LIG    1       -1.476  -0.283   2.076  0.00  0.00    +0.012 A 
ATOM     13  C   LIG    1       -1.922  -0.989   3.190  0.00  0.00    +0.046 A 
ATOM     14  C   LIG    1       -1.358  -2.224   3.498  0.00  0.00    +0.117 A 
ATOM     15  C   LIG    1       -0.350  -2.758   2.699  0.00  0.00    +0.046 A 
ATOM     16  C   LIG    1        0.095  -2.051   1.585  0.00  0.00    +0.012 A 
BRANCH  14  17
ATOM     17  O   LIG    1       -1.797  -2.918   4.594  0.00  0.00    -0.507 OA
ATOM     18  H   LIG    1       -1.345  -3.756   4.712  0.00  0.00    +0.292 HD
ENDBRANCH  14  17
ENDBRANCH  10  11
BRANCH  10  19
ATOM     19  C   LIG    1        1.606  -0.009  -0.023  0.00  0.00    +0.005 A 
ATOM     20  C   LIG    1        2.330  -0.400  -1.161  0.00  0.00    +0.012 A 
ATOM     21  C   LIG    1        3.721  -0.359  -1.163  0.00  0.00    +0.046 A 
ATOM     22  C   LIG    1        4.403   0.077  -0.030  0.00  0.00    +0.117 A 
ATOM     23  C   LIG    1        3.702   0.478   1.104  0.00  0.00    +0.046 A 
ATOM     24  C   LIG    1        2.311   0.438   1.104  0.00  0.00    +0.012 A 
BRANCH  22  25
ATOM     25  O   LIG    1        5.772   0.117  -0.032  0.00  0.00    -0.507 OA
ATOM     26  H   LIG    1        6.153  -0.171  -0.865  0.00  0.00    +0.292 HD
ENDBRANCH  22  25
ENDBRANCH  10  19
TORSDOF 4
