REMARK  Name = DB04889
REMARK                            x       y       z     vdW  Elec       q    Type
REMARK                         _______ _______ _______ _____ _____    ______ ____
ROOT
ATOM      1  N   LIG    1       -1.654  -0.161  -1.792  0.00  0.00    +0.380 N 
ATOM      2  H   LIG    1       -2.457  -0.683  -2.113  0.00  0.00    -0.086 HD
ATOM      3  H   LIG    1       -1.141   0.139  -2.609  0.00  0.00    -0.086 HD
ATOM      4  C   LIG    1       -2.040   1.065  -0.959  0.00  0.00    -0.078 C 
ATOM      5  C   LIG    1       -0.807   1.304  -0.083  0.00  0.00    -0.019 C 
ATOM      6  C   LIG    1       -0.791   0.514   1.204  0.00  0.00    +0.012 C 
ATOM      7  C   LIG    1        0.001   0.031  -0.004  0.00  0.00    -0.018 C 
ATOM      8  C   LIG    1       -0.729  -0.993  -0.892  0.00  0.00    -0.071 C 
ENDROOT
BRANCH   7   9
ATOM      9  C   LIG    1        1.521   0.025   0.001  0.00  0.00    -0.043 A 
ATOM     10  C   LIG    1        2.225   0.727  -0.979  0.00  0.00    +0.004 A 
ATOM     11  C   LIG    1        3.618   0.716  -0.976  0.00  0.00    +0.003 A 
ATOM     12  C   LIG    1        4.306   0.001   0.006  0.00  0.00    -0.050 A 
ATOM     13  C   LIG    1        5.824  -0.017   0.017  0.00  0.00    +0.044 C 
ATOM     14  C   LIG    1        3.601  -0.708   0.981  0.00  0.00    +0.003 A 
ATOM     15  C   LIG    1        2.208  -0.696   0.978  0.00  0.00    +0.004 A 
ENDBRANCH   7   9
TORSDOF 1
