REMARK  Name = DB04223
REMARK                            x       y       z     vdW  Elec       q    Type
REMARK                         _______ _______ _______ _____ _____    ______ ____
ROOT
ATOM      1  C   UNK    1        1.652  -0.049  -0.052  0.00  0.00    +0.196 C 
ENDROOT
BRANCH   1   2
ATOM      2  N   UNK    1        2.097  -1.417   0.199  0.00  0.00    -0.274 N 
ATOM      3  H   UNK    1        1.466  -2.111  -0.177  0.00  0.00    +0.258 HD
BRANCH   2   4
ATOM      4  C   UNK    1        3.487  -1.771   0.212  0.00  0.00    +0.411 C 
ATOM      5  N   UNK    1        3.974  -2.947   0.071  0.00  0.00    +0.094 NA
BRANCH   4   6
ATOM      6  N   UNK    1        4.367  -0.688   0.449  0.00  0.00    -0.287 N 
ATOM      7  H   UNK    1        4.031   0.236   0.682  0.00  0.00    +0.255 HD
ATOM      8  H   UNK    1        5.362  -0.822   0.556  0.00  0.00    +0.255 HD
ENDBRANCH   4   6
BRANCH   5   9
ATOM      9  N   UNK    1        2.968  -4.014  -0.211  0.00  0.00    +0.176 N 
ATOM     10  O   UNK    1        2.980  -4.963   0.564  0.00  0.00    -0.095 OA
BRANCH   9  11
ATOM     11  O   UNK    1        2.285  -3.916  -1.231  0.00  0.00    -0.370 OA
ATOM     12  H   UNK    1        2.345  -3.146  -1.763  0.00  0.00    +0.332 HD
ENDBRANCH   9  11
ENDBRANCH   5   9
ENDBRANCH   2   4
ENDBRANCH   1   2
BRANCH   1  13
ATOM     13  C   UNK    1        0.123   0.043   0.099  0.00  0.00    +0.036 C 
BRANCH  13  14
ATOM     14  C   UNK    1       -0.437   1.473  -0.064  0.00  0.00    -0.002 C 
BRANCH  14  15
ATOM     15  C   UNK    1       -0.175   2.154  -1.435  0.00  0.00    +0.036 C 
BRANCH  15  16
ATOM     16  N   UNK    1       -0.503   3.651  -1.301  0.00  0.00    +0.387 N 
ATOM     17  H   UNK    1       -1.476   3.772  -1.057  0.00  0.00    -0.089 HD
ATOM     18  H   UNK    1        0.066   4.064  -0.577  0.00  0.00    -0.089 HD
ATOM     19  H   UNK    1       -0.315   4.127  -2.171  0.00  0.00    -0.089 HD
ENDBRANCH  15  16
BRANCH  15  20
ATOM     20  C   UNK    1       -1.049   1.560  -2.574  0.00  0.00    +0.290 C 
ATOM     21  O   UNK    1       -0.617   0.514  -3.106  0.00  0.00    -0.253 OA
BRANCH  20  22
ATOM     22  O   UNK    1       -2.128   2.112  -2.897  0.00  0.00    -0.482 OA
ATOM     23  H   UNK    1       -2.651   1.750  -3.585  0.00  0.00    +0.295 HD
ENDBRANCH  20  22
ENDBRANCH  15  20
ENDBRANCH  14  15
ENDBRANCH  13  14
ENDBRANCH   1  13
TORSDOF 11
