REMARK  Name = DB04871
REMARK                            x       y       z     vdW  Elec       q    Type
REMARK                         _______ _______ _______ _____ _____    ______ ____
ROOT
ATOM      1  C   LIG    1       -2.897  -0.562  -0.408  0.00  0.00    +0.050 C 
ATOM      2  C   LIG    1       -2.965   0.967  -0.242  0.00  0.00    +0.085 C 
ATOM      3  N   LIG    1       -1.890   1.575   0.518  0.00  0.00    -0.315 NA
ATOM      4  H   LIG    1       -2.104   2.542   0.718  0.00  0.00    +0.122 HD
ATOM      5  C   LIG    1       -0.553   1.461  -0.035  0.00  0.00    +0.088 C 
ATOM      6  C   LIG    1        0.032   0.031  -0.060  0.00  0.00    +0.030 C 
ATOM      7  C   LIG    1        1.570   0.094   0.083  0.00  0.00    +0.014 C 
ATOM      8  C   LIG    1       -0.468  -0.828  -1.242  0.00  0.00    -0.039 A 
ATOM      9  C   LIG    1        0.418  -1.375  -2.188  0.00  0.00    +0.024 A 
ATOM     10  C   LIG    1       -0.029  -2.164  -3.244  0.00  0.00    +0.041 A 
ATOM     11 CL   LIG    1        1.096  -2.809  -4.383  0.00  0.00    -0.084 Cl
ATOM     12  C   LIG    1       -1.385  -2.431  -3.377  0.00  0.00    +0.020 A 
ATOM     13  C   LIG    1       -2.282  -1.906  -2.454  0.00  0.00    +0.005 A 
ATOM     14  C   LIG    1       -1.851  -1.109  -1.384  0.00  0.00    -0.043 A 
ENDROOT
TORSDOF 0
