REMARK  Name = DB04830
REMARK                            x       y       z     vdW  Elec       q    Type
REMARK                         _______ _______ _______ _____ _____    ______ ____
ROOT
ATOM      1  C   LIG    1       -0.482   1.612   0.072  0.00  0.00    +0.381 C 
ATOM      2  N   LIG    1        0.161   2.700   0.144  0.00  0.00    -0.130 NA
ATOM      3  H   LIG    1        1.162   2.564   0.145  0.00  0.00    +0.306 HD
ENDROOT
BRANCH   1   4
ATOM      4  N   LIG    1        0.078   0.306   0.008  0.00  0.00    -0.276 N 
ATOM      5  H   LIG    1       -0.399  -0.352  -0.591  0.00  0.00    +0.258 HD
BRANCH   4   6
ATOM      6  C   LIG    1        1.528   0.142  -0.031  0.00  0.00    +0.196 C 
BRANCH   6   7
ATOM      7  C   LIG    1        1.895  -1.349   0.035  0.00  0.00    +0.037 C 
BRANCH   7   8
ATOM      8  C   LIG    1        3.415  -1.584  -0.011  0.00  0.00    -0.000 C 
ATOM      9  C   LIG    1        3.793  -3.071   0.042  0.00  0.00    +0.004 C 
ENDBRANCH   7   8
ENDBRANCH   6   7
ENDBRANCH   4   6
ENDBRANCH   1   4
BRANCH   1  10
ATOM     10  N   LIG    1       -1.898   1.575   0.066  0.00  0.00    -0.239 N 
ATOM     11  H   LIG    1       -2.244   0.627   0.094  0.00  0.00    +0.261 HD
BRANCH  10  12
ATOM     12  C   LIG    1       -2.852   2.521   0.019  0.00  0.00    +0.256 C 
BRANCH  12  13
ATOM     13  N   LIG    1       -4.113   2.113   0.038  0.00  0.00    -0.278 NA
ATOM     14  H   LIG    1       -4.843   2.751   0.324  0.00  0.00    +0.123 HD
ATOM     15  H   LIG    1       -4.344   1.169  -0.235  0.00  0.00    +0.123 HD
ENDBRANCH  12  13
BRANCH  12  16
ATOM     16  N   LIG    1       -2.648   3.837  -0.047  0.00  0.00    -0.278 NA
ATOM     17  H   LIG    1       -1.702   4.193  -0.052  0.00  0.00    +0.123 HD
ATOM     18  H   LIG    1       -3.432   4.471  -0.102  0.00  0.00    +0.123 HD
ENDBRANCH  12  16
ENDBRANCH  10  12
ENDBRANCH   1  10
TORSDOF 8
