REMARK  Name = DB04794
REMARK                            x       y       z     vdW  Elec       q    Type
REMARK                         _______ _______ _______ _____ _____    ______ ____
ROOT
ATOM      1  C   LIG    1        0.050   0.096  -0.207  0.00  0.00    +0.148 C 
ENDROOT
BRANCH   1   2
ATOM      2  C   LIG    1       -0.541  -0.667  -1.400  0.00  0.00    -0.020 A 
ATOM      3  C   LIG    1       -1.631  -1.523  -1.202  0.00  0.00    +0.006 A 
ATOM      4  C   LIG    1       -2.164  -2.236  -2.273  0.00  0.00    +0.000 A 
ATOM      5  C   LIG    1       -1.605  -2.097  -3.541  0.00  0.00    +0.000 A 
ATOM      6  C   LIG    1       -0.519  -1.251  -3.749  0.00  0.00    +0.000 A 
ATOM      7  C   LIG    1        0.015  -0.538  -2.678  0.00  0.00    +0.006 A 
ENDBRANCH   1   2
BRANCH   1   8
ATOM      8  C   LIG    1        1.589   0.104  -0.162  0.00  0.00    -0.020 A 
ATOM      9  C   LIG    1        2.336   1.283  -0.266  0.00  0.00    +0.006 A 
ATOM     10  C   LIG    1        3.726   1.242  -0.204  0.00  0.00    +0.009 A 
ATOM     11  C   LIG    1        4.405   0.028  -0.035  0.00  0.00    -0.018 A 
ATOM     12  C   LIG    1        3.649  -1.147   0.070  0.00  0.00    +0.009 A 
ATOM     13  C   LIG    1        2.259  -1.110   0.010  0.00  0.00    +0.006 A 
BRANCH  11  14
ATOM     14  C   LIG    1        5.898  -0.013   0.035  0.00  0.00    -0.018 A 
ATOM     15  C   LIG    1        6.553  -0.951   0.847  0.00  0.00    +0.008 A 
ATOM     16  C   LIG    1        7.944  -0.989   0.916  0.00  0.00    +0.001 A 
ATOM     17  C   LIG    1        8.695  -0.086   0.171  0.00  0.00    +0.000 A 
ATOM     18  C   LIG    1        8.067   0.853  -0.642  0.00  0.00    +0.001 A 
ATOM     19  C   LIG    1        6.676   0.887  -0.708  0.00  0.00    +0.008 A 
ENDBRANCH  11  14
ENDBRANCH   1   8
BRANCH   1  20
ATOM     20  N   LIG    1       -0.588   1.404  -0.016  0.00  0.00    -0.325 N 
ATOM     21  C   LIG    1       -0.979   1.975   1.173  0.00  0.00    +0.200 A 
ATOM     22  N   LIG    1       -1.483   3.179   1.042  0.00  0.00    -0.244 NA
ATOM     23  C   LIG    1       -1.413   3.429  -0.253  0.00  0.00    +0.130 A 
ATOM     24  C   LIG    1       -0.856   2.371  -0.955  0.00  0.00    +0.107 A 
ENDBRANCH   1  20
TORSDOF 4
