REMARK  Name = DB04896
REMARK                            x       y       z     vdW  Elec       q    Type
REMARK                         _______ _______ _______ _____ _____    ______ ____
ROOT
ATOM      1  C   LIG    1       -0.072  -0.087  -0.054  0.00  0.00    +0.076 C 
ATOM      2  C   LIG    1       -0.829  -1.341   0.386  0.00  0.00    +0.027 C 
ATOM      3  C   LIG    1       -0.701  -1.029  -1.084  0.00  0.00    +0.023 C 
ENDROOT
BRANCH   1   4
ATOM      4  C   LIG    1       -0.644   1.320   0.158  0.00  0.00    -0.032 A 
ATOM      5  C   LIG    1       -0.192   2.372  -0.646  0.00  0.00    +0.004 A 
ATOM      6  C   LIG    1       -0.696   3.658  -0.470  0.00  0.00    +0.000 A 
ATOM      7  C   LIG    1       -1.655   3.893   0.512  0.00  0.00    +0.000 A 
ATOM      8  C   LIG    1       -2.116   2.854   1.316  0.00  0.00    +0.000 A 
ATOM      9  C   LIG    1       -1.613   1.568   1.139  0.00  0.00    +0.004 A 
ENDBRANCH   1   4
BRANCH   1  10
ATOM     10  C   LIG    1        1.471  -0.242   0.068  0.00  0.00    +0.226 C 
ATOM     11  O   LIG    1        2.108  -0.585  -0.932  0.00  0.00    -0.275 OA
ATOM     12  N   LIG    1        2.088  -0.002   1.259  0.00  0.00    -0.301 N 
BRANCH  12  13
ATOM     13  C   LIG    1        3.547  -0.134   1.402  0.00  0.00    +0.104 C 
ATOM     14  C   LIG    1        3.997  -1.578   1.677  0.00  0.00    +0.024 C 
ENDBRANCH  12  13
BRANCH  12  15
ATOM     15  C   LIG    1        1.383   0.329   2.507  0.00  0.00    +0.104 C 
ATOM     16  C   LIG    1        1.497   1.812   2.898  0.00  0.00    +0.024 C 
ENDBRANCH  12  15
ENDBRANCH   1  10
BRANCH   3  17
ATOM     17  C   LIG    1       -1.988  -0.652  -1.839  0.00  0.00    +0.082 C 
BRANCH  17  18
ATOM     18  N   LIG    1       -2.716  -1.850  -2.212  0.00  0.00    -0.330 NA
ATOM     19  H   LIG    1       -2.151  -2.409  -2.836  0.00  0.00    +0.118 HD
ATOM     20  H   LIG    1       -3.546  -1.596  -2.728  0.00  0.00    +0.118 HD
ENDBRANCH  17  18
ENDBRANCH   3  17
TORSDOF 6
