REMARK  Name = DB04216
REMARK                            x       y       z     vdW  Elec       q    Type
REMARK                         _______ _______ _______ _____ _____    ______ ____
ROOT
ATOM      1  C   LIG    1       -4.586  -1.863  -0.001  0.00  0.00    +0.091 A 
ATOM      2  C   LIG    1       -3.678  -2.917   0.001  0.00  0.00    +0.124 A 
ATOM      3  C   LIG    1       -2.312  -2.655   0.002  0.00  0.00    +0.092 A 
ATOM      4  C   LIG    1       -1.862  -1.337   0.002  0.00  0.00    +0.147 A 
ATOM      5  O   LIG    1       -0.492  -1.175   0.003  0.00  0.00    -0.451 OA
ATOM      6  C   LIG    1        0.014   0.084   0.001  0.00  0.00    +0.181 A 
ATOM      7  C   LIG    1       -0.733   1.209  -0.003  0.00  0.00    +0.208 A 
ATOM      8  C   LIG    1       -2.205   1.160  -0.003  0.00  0.00    +0.238 A 
ATOM      9  O   LIG    1       -2.926   2.160  -0.005  0.00  0.00    -0.283 OA
ATOM     10  C   LIG    1       -2.759  -0.247  -0.001  0.00  0.00    +0.109 A 
ATOM     11  C   LIG    1       -4.141  -0.539  -0.002  0.00  0.00    +0.135 A 
ENDROOT
BRANCH   6  12
ATOM     12  C   LIG    1        1.484   0.044  -0.001  0.00  0.00    +0.025 A 
ATOM     13  C   LIG    1        2.187   0.013  -1.209  0.00  0.00    +0.060 A 
ATOM     14  C   LIG    1        3.582  -0.047  -1.217  0.00  0.00    +0.159 A 
ATOM     15  C   LIG    1        4.285  -0.081  -0.005  0.00  0.00    +0.158 A 
ATOM     16  C   LIG    1        3.584  -0.059   1.203  0.00  0.00    +0.050 A 
ATOM     17  C   LIG    1        2.190  -0.001   1.204  0.00  0.00    +0.015 A 
BRANCH  14  18
ATOM     18  O   LIG    1        4.244  -0.074  -2.419  0.00  0.00    -0.503 OA
ATOM     19  H   LIG    1        3.654  -0.048  -3.176  0.00  0.00    +0.292 HD
ENDBRANCH  14  18
BRANCH  15  20
ATOM     20  O   LIG    1        5.656  -0.140   0.019  0.00  0.00    -0.503 OA
ATOM     21  H   LIG    1        6.016  -0.161   0.909  0.00  0.00    +0.292 HD
ENDBRANCH  15  20
ENDBRANCH   6  12
BRANCH   2  22
ATOM     22  O   LIG    1       -4.127  -4.210   0.001  0.00  0.00    -0.507 OA
ATOM     23  H   LIG    1       -3.413  -4.851   0.002  0.00  0.00    +0.292 HD
ENDBRANCH   2  22
BRANCH   7  24
ATOM     24  O   LIG    1       -0.209   2.469  -0.007  0.00  0.00    -0.501 OA
ATOM     25  H   LIG    1       -0.922   3.113  -0.008  0.00  0.00    +0.292 HD
ENDBRANCH   7  24
BRANCH  11  26
ATOM     26  O   LIG    1       -5.105   0.438  -0.003  0.00  0.00    -0.506 OA
ATOM     27  H   LIG    1       -5.996   0.082  -0.004  0.00  0.00    +0.292 HD
ENDBRANCH  11  26
TORSDOF 6
