REMARK  Name = DB04840
REMARK                            x       y       z     vdW  Elec       q    Type
REMARK                         _______ _______ _______ _____ _____    ______ ____
ROOT
ATOM      1  N   LIG    1        0.209   0.271   0.416  0.00  0.00    -0.221 N 
ATOM      2  C   LIG    1       -0.427   1.584   0.196  0.00  0.00    +0.223 C 
ATOM      3  C   LIG    1       -1.956   1.609   0.276  0.00  0.00    -0.013 A 
ATOM      4  C   LIG    1       -2.655   2.791   0.006  0.00  0.00    +0.007 A 
ATOM      5  C   LIG    1       -4.043   2.849   0.113  0.00  0.00    +0.000 A 
ATOM      6  C   LIG    1       -4.753   1.717   0.500  0.00  0.00    +0.000 A 
ATOM      7  C   LIG    1       -4.072   0.533   0.770  0.00  0.00    +0.004 A 
ATOM      8  C   LIG    1       -2.679   0.460   0.655  0.00  0.00    -0.039 A 
ATOM      9  C   LIG    1       -1.934  -0.838   0.932  0.00  0.00    +0.070 C 
ATOM     10  C   LIG    1       -0.496  -0.562   1.404  0.00  0.00    +0.192 C 
ENDROOT
BRANCH   1  11
ATOM     11  C   LIG    1        1.536   0.005  -0.070  0.00  0.00    +0.362 C 
ATOM     12  N   LIG    1        2.200   0.803  -0.789  0.00  0.00    -0.133 NA
ATOM     13  H   LIG    1        3.110   0.442  -1.036  0.00  0.00    +0.306 HD
BRANCH  11  14
ATOM     14  N   LIG    1        2.088  -1.246   0.297  0.00  0.00    -0.252 N 
ATOM     15  H   LIG    1        1.586  -1.911   0.866  0.00  0.00    +0.241 HD
ATOM     16  H   LIG    1        3.010  -1.535   0.006  0.00  0.00    +0.241 HD
ENDBRANCH  11  14
ENDBRANCH   1  11
TORSDOF 2
