REMARK  Name = DB04326
REMARK                            x       y       z     vdW  Elec       q    Type
REMARK                         _______ _______ _______ _____ _____    ______ ____
ROOT
ATOM      1  O   LIG    1        1.798   0.718   1.385  0.00  0.00    -0.279 OA
ENDROOT
BRANCH   1   2
ATOM      2  P   LIG    1        3.154  -0.349   1.786  0.00  0.00    +0.473 P 
ATOM      3  O   LIG    1        3.587   0.064   3.204  0.00  0.00    -0.228 OA
BRANCH   2   4
ATOM      4  O   LIG    1        4.234  -0.062   0.726  0.00  0.00    -0.303 OA
ATOM      5  H   LIG    1        3.913  -0.338  -0.146  0.00  0.00    +0.222 HD
ENDBRANCH   2   4
BRANCH   2   6
ATOM      6  O   LIG    1        2.625  -1.793   1.726  0.00  0.00    -0.303 OA
ATOM      7  H   LIG    1        2.366  -2.005   0.815  0.00  0.00    +0.222 HD
ENDBRANCH   2   6
ENDBRANCH   1   2
BRANCH   1   8
ATOM      8  C   LIG    1        1.214   0.818   0.089  0.00  0.00    +0.249 C 
BRANCH   8   9
ATOM      9  C   LIG    1        0.772  -0.523  -0.504  0.00  0.00    +0.184 C 
ATOM     10  O   LIG    1        1.178  -0.879  -1.612  0.00  0.00    -0.292 OA
BRANCH   9  11
ATOM     11  C   LIG    1       -0.245  -1.334   0.317  0.00  0.00    +0.232 C 
BRANCH  11  12
ATOM     12  O   LIG    1       -0.526  -2.568  -0.318  0.00  0.00    -0.387 OA
ATOM     13  H   LIG    1        0.279  -3.092  -0.316  0.00  0.00    +0.210 HD
ENDBRANCH  11  12
ENDBRANCH   9  11
ENDBRANCH   8   9
ENDBRANCH   1   8
TORSDOF 7
