REMARK  Name = DB04835
REMARK                            x       y       z     vdW  Elec       q    Type
REMARK                         _______ _______ _______ _____ _____    ______ ____
ROOT
ATOM      1  C   LIG    1        2.079  -0.380  -0.840  0.00  0.00    +0.042 C 
ENDROOT
BRANCH   1   2
ATOM      2  C   LIG    1        1.605   0.153   0.532  0.00  0.00    +0.087 C 
BRANCH   2   3
ATOM      3  N   LIG    1        0.142   0.269   0.583  0.00  0.00    -0.296 NA
ATOM      4  C   LIG    1       -0.394   0.414   1.939  0.00  0.00    +0.059 C 
ATOM      5  C   LIG    1       -0.235   1.909   2.280  0.00  0.00    +0.020 C 
ATOM      6  C   LIG    1       -0.239   2.607   0.914  0.00  0.00    +0.020 C 
ATOM      7  C   LIG    1       -1.876  -0.048   1.874  0.00  0.00    +0.044 C 
ATOM      8  C   LIG    1       -2.709   0.741   0.817  0.00  0.00    +0.093 C 
ATOM      9  C   LIG    1       -1.874   1.136  -0.438  0.00  0.00    +0.044 C 
ATOM     10  C   LIG    1       -0.393   1.454  -0.098  0.00  0.00    +0.059 C 
BRANCH   8  11
ATOM     11  N   LIG    1       -3.898  -0.035   0.418  0.00  0.00    -0.312 N 
ATOM     12  C   LIG    1       -3.995  -1.260  -0.230  0.00  0.00    +0.136 A 
ATOM     13  N   LIG    1       -5.255  -1.593  -0.397  0.00  0.00    -0.134 NA
ATOM     14  N   LIG    1       -6.035  -0.583   0.148  0.00  0.00    -0.135 NA
ATOM     15  C   LIG    1       -5.217   0.322   0.621  0.00  0.00    +0.131 A 
ATOM     16  C   LIG    1       -5.674   1.595   1.303  0.00  0.00    +0.088 C 
BRANCH  12  17
ATOM     17  C   LIG    1       -2.833  -2.132  -0.709  0.00  0.00    +0.051 C 
ATOM     18  C   LIG    1       -2.879  -3.530  -0.063  0.00  0.00    +0.015 C 
ATOM     19  C   LIG    1       -2.808  -2.239  -2.246  0.00  0.00    +0.015 C 
ENDBRANCH  12  17
ENDBRANCH   8  11
ENDBRANCH   2   3
ENDBRANCH   1   2
BRANCH   1  20
ATOM     20  C   LIG    1        1.544  -1.791  -1.229  0.00  0.00    +0.104 C 
BRANCH  20  21
ATOM     21  C   LIG    1        1.863  -2.241  -2.662  0.00  0.00    -0.027 A 
ATOM     22  C   LIG    1        2.810  -1.587  -3.462  0.00  0.00    +0.005 A 
ATOM     23  C   LIG    1        3.052  -2.024  -4.762  0.00  0.00    +0.000 A 
ATOM     24  C   LIG    1        2.346  -3.112  -5.269  0.00  0.00    +0.000 A 
ATOM     25  C   LIG    1        1.400  -3.768  -4.487  0.00  0.00    +0.000 A 
ATOM     26  C   LIG    1        1.158  -3.332  -3.188  0.00  0.00    +0.005 A 
ENDBRANCH  20  21
BRANCH  20  27
ATOM     27  N   LIG    1        1.977  -2.818  -0.272  0.00  0.00    -0.308 N 
ATOM     28  H   LIG    1        2.931  -3.133  -0.374  0.00  0.00    +0.149 HD
ATOM     29  C   LIG    1        1.253  -3.314   0.748  0.00  0.00    +0.217 C 
ATOM     30  O   LIG    1        0.103  -2.951   0.998  0.00  0.00    -0.275 OA
BRANCH  29  31
ATOM     31  C   LIG    1        1.938  -4.386   1.623  0.00  0.00    +0.075 C 
ATOM     32  C   LIG    1        1.970  -3.873   3.086  0.00  0.00    +0.018 C 
ATOM     33  C   LIG    1        2.663  -4.926   3.981  0.00  0.00    +0.076 C 
ATOM     34  C   LIG    1        2.006  -6.324   3.886  0.00  0.00    +0.249 C 
ATOM     35  F   LIG    1        2.716  -7.233   4.554  0.00  0.00    -0.206 F 
ATOM     36  F   LIG    1        0.808  -6.231   4.468  0.00  0.00    -0.206 F 
ATOM     37  C   LIG    1        1.762  -6.773   2.424  0.00  0.00    +0.076 C 
ATOM     38  C   LIG    1        1.087  -5.680   1.564  0.00  0.00    +0.018 C 
ENDBRANCH  29  31
ENDBRANCH  20  27
ENDBRANCH   1  20
TORSDOF 8
