REMARK  Name = DB04832
REMARK                            x       y       z     vdW  Elec       q    Type
REMARK                         _______ _______ _______ _____ _____    ______ ____
ROOT
ATOM      1  C   LIG    1       -0.691   1.148   0.067  0.00  0.00    -0.012 C 
ATOM      2  C   LIG    1       -0.009  -0.021   0.133  0.00  0.00    -0.003 C 
ENDROOT
BRANCH   1   3
ATOM      3  C   LIG    1       -2.181   1.144   0.060  0.00  0.00    -0.017 A 
ATOM      4  C   LIG    1       -2.895   2.082   0.819  0.00  0.00    +0.009 A 
ATOM      5  C   LIG    1       -4.287   2.075   0.827  0.00  0.00    +0.016 A 
ATOM      6  C   LIG    1       -4.977   1.126   0.077  0.00  0.00    +0.018 A 
ATOM      7  C   LIG    1       -4.284   0.183  -0.677  0.00  0.00    +0.016 A 
ATOM      8 BR   LIG    1       -6.880   1.117   0.085  0.00  0.00    -0.050 Br
ATOM      9  C   LIG    1       -2.892   0.191  -0.684  0.00  0.00    +0.009 A 
ENDBRANCH   1   3
BRANCH   1  10
ATOM     10  C   LIG    1       -0.031   2.480  -0.006  0.00  0.00    +0.001 A 
ATOM     11  C   LIG    1        0.995   2.851   0.876  0.00  0.00    +0.011 A 
ATOM     12  C   LIG    1        1.583   4.113   0.778  0.00  0.00    +0.020 A 
ATOM     13  C   LIG    1        1.122   4.985  -0.209  0.00  0.00    +0.111 A 
ATOM     14  N   LIG    1        0.129   4.659  -1.073  0.00  0.00    -0.263 NA
ATOM     15  C   LIG    1       -0.429   3.427  -0.960  0.00  0.00    +0.119 A 
ENDBRANCH   1  10
BRANCH   2  16
ATOM     16  C   LIG    1        1.498  -0.233   0.079  0.00  0.00    +0.111 C 
BRANCH  16  17
ATOM     17  N   LIG    1        1.928  -1.202  -0.930  0.00  0.00    -0.305 NA
ATOM     18  C   LIG    1        3.311  -1.604  -0.692  0.00  0.00    +0.104 C 
ATOM     19  C   LIG    1        1.807  -0.644  -2.275  0.00  0.00    +0.104 C 
ENDBRANCH  16  17
ENDBRANCH   2  16
TORSDOF 4
