REMARK  Name = DB04258
REMARK                            x       y       z     vdW  Elec       q    Type
REMARK                         _______ _______ _______ _____ _____    ______ ____
ROOT
ATOM      1  C   LIG    1        6.030  -2.389   0.385  0.00  0.00    -0.022 C 
ATOM      2  C   LIG    1        6.667  -1.150  -0.321  0.00  0.00    +0.012 C 
ATOM      3  C   LIG    1        6.777  -2.735   1.705  0.00  0.00    +0.008 C 
ATOM      4  C   LIG    1        8.239  -3.159   1.439  0.00  0.00    +0.005 C 
ATOM      5  C   LIG    1        8.348  -4.324   0.424  0.00  0.00    +0.031 C 
ATOM      6  C   LIG    1        7.527  -4.048  -0.848  0.00  0.00    -0.066 C 
ATOM      7  C   LIG    1        7.987  -4.132  -2.118  0.00  0.00    -0.000 C 
ATOM      8  C   LIG    1        4.478  -2.228   0.532  0.00  0.00    +0.002 C 
ATOM      9  C   LIG    1        3.905  -2.695  -0.839  0.00  0.00    +0.005 C 
ATOM     10  C   LIG    1        5.025  -3.443  -1.576  0.00  0.00    +0.009 C 
ATOM     11  C   LIG    1        6.081  -3.670  -0.491  0.00  0.00    +0.021 C 
ENDROOT
BRANCH   7  12
ATOM     12  C   LIG    1        9.346  -4.474  -2.523  0.00  0.00    +0.004 C 
ATOM     13  C   LIG    1        9.766  -4.718  -3.787  0.00  0.00    -0.040 C 
ATOM     14  C   LIG    1       11.236  -5.016  -4.078  0.00  0.00    +0.067 C 
ATOM     15  C   LIG    1       11.738  -4.110  -5.228  0.00  0.00    +0.122 C 
ATOM     16  C   LIG    1       10.817  -4.170  -6.472  0.00  0.00    +0.067 C 
ATOM     17  C   LIG    1        9.332  -3.870  -6.148  0.00  0.00    +0.147 C 
ATOM     18  C   LIG    1        8.893  -4.731  -4.964  0.00  0.00    -0.023 C 
ATOM     19  C   LIG    1        7.789  -5.501  -5.024  0.00  0.00    +0.015 C 
BRANCH  15  20
ATOM     20  O   LIG    1       13.069  -4.434  -5.573  0.00  0.00    -0.391 OA
ATOM     21  H   LIG    1       13.090  -5.339  -5.892  0.00  0.00    +0.210 HD
ENDBRANCH  15  20
BRANCH  17  22
ATOM     22  O   LIG    1        9.146  -2.499  -5.851  0.00  0.00    -0.387 OA
ATOM     23  H   LIG    1        8.203  -2.321  -5.817  0.00  0.00    +0.210 HD
ENDBRANCH  17  22
ENDBRANCH   7  12
BRANCH   8  24
ATOM     24  C   LIG    1        3.911  -0.844   0.991  0.00  0.00    +0.012 C 
ATOM     25  C   LIG    1        4.439  -0.383   2.362  0.00  0.00    +0.012 C 
BRANCH  24  26
ATOM     26  C   LIG    1        2.387  -0.844   1.003  0.00  0.00    -0.023 C 
ATOM     27  C   LIG    1        1.611  -0.035   0.259  0.00  0.00    -0.004 C 
BRANCH  27  28
ATOM     28  C   LIG    1        0.163  -0.070   0.302  0.00  0.00    -0.002 C 
ATOM     29  C   LIG    1       -0.610   0.760  -0.428  0.00  0.00    +0.007 C 
BRANCH  29  30
ATOM     30  C   LIG    1       -2.141   0.827  -0.473  0.00  0.00    +0.084 C 
BRANCH  30  31
ATOM     31  C   LIG    1       -2.629   0.517  -1.917  0.00  0.00    +0.035 C 
ATOM     32  C   LIG    1       -4.154   0.468  -2.138  0.00  0.00    +0.007 C 
ENDBRANCH  30  31
BRANCH  30  33
ATOM     33  C   LIG    1       -2.654   2.210   0.019  0.00  0.00    +0.035 C 
ATOM     34  C   LIG    1       -2.199   2.626   1.433  0.00  0.00    +0.007 C 
ENDBRANCH  30  33
BRANCH  30  35
ATOM     35  O   LIG    1       -2.688  -0.167   0.383  0.00  0.00    -0.385 OA
ATOM     36  H   LIG    1       -3.645  -0.116   0.333  0.00  0.00    +0.211 HD
ENDBRANCH  30  35
ENDBRANCH  29  30
ENDBRANCH  27  28
ENDBRANCH  24  26
ENDBRANCH   8  24
TORSDOF 10
