REMARK  Name = DB04630
REMARK                            x       y       z     vdW  Elec       q    Type
REMARK                         _______ _______ _______ _____ _____    ______ ____
ROOT
ATOM      1  C   LIG    1       -3.948  -2.686   1.334  0.00  0.00    +0.008 C 
ATOM      2  C   LIG    1       -4.758  -3.486   2.369  0.00  0.00    +0.032 C 
ATOM      3  C   LIG    1       -4.797  -2.668   3.656  0.00  0.00    -0.060 C 
ATOM      4  C   LIG    1       -3.402  -2.433   4.298  0.00  0.00    -0.005 C 
ATOM      5  C   LIG    1       -2.765  -3.819   4.623  0.00  0.00    +0.016 C 
ATOM      6  C   LIG    1       -2.591  -1.577   3.238  0.00  0.00    +0.031 C 
ATOM      7  C   LIG    1       -1.168  -1.080   3.695  0.00  0.00    +0.120 C 
ATOM      8  C   LIG    1       -0.370  -0.309   2.598  0.00  0.00    +0.046 C 
ATOM      9  C   LIG    1       -0.398  -0.938   1.171  0.00  0.00    +0.041 C 
ATOM     10  C   LIG    1       -0.101   0.009  -0.039  0.00  0.00    +0.071 C 
ATOM     11  C   LIG    1       -0.765  -0.679  -1.267  0.00  0.00    +0.012 C 
ATOM     12  C   LIG    1       -1.887  -1.575  -0.694  0.00  0.00    +0.005 C 
ATOM     13  C   LIG    1       -1.862  -1.300   0.823  0.00  0.00    +0.006 C 
ATOM     14  C   LIG    1       -3.585  -1.691   5.668  0.00  0.00    +0.019 C 
ATOM     15  C   LIG    1       -4.676  -0.604   5.693  0.00  0.00    +0.080 C 
ATOM     16  C   LIG    1       -6.016  -1.177   5.224  0.00  0.00    +0.156 C 
ATOM     17  O   LIG    1       -7.091  -0.791   5.679  0.00  0.00    -0.293 OA
ATOM     18  C   LIG    1       -5.941  -2.100   4.103  0.00  0.00    +0.046 C 
ATOM     19  C   LIG    1       -2.537  -2.272   1.827  0.00  0.00    -0.000 C 
ENDROOT
BRANCH   7  20
ATOM     20  O   LIG    1       -0.352  -2.114   4.204  0.00  0.00    -0.391 OA
ATOM     21  H   LIG    1       -0.815  -2.538   4.930  0.00  0.00    +0.210 HD
ENDBRANCH   7  20
BRANCH   9  22
ATOM     22  C   LIG    1        0.513  -2.212   1.113  0.00  0.00    +0.231 C 
ATOM     23  O   LIG    1        1.469  -2.379   1.870  0.00  0.00    -0.300 OA
ENDBRANCH   9  22
BRANCH  10  24
ATOM     24  C   LIG    1        1.385   0.395  -0.256  0.00  0.00    +0.162 C 
ATOM     25  O   LIG    1        2.098  -0.214  -1.058  0.00  0.00    -0.295 OA
BRANCH  24  26
ATOM     26  C   LIG    1        1.894   1.606   0.543  0.00  0.00    +0.230 C 
BRANCH  26  27
ATOM     27  O   LIG    1        3.247   1.885   0.226  0.00  0.00    -0.388 OA
ATOM     28  H   LIG    1        3.538   2.632   0.753  0.00  0.00    +0.210 HD
ENDBRANCH  26  27
ENDBRANCH  24  26
ENDBRANCH  10  24
TORSDOF 5
