REMARK  Name = DB04851
REMARK                            x       y       z     vdW  Elec       q    Type
REMARK                         _______ _______ _______ _____ _____    ______ ____
ROOT
ATOM      1  C   LIG    1       -0.513   1.673   0.198  0.00  0.00    +0.328 C 
ATOM      2  O   LIG    1       -0.025   2.783   0.426  0.00  0.00    -0.249 OA
ENDROOT
BRANCH   1   3
ATOM      3  C   LIG    1       -2.023   1.462  -0.080  0.00  0.00    +0.185 C 
ATOM      4  C   LIG    1       -2.296   0.759  -1.445  0.00  0.00    +0.034 C 
ATOM      5  C   LIG    1       -2.187   1.676  -2.679  0.00  0.00    +0.004 C 
ATOM      6  C   LIG    1       -2.975   2.980  -2.480  0.00  0.00    +0.019 C 
ATOM      7  C   LIG    1       -2.567   3.687  -1.175  0.00  0.00    +0.109 C 
ATOM      8  N   LIG    1       -2.808   2.732  -0.059  0.00  0.00    -0.281 N 
ATOM      9  C   LIG    1       -3.781   2.880   0.891  0.00  0.00    +0.288 C 
ATOM     10  O   LIG    1       -4.083   2.051   1.751  0.00  0.00    -0.266 OA
BRANCH   9  11
ATOM     11  C   LIG    1       -4.527   4.274   0.923  0.00  0.00    +0.248 C 
ATOM     12  O   LIG    1       -5.619   4.336   0.355  0.00  0.00    -0.282 OA
BRANCH  11  13
ATOM     13  C   LIG    1       -3.880   5.417   1.659  0.00  0.00    +0.034 A 
ATOM     14  C   LIG    1       -2.601   5.323   2.229  0.00  0.00    +0.061 A 
ATOM     15  C   LIG    1       -2.016   6.408   2.899  0.00  0.00    +0.166 A 
ATOM     16  C   LIG    1       -2.737   7.604   3.006  0.00  0.00    +0.204 A 
ATOM     17  C   LIG    1       -4.010   7.732   2.438  0.00  0.00    +0.166 A 
ATOM     18  C   LIG    1       -4.569   6.632   1.768  0.00  0.00    +0.061 A 
BRANCH  17  19
ATOM     19  O   LIG    1       -4.643   8.955   2.578  0.00  0.00    -0.491 OA
ATOM     20  C   LIG    1       -5.942   9.140   2.027  0.00  0.00    +0.277 C 
ENDBRANCH  17  19
BRANCH  16  21
ATOM     21  O   LIG    1       -2.175   8.679   3.653  0.00  0.00    -0.488 OA
ATOM     22  C   LIG    1       -2.441   8.718   5.048  0.00  0.00    +0.277 C 
ENDBRANCH  16  21
BRANCH  15  23
ATOM     23  O   LIG    1       -0.756   6.375   3.470  0.00  0.00    -0.491 OA
ATOM     24  C   LIG    1        0.030   5.192   3.368  0.00  0.00    +0.277 C 
ENDBRANCH  15  23
ENDBRANCH  11  13
ENDBRANCH   9  11
ENDBRANCH   1   3
BRANCH   1  25
ATOM     25  O   LIG    1        0.172   0.503   0.196  0.00  0.00    -0.460 OA
BRANCH  25  26
ATOM     26  C   LIG    1        1.579   0.442   0.443  0.00  0.00    +0.177 C 
BRANCH  26  27
ATOM     27  C   LIG    1        1.907   0.661   1.946  0.00  0.00    +0.045 C 
BRANCH  27  28
ATOM     28  C   LIG    1        1.311  -0.391   2.909  0.00  0.00    +0.008 C 
BRANCH  28  29
ATOM     29  C   LIG    1        1.790  -0.244   4.366  0.00  0.00    +0.037 C 
BRANCH  29  30
ATOM     30  C   LIG    1        3.273  -0.546   4.542  0.00  0.00    -0.029 A 
ATOM     31  C   LIG    1        3.739  -1.866   4.545  0.00  0.00    +0.114 A 
ATOM     32  N   LIG    1        5.051  -2.188   4.678  0.00  0.00    -0.263 NA
ATOM     33  C   LIG    1        5.941  -1.172   4.814  0.00  0.00    +0.111 A 
ATOM     34  C   LIG    1        5.563   0.172   4.824  0.00  0.00    +0.020 A 
ATOM     35  C   LIG    1        4.209   0.484   4.687  0.00  0.00    +0.006 A 
ENDBRANCH  29  30
ENDBRANCH  28  29
ENDBRANCH  27  28
ENDBRANCH  26  27
BRANCH  26  36
ATOM     36  C   LIG    1        2.075  -0.906  -0.132  0.00  0.00    +0.045 C 
BRANCH  36  37
ATOM     37  C   LIG    1        3.597  -1.140  -0.009  0.00  0.00    +0.008 C 
BRANCH  37  38
ATOM     38  C   LIG    1        4.061  -2.517  -0.521  0.00  0.00    +0.037 C 
BRANCH  38  39
ATOM     39  C   LIG    1        3.539  -3.677   0.316  0.00  0.00    -0.029 A 
ATOM     40  C   LIG    1        4.094  -3.961   1.569  0.00  0.00    +0.114 A 
ATOM     41  N   LIG    1        3.651  -4.969   2.364  0.00  0.00    -0.263 NA
ATOM     42  C   LIG    1        2.626  -5.732   1.906  0.00  0.00    +0.111 A 
ATOM     43  C   LIG    1        2.017  -5.522   0.667  0.00  0.00    +0.020 A 
ATOM     44  C   LIG    1        2.484  -4.479  -0.135  0.00  0.00    +0.006 A 
ENDBRANCH  38  39
ENDBRANCH  37  38
ENDBRANCH  36  37
ENDBRANCH  26  36
ENDBRANCH  25  26
ENDBRANCH   1  25
TORSDOF 16
