REMARK  Name = DB04881
REMARK                            x       y       z     vdW  Elec       q    Type
REMARK                         _______ _______ _______ _____ _____    ______ ____
ROOT
ATOM      1  C   LIG    1        2.253  -1.676   0.211  0.00  0.00    -0.049 A 
ATOM      2  C   LIG    1        2.817  -2.069  -1.004  0.00  0.00    +0.005 A 
ATOM      3  C   LIG    1        3.379  -3.336  -1.135  0.00  0.00    +0.023 A 
ATOM      4  C   LIG    1        3.384  -4.218  -0.043  0.00  0.00    +0.034 A 
ATOM      5  C   LIG    1        2.803  -3.825   1.165  0.00  0.00    +0.023 A 
ATOM      6  C   LIG    1        2.244  -2.556   1.294  0.00  0.00    +0.005 A 
ENDROOT
BRANCH   4   7
ATOM      7  N   LIG    1        3.915  -5.520  -0.084  0.00  0.00    -0.281 N 
ATOM      8  H   LIG    1        3.577  -6.136   0.641  0.00  0.00    +0.155 HD
ATOM      9  C   LIG    1        4.841  -6.035  -0.926  0.00  0.00    +0.250 C 
ATOM     10  O   LIG    1        5.409  -5.381  -1.803  0.00  0.00    -0.270 OA
BRANCH   9  11
ATOM     11  C   LIG    1        5.157  -7.512  -0.728  0.00  0.00    +0.061 A 
ATOM     12  C   LIG    1        5.035  -8.072   0.555  0.00  0.00    +0.015 A 
ATOM     13  C   LIG    1        5.326  -9.409   0.793  0.00  0.00    +0.002 A 
ATOM     14  C   LIG    1        5.748 -10.225  -0.248  0.00  0.00    +0.014 A 
ATOM     15  C   LIG    1        5.886  -9.718  -1.546  0.00  0.00    +0.046 A 
ATOM     16  C   LIG    1        6.342 -10.628  -2.648  0.00  0.00    +0.197 A 
ATOM     17  C   LIG    1        6.463 -10.004  -4.002  0.00  0.00    +0.049 A 
ATOM     18  C   LIG    1        6.898 -10.761  -5.098  0.00  0.00    +0.014 A 
ATOM     19  C   LIG    1        7.014 -10.184  -6.359  0.00  0.00    +0.004 A 
ATOM     20  C   LIG    1        6.695  -8.842  -6.547  0.00  0.00    +0.048 A 
ATOM     21  C   LIG    1        6.255  -8.052  -5.472  0.00  0.00    +0.144 A 
ATOM     22  C   LIG    1        6.145  -8.645  -4.202  0.00  0.00    +0.093 A 
ATOM     23  N   LIG    1        5.714  -7.868  -3.109  0.00  0.00    -0.351 N 
ATOM     24  H   LIG    1        5.502  -6.895  -3.276  0.00  0.00    +0.166 HD
ATOM     25  O   LIG    1        6.605 -11.817  -2.452  0.00  0.00    -0.287 OA
ATOM     26  C   LIG    1        5.588  -8.355  -1.787  0.00  0.00    +0.063 A 
BRANCH  21  27
ATOM     27  O   LIG    1        5.922  -6.713  -5.594  0.00  0.00    -0.493 OA
ATOM     28  C   LIG    1        6.028  -6.075  -6.862  0.00  0.00    +0.277 C 
ENDBRANCH  21  27
ENDBRANCH   9  11
ENDBRANCH   4   7
BRANCH   1  29
ATOM     29  C   LIG    1        1.640  -0.291   0.354  0.00  0.00    +0.016 C 
BRANCH  29  30
ATOM     30  C   LIG    1        0.101  -0.329   0.268  0.00  0.00    -0.074 C 
BRANCH  30  37
ATOM     31  C   LIG    1       -4.815   0.167   2.588  0.00  0.00    +0.162 A 
ATOM     32  C   LIG    1       -4.190   0.414   3.814  0.00  0.00    +0.162 A 
ATOM     33  C   LIG    1       -2.852   0.834   3.825  0.00  0.00    +0.053 A 
ATOM     34  C   LIG    1       -2.124   1.015   2.646  0.00  0.00    -0.044 A 
ATOM     35  C   LIG    1       -2.758   0.787   1.407  0.00  0.00    -0.057 A 
ATOM     36  C   LIG    1       -2.052   1.026   0.065  0.00  0.00    -0.043 C 
ATOM     37  N   LIG    1       -0.513   1.095   0.214  0.00  0.00    +0.383 N 
ATOM     38  H   LIG    1       -0.158   1.535  -0.623  0.00  0.00    -0.081 HD
ATOM     39  C   LIG    1       -0.124   2.011   1.397  0.00  0.00    -0.074 C 
ATOM     40  C   LIG    1       -0.656   1.428   2.719  0.00  0.00    +0.017 C 
ATOM     41  C   LIG    1       -4.089   0.358   1.403  0.00  0.00    +0.051 A 
BRANCH  31  42
ATOM     42  O   LIG    1       -6.134  -0.253   2.625  0.00  0.00    -0.491 OA
ATOM     43  C   LIG    1       -6.820  -0.522   1.407  0.00  0.00    +0.277 C 
ENDBRANCH  31  42
BRANCH  32  44
ATOM     44  O   LIG    1       -4.946   0.222   4.958  0.00  0.00    -0.491 OA
ATOM     45  C   LIG    1       -4.364   0.467   6.234  0.00  0.00    +0.277 C 
ENDBRANCH  32  44
ENDBRANCH  30  37
ENDBRANCH  29  30
ENDBRANCH   1  29
TORSDOF 8
