REMARK  Name = DB04957
REMARK                            x       y       z     vdW  Elec       q    Type
REMARK                         _______ _______ _______ _____ _____    ______ ____
ROOT
ATOM      1  N   LIG    1        1.992  -1.491  -0.201  0.00  0.00    -0.223 N 
ATOM      2  C   LIG    1        2.505  -2.180   0.851  0.00  0.00    +0.331 C 
ATOM      3  O   LIG    1        2.483  -1.846   2.039  0.00  0.00    -0.250 OA
ATOM      4  N   LIG    1        3.002  -3.315   0.318  0.00  0.00    -0.168 N 
ATOM      5  C   LIG    1        2.680  -3.466  -1.089  0.00  0.00    +0.232 C 
ATOM      6  C   LIG    1        2.058  -2.130  -1.387  0.00  0.00    +0.242 C 
ATOM      7  O   LIG    1        1.708  -1.734  -2.498  0.00  0.00    -0.273 OA
ENDROOT
BRANCH   4   8
ATOM      8  N   LIG    1        3.714  -4.188   1.105  0.00  0.00    -0.180 NA
ATOM      9  C   LIG    1        3.967  -5.358   0.665  0.00  0.00    +0.176 C 
BRANCH   9  10
ATOM     10  C   LIG    1        4.718  -6.306   1.472  0.00  0.00    +0.148 A 
ATOM     11  O   LIG    1        4.870  -7.561   0.970  0.00  0.00    -0.454 OA
ATOM     12  C   LIG    1        5.587  -8.300   1.861  0.00  0.00    +0.136 A 
ATOM     13  C   LIG    1        5.903  -7.499   2.951  0.00  0.00    +0.050 A 
ATOM     14  C   LIG    1        5.353  -6.242   2.706  0.00  0.00    +0.051 A 
BRANCH  12  15
ATOM     15  C   LIG    1        5.867  -9.725   1.515  0.00  0.00    +0.017 A 
ATOM     16  C   LIG    1        5.353 -10.295   0.345  0.00  0.00    +0.013 A 
ATOM     17  C   LIG    1        5.620 -11.627   0.038  0.00  0.00    +0.021 A 
ATOM     18  C   LIG    1        6.403 -12.392   0.901  0.00  0.00    +0.041 A 
ATOM     19 CL   LIG    1        6.732 -14.043   0.522  0.00  0.00    -0.084 Cl
ATOM     20  C   LIG    1        6.920 -11.833   2.068  0.00  0.00    +0.021 A 
ATOM     21  C   LIG    1        6.652 -10.502   2.374  0.00  0.00    +0.013 A 
ENDBRANCH  12  15
ENDBRANCH   9  10
ENDBRANCH   4   8
BRANCH   1  22
ATOM     22  C   LIG    1        1.536  -0.098  -0.087  0.00  0.00    +0.118 C 
BRANCH  22  23
ATOM     23  C   LIG    1        0.010   0.025   0.082  0.00  0.00    +0.021 C 
BRANCH  23  24
ATOM     24  C   LIG    1       -0.454   1.484   0.245  0.00  0.00    +0.017 C 
BRANCH  24  25
ATOM     25  C   LIG    1       -1.982   1.704   0.250  0.00  0.00    +0.084 C 
BRANCH  25  31
ATOM     26  C   LIG    1       -6.846   0.952   0.180  0.00  0.00    -0.096 C 
ATOM     27  N   LIG    1       -5.546   0.746   0.982  0.00  0.00    +0.379 N 
ATOM     28  H   LIG    1       -5.760   0.278   1.852  0.00  0.00    -0.082 HD
ATOM     29  C   LIG    1       -4.551  -0.132   0.191  0.00  0.00    -0.064 C 
ATOM     30  C   LIG    1       -3.248  -0.285   1.019  0.00  0.00    +0.066 C 
ATOM     31  N   LIG    1       -2.636   1.007   1.366  0.00  0.00    -0.306 NA
ATOM     32  C   LIG    1       -3.591   1.834   2.116  0.00  0.00    +0.066 C 
ATOM     33  C   LIG    1       -4.888   2.104   1.316  0.00  0.00    -0.064 C 
ENDBRANCH  25  31
ENDBRANCH  24  25
ENDBRANCH  23  24
ENDBRANCH  22  23
ENDBRANCH   1  22
TORSDOF 8
