REMARK  Name = DB04570
REMARK                            x       y       z     vdW  Elec       q    Type
REMARK                         _______ _______ _______ _____ _____    ______ ____
ROOT
ATOM      1  C   LIG    1        0.077  -0.467   0.265  0.00  0.00    +0.258 C 
ATOM      2  C   LIG    1       -0.560  -1.227  -0.944  0.00  0.00    +0.273 C 
ATOM      3  O   LIG    1        0.221  -2.153  -1.665  0.00  0.00    -0.349 OA
ATOM      4  C   LIG    1       -0.599  -3.067  -2.419  0.00  0.00    +0.196 C 
ATOM      5  C   LIG    1       -1.602  -3.792  -1.504  0.00  0.00    -0.006 C 
ATOM      6  C   LIG    1       -1.931  -3.206  -0.317  0.00  0.00    +0.125 C 
ATOM      7  N   LIG    1       -1.367  -2.006   0.020  0.00  0.00    -0.230 N 
ATOM      8  C   LIG    1       -0.708  -1.530   1.162  0.00  0.00    +0.277 C 
ATOM      9  O   LIG    1       -0.690  -1.878   2.342  0.00  0.00    -0.270 OA
ENDROOT
BRANCH   1  10
ATOM     10  N   LIG    1        1.521  -0.573   0.281  0.00  0.00    -0.276 N 
ATOM     11  H   LIG    1        1.958  -0.546  -0.629  0.00  0.00    +0.152 HD
ATOM     12  C   LIG    1        2.356  -0.568   1.343  0.00  0.00    +0.234 C 
ATOM     13  O   LIG    1        1.965  -0.509   2.510  0.00  0.00    -0.274 OA
BRANCH  12  14
ATOM     14  C   LIG    1        3.866  -0.704   1.015  0.00  0.00    +0.213 C 
BRANCH  14  15
ATOM     15  C   LIG    1        4.758  -0.256   2.191  0.00  0.00    -0.025 A 
ATOM     16  C   LIG    1        5.327   1.023   2.171  0.00  0.00    +0.008 A 
ATOM     17  C   LIG    1        6.111   1.462   3.234  0.00  0.00    +0.046 A 
ATOM     18  C   LIG    1        6.320   0.627   4.330  0.00  0.00    +0.117 A 
ATOM     19  C   LIG    1        5.747  -0.643   4.371  0.00  0.00    +0.046 A 
ATOM     20  C   LIG    1        4.964  -1.082   3.307  0.00  0.00    +0.008 A 
BRANCH  18  21
ATOM     21  O   LIG    1        7.091   1.058   5.377  0.00  0.00    -0.507 OA
ATOM     22  H   LIG    1        7.435   1.944   5.248  0.00  0.00    +0.292 HD
ENDBRANCH  18  21
ENDBRANCH  14  15
BRANCH  14  23
ATOM     23  C   LIG    1        4.289  -2.094   0.474  0.00  0.00    +0.321 C 
ATOM     24  O   LIG    1        3.550  -3.077   0.421  0.00  0.00    -0.250 OA
BRANCH  23  25
ATOM     25  O   LIG    1        5.588  -2.091   0.051  0.00  0.00    -0.480 OA
ATOM     26  H   LIG    1        5.866  -2.946  -0.283  0.00  0.00    +0.295 HD
ENDBRANCH  23  25
ENDBRANCH  14  23
ENDBRANCH  12  14
ENDBRANCH   1  10
BRANCH   1  27
ATOM     27  O   LIG    1       -0.442   0.835   0.382  0.00  0.00    -0.348 OA
ATOM     28  C   LIG    1       -0.211   1.557   1.588  0.00  0.00    +0.197 C 
ENDBRANCH   1  27
BRANCH   6  29
ATOM     29  C   LIG    1       -2.853  -3.814   0.633  0.00  0.00    +0.351 C 
ATOM     30  O   LIG    1       -2.842  -5.003   0.948  0.00  0.00    -0.244 OA
BRANCH  29  31
ATOM     31  O   LIG    1       -3.747  -2.917   1.147  0.00  0.00    -0.476 OA
ATOM     32  H   LIG    1       -4.347  -3.322   1.777  0.00  0.00    +0.295 HD
ENDBRANCH  29  31
ENDBRANCH   6  29
BRANCH   5  33
ATOM     33  C   LIG    1       -2.196  -5.081  -2.074  0.00  0.00    +0.112 C 
BRANCH  33  34
ATOM     34  S   LIG    1       -1.067  -6.508  -1.972  0.00  0.00    -0.080 S 
BRANCH  34  35
ATOM     35  C   LIG    1       -1.944  -7.520  -0.820  0.00  0.00    +0.209 A 
ATOM     36  N   LIG    1       -3.234  -7.764  -0.848  0.00  0.00    -0.102 NA
ATOM     37  N   LIG    1       -3.488  -8.612   0.225  0.00  0.00    -0.022 NA
ATOM     38  N   LIG    1       -2.315  -8.882   0.901  0.00  0.00    -0.043 NA
ATOM     39  N   LIG    1       -1.382  -8.183   0.248  0.00  0.00    -0.223 N 
ATOM     40  C   LIG    1        0.009  -8.262   0.664  0.00  0.00    +0.177 C 
ENDBRANCH  34  35
ENDBRANCH  33  34
ENDBRANCH   5  33
TORSDOF 12
