REMARK  Name = DB04817
REMARK                            x       y       z     vdW  Elec       q    Type
REMARK                         _______ _______ _______ _____ _____    ______ ____
ROOT
ATOM      1  C   LIG    1        0.091  -0.181  -0.190  0.00  0.00    +0.152 C 
ATOM      2  C   LIG    1       -0.744  -1.217   0.018  0.00  0.00    +0.088 C 
ATOM      3  C   LIG    1       -0.478  -2.683   0.315  0.00  0.00    +0.034 C 
ATOM      4  N   LIG    1       -2.039  -0.744  -0.098  0.00  0.00    -0.213 NA
ATOM      5  C   LIG    1       -2.971  -1.021   1.000  0.00  0.00    +0.129 C 
ATOM      6  N   LIG    1       -1.967   0.618  -0.389  0.00  0.00    -0.200 N 
ATOM      7  C   LIG    1       -0.680   1.017  -0.469  0.00  0.00    +0.258 C 
ATOM      8  O   LIG    1       -0.262   2.146  -0.737  0.00  0.00    -0.272 OA
ENDROOT
BRANCH   6   9
ATOM      9  C   LIG    1       -3.107   1.399  -0.698  0.00  0.00    +0.053 A 
ATOM     10  C   LIG    1       -3.247   2.692  -0.175  0.00  0.00    +0.025 A 
ATOM     11  C   LIG    1       -4.376   3.449  -0.478  0.00  0.00    +0.002 A 
ATOM     12  C   LIG    1       -5.364   2.915  -1.301  0.00  0.00    +0.000 A 
ATOM     13  C   LIG    1       -5.236   1.631  -1.825  0.00  0.00    +0.002 A 
ATOM     14  C   LIG    1       -4.109   0.872  -1.524  0.00  0.00    +0.025 A 
ENDBRANCH   6   9
BRANCH   1  15
ATOM     15  N   LIG    1        1.474  -0.192  -0.175  0.00  0.00    -0.268 NA
ATOM     16  C   LIG    1        2.256   0.226  -1.335  0.00  0.00    +0.107 C 
BRANCH  15  17
ATOM     17  C   LIG    1        2.195  -0.137   1.097  0.00  0.00    +0.285 C 
BRANCH  17  18
ATOM     18  S   LIG    1        2.209   1.625   1.806  0.00  0.00    +0.093 S 
ATOM     19  O   LIG    1        0.889   1.939   2.362  0.00  0.00    -0.146 OA
ATOM     20  O   LIG    1        2.886   2.535   0.875  0.00  0.00    -0.146 OA
BRANCH  18  21
ATOM     21  O   LIG    1        3.236   1.341   3.079  0.00  0.00    -0.253 OA
ATOM     22  H   LIG    1        2.780   0.850   3.789  0.00  0.00    +0.245 HD
ENDBRANCH  18  21
ENDBRANCH  17  18
ENDBRANCH  15  17
ENDBRANCH   1  15
TORSDOF 5
