REMARK  Name = DB04866
REMARK                            x       y       z     vdW  Elec       q    Type
REMARK                         _______ _______ _______ _____ _____    ______ ____
ROOT
ATOM      1  C   LIG    1        2.441  -0.965   1.611  0.00  0.00    +0.200 C 
ENDROOT
BRANCH   1   2
ATOM      2  N   LIG    1        3.648  -1.539   0.959  0.00  0.00    -0.292 N 
ATOM      3  C   LIG    1        3.472  -2.254  -0.217  0.00  0.00    +0.262 A 
ATOM      4  O   LIG    1        2.374  -2.442  -0.749  0.00  0.00    -0.267 OA
ATOM      5  C   LIG    1        4.772  -2.804  -0.779  0.00  0.00    +0.066 A 
ATOM      6  C   LIG    1        5.958  -2.583  -0.067  0.00  0.00    +0.079 A 
ATOM      7  N   LIG    1        5.966  -1.871   1.142  0.00  0.00    -0.237 NA
ATOM      8  C   LIG    1        7.165  -3.084  -0.554  0.00  0.00    +0.045 A 
ATOM      9  C   LIG    1        7.190  -3.808  -1.749  0.00  0.00    +0.038 A 
ATOM     10 BR   LIG    1        8.862  -4.474  -2.380  0.00  0.00    -0.049 Br
ATOM     11  C   LIG    1        6.001  -4.033  -2.459  0.00  0.00    +0.056 A 
ATOM     12 CL   LIG    1        5.998  -4.928  -3.938  0.00  0.00    -0.082 Cl
ATOM     13  C   LIG    1        4.791  -3.532  -1.973  0.00  0.00    +0.036 A 
ATOM     14  C   LIG    1        4.866  -1.394   1.600  0.00  0.00    +0.203 A 
ENDBRANCH   1   2
BRANCH   1  15
ATOM     15  C   LIG    1        1.785   0.175   0.804  0.00  0.00    +0.152 C 
ATOM     16  O   LIG    1        2.458   0.966   0.141  0.00  0.00    -0.296 OA
BRANCH  15  17
ATOM     17  C   LIG    1        0.251   0.239   0.833  0.00  0.00    +0.063 C 
BRANCH  17  23
ATOM     18  C   LIG    1       -2.617   3.562   0.608  0.00  0.00    -0.017 C 
ATOM     19  C   LIG    1       -2.682   2.440  -0.441  0.00  0.00    -0.082 C 
ATOM     20  N   LIG    1       -1.858   1.234   0.046  0.00  0.00    +0.383 N 
ATOM     21  H   LIG    1       -1.893   0.511  -0.659  0.00  0.00    -0.085 HD
ATOM     22  H   LIG    1       -2.282   0.848   0.878  0.00  0.00    -0.085 HD
ATOM     23  C   LIG    1       -0.379   1.570   0.341  0.00  0.00    -0.036 C 
ATOM     24  C   LIG    1       -0.310   2.760   1.350  0.00  0.00    +0.101 C 
ATOM     25  C   LIG    1       -1.170   3.972   0.930  0.00  0.00    +0.028 C 
BRANCH  24  26
ATOM     26  O   LIG    1        1.014   3.189   1.594  0.00  0.00    -0.393 OA
ATOM     27  H   LIG    1        1.220   3.914   0.998  0.00  0.00    +0.210 HD
ENDBRANCH  24  26
ENDBRANCH  17  23
ENDBRANCH  15  17
ENDBRANCH   1  15
TORSDOF 5
