REMARK  Name = DB04948
REMARK                            x       y       z     vdW  Elec       q    Type
REMARK                         _______ _______ _______ _____ _____    ______ ____
ROOT
ATOM      1  O   LIG    1       -0.061   0.061  -0.125  0.00  0.00    -0.474 OA
ENDROOT
BRANCH   1   9
ATOM      2 CL   LIG    1       -0.129   1.287   2.648  0.00  0.00    -0.080 Cl
ATOM      3  C   LIG    1       -0.771   1.969   1.194  0.00  0.00    +0.084 A 
ATOM      4  C   LIG    1       -1.405   3.211   1.260  0.00  0.00    +0.024 A 
ATOM      5  C   LIG    1       -1.971   3.773   0.117  0.00  0.00    +0.003 A 
ATOM      6  C   LIG    1       -1.915   3.089  -1.095  0.00  0.00    +0.024 A 
ATOM      7  C   LIG    1       -1.283   1.847  -1.171  0.00  0.00    +0.084 A 
ATOM      8 CL   LIG    1       -1.249   1.016  -2.687  0.00  0.00    -0.080 Cl
ATOM      9  C   LIG    1       -0.686   1.288  -0.031  0.00  0.00    +0.158 A 
ENDBRANCH   1   9
BRANCH   1  10
ATOM     10  C   LIG    1        1.376   0.028  -0.111  0.00  0.00    +0.284 C 
ATOM     11  C   LIG    1        1.768  -1.459   0.006  0.00  0.00    +0.065 C 
BRANCH  10  12
ATOM     12  C   LIG    1        2.009   0.709  -1.338  0.00  0.00    +0.322 C 
ATOM     13  N   LIG    1        2.496   0.150  -2.373  0.00  0.00    -0.080 NA
ATOM     14  C   LIG    1        2.945   1.190  -3.265  0.00  0.00    +0.333 C 
ATOM     15  C   LIG    1        2.890   2.495  -2.483  0.00  0.00    +0.273 C 
ATOM     16  N   LIG    1        2.129   2.081  -1.337  0.00  0.00    -0.231 N 
ATOM     17  H   LIG    1        2.264   2.712  -0.560  0.00  0.00    +0.291 HD
ENDBRANCH  10  12
ENDBRANCH   1  10
TORSDOF 3
