REMARK  Name = DB04960
REMARK                            x       y       z     vdW  Elec       q    Type
REMARK                         _______ _______ _______ _____ _____    ______ ____
ROOT
ATOM      1  C   LIG    1        1.434  -0.032   0.206  0.00  0.00    -0.021 A 
ATOM      2  C   LIG    1        2.100   1.125   0.636  0.00  0.00    +0.008 A 
ATOM      3  C   LIG    1        3.490   1.175   0.702  0.00  0.00    +0.027 A 
ATOM      4  C   LIG    1        4.269   0.059   0.356  0.00  0.00    +0.052 A 
ATOM      5  C   LIG    1        3.614  -1.128  -0.032  0.00  0.00    +0.007 A 
ATOM      6  C   LIG    1        4.458  -2.304  -0.389  0.00  0.00    -0.004 A 
ATOM      7  C   LIG    1        5.804  -2.157  -0.380  0.00  0.00    +0.079 A 
ATOM      8  C   LIG    1        6.518  -0.952   0.004  0.00  0.00    +0.252 A 
ATOM      9  O   LIG    1        7.750  -0.927  -0.012  0.00  0.00    -0.268 OA
ATOM     10  N   LIG    1        5.701   0.085   0.376  0.00  0.00    -0.311 N 
ATOM     11  C   LIG    1        6.357   1.338   0.798  0.00  0.00    +0.152 C 
ATOM     12  C   LIG    1        2.216  -1.152  -0.114  0.00  0.00    +0.016 A 
ENDROOT
BRANCH   6  13
ATOM     13  C   LIG    1        3.882  -3.617  -0.780  0.00  0.00    -0.016 A 
ATOM     14  C   LIG    1        2.937  -4.258   0.034  0.00  0.00    +0.008 A 
ATOM     15  C   LIG    1        2.398  -5.492  -0.330  0.00  0.00    +0.002 A 
ATOM     16  C   LIG    1        2.808  -6.110  -1.510  0.00  0.00    +0.020 A 
ATOM     17  C   LIG    1        3.760  -5.495  -2.323  0.00  0.00    +0.042 A 
ATOM     18 CL   LIG    1        4.274  -6.262  -3.781  0.00  0.00    -0.084 Cl
ATOM     19  C   LIG    1        4.297  -4.260  -1.956  0.00  0.00    +0.028 A 
ENDBRANCH   6  13
BRANCH   1  20
ATOM     20  C   LIG    1       -0.122  -0.084   0.131  0.00  0.00    +0.090 C 
BRANCH  20  25
ATOM     21 CL   LIG    1       -2.779  -0.919   5.543  0.00  0.00    -0.084 Cl
ATOM     22  C   LIG    1       -2.019  -0.680   4.012  0.00  0.00    +0.041 A 
ATOM     23  C   LIG    1       -0.638  -0.812   3.897  0.00  0.00    +0.020 A 
ATOM     24  C   LIG    1       -0.024  -0.622   2.662  0.00  0.00    +0.007 A 
ATOM     25  C   LIG    1       -0.780  -0.291   1.524  0.00  0.00    -0.021 A 
ATOM     26  C   LIG    1       -2.174  -0.168   1.665  0.00  0.00    +0.007 A 
ATOM     27  C   LIG    1       -2.789  -0.360   2.898  0.00  0.00    +0.020 A 
ENDBRANCH  20  25
BRANCH  20  28
ATOM     28  C   LIG    1       -0.608  -1.180  -0.851  0.00  0.00    +0.089 C 
ATOM     29  C   LIG    1       -1.307  -2.370  -0.602  0.00  0.00    +0.099 C 
ATOM     30  N   LIG    1       -1.482  -3.051  -1.787  0.00  0.00    -0.293 NA
ATOM     31  H   LIG    1       -1.947  -3.942  -1.896  0.00  0.00    +0.124 HD
ATOM     32  C   LIG    1       -0.906  -2.319  -2.791  0.00  0.00    +0.157 C 
ATOM     33  N   LIG    1       -0.371  -1.172  -2.239  0.00  0.00    -0.277 NA
ATOM     34  C   LIG    1        0.345  -0.164  -3.013  0.00  0.00    +0.107 C 
ENDBRANCH  20  28
BRANCH  20  35
ATOM     35  N   LIG    1       -0.601   1.200  -0.380  0.00  0.00    -0.316 NA
ATOM     36  H   LIG    1       -0.291   1.937   0.237  0.00  0.00    +0.119 HD
ATOM     37  H   LIG    1       -1.611   1.216  -0.348  0.00  0.00    +0.119 HD
ENDBRANCH  20  35
ENDBRANCH   1  20
TORSDOF 5
