REMARK  Name = DB04970
REMARK                            x       y       z     vdW  Elec       q    Type
REMARK                         _______ _______ _______ _____ _____    ______ ____
ROOT
ATOM      1  N   LIG    1       -0.437   0.538  -0.214  0.00  0.00    +0.382 N 
ATOM      2  H   LIG    1       -0.196   0.864   0.712  0.00  0.00    -0.082 HD
ATOM      3  C   LIG    1        0.074   1.565  -1.251  0.00  0.00    -0.060 C 
ATOM      4  C   LIG    1       -0.605   2.928  -0.984  0.00  0.00    +0.089 C 
ATOM      5  N   LIG    1       -2.075   2.858  -1.098  0.00  0.00    -0.303 N 
ATOM      6  C   LIG    1       -2.551   1.895  -0.084  0.00  0.00    +0.089 C 
ATOM      7  C   LIG    1       -1.978   0.478  -0.310  0.00  0.00    -0.060 C 
ENDROOT
BRANCH   5   8
ATOM      8  C   LIG    1       -2.756   3.097  -2.297  0.00  0.00    +0.218 A 
ATOM      9  N   LIG    1       -4.066   2.720  -2.374  0.00  0.00    -0.223 NA
ATOM     10  C   LIG    1       -4.731   3.012  -3.523  0.00  0.00    +0.116 A 
ATOM     11  C   LIG    1       -4.126   3.683  -4.586  0.00  0.00    +0.039 A 
ATOM     12  C   LIG    1       -2.790   4.049  -4.418  0.00  0.00    +0.116 A 
ATOM     13  N   LIG    1       -2.096   3.771  -3.283  0.00  0.00    -0.223 NA
ENDBRANCH   5   8
BRANCH   1  14
ATOM     14  C   LIG    1        0.162  -0.872  -0.431  0.00  0.00    -0.079 C 
BRANCH  14  15
ATOM     15  C   LIG    1        1.664  -0.898  -0.098  0.00  0.00    -0.017 C 
BRANCH  15  16
ATOM     16  C   LIG    1        2.244  -2.326  -0.121  0.00  0.00    +0.021 C 
BRANCH  16  17
ATOM     17  C   LIG    1        3.760  -2.405   0.168  0.00  0.00    +0.143 C 
BRANCH  17  22
ATOM     18 CL   LIG    1        5.783   0.547   4.032  0.00  0.00    -0.080 Cl
ATOM     19  C   LIG    1        4.939  -0.625   3.102  0.00  0.00    +0.078 A 
ATOM     20  C   LIG    1        4.101  -1.648   3.561  0.00  0.00    +0.154 A 
ATOM     21  N   LIG    1        3.603  -2.379   2.589  0.00  0.00    -0.178 NA
ATOM     22  N   LIG    1        4.112  -1.844   1.470  0.00  0.00    -0.270 N 
ATOM     23  C   LIG    1        4.931  -0.774   1.727  0.00  0.00    +0.128 A 
ENDBRANCH  17  22
ENDBRANCH  16  17
ENDBRANCH  15  16
ENDBRANCH  14  15
ENDBRANCH   1  14
TORSDOF 6
