REMARK  Name = DB04952
REMARK                            x       y       z     vdW  Elec       q    Type
REMARK                         _______ _______ _______ _____ _____    ______ ____
ROOT
ATOM      1  C   LIG    1        9.517  -0.149   7.830  0.00  0.00    +0.209 C 
ATOM      2  C   LIG    1       10.743   0.225   6.943  0.00  0.00    +0.238 C 
ATOM      3  O   LIG    1       11.807   0.302   7.555  0.00  0.00    -0.274 OA
ATOM      4  N   LIG    1       10.776   0.424   5.601  0.00  0.00    -0.299 N 
ATOM      5  H   LIG    1       11.724   0.596   5.298  0.00  0.00    +0.150 HD
ATOM      6  C   LIG    1        9.890   0.579   4.425  0.00  0.00    +0.190 C 
ATOM      7  C   LIG    1        8.484  -0.079   4.350  0.00  0.00    +0.238 C 
ATOM      8  O   LIG    1        8.297  -1.203   4.806  0.00  0.00    -0.273 OA
ATOM      9  N   LIG    1        7.547   0.608   3.679  0.00  0.00    -0.302 N 
ATOM     10  H   LIG    1        7.812   1.505   3.297  0.00  0.00    +0.150 HD
ATOM     11  C   LIG    1        6.139   0.276   3.476  0.00  0.00    +0.159 C 
ATOM     12  C   LIG    1        5.407   1.597   3.180  0.00  0.00    +0.234 C 
ATOM     13  O   LIG    1        6.047   2.555   2.736  0.00  0.00    -0.274 OA
ATOM     14  N   LIG    1        4.094   1.637   3.476  0.00  0.00    -0.300 N 
ATOM     15  H   LIG    1        3.648   0.803   3.832  0.00  0.00    +0.150 HD
ATOM     16  C   LIG    1        3.232   2.831   3.438  0.00  0.00    +0.187 C 
ATOM     17  C   LIG    1        3.371   3.676   2.156  0.00  0.00    +0.237 C 
ATOM     18  O   LIG    1        3.367   3.120   1.060  0.00  0.00    -0.274 OA
ATOM     19  N   LIG    1        3.508   5.001   2.328  0.00  0.00    -0.299 N 
ATOM     20  H   LIG    1        3.483   5.382   3.264  0.00  0.00    +0.150 HD
ATOM     21  C   LIG    1        3.603   5.988   1.237  0.00  0.00    +0.190 C 
ATOM     22  C   LIG    1        2.200   6.455   0.773  0.00  0.00    +0.239 C 
ATOM     23  O   LIG    1        1.955   6.525  -0.433  0.00  0.00    -0.273 OA
ATOM     24  N   LIG    1        1.313   6.761   1.739  0.00  0.00    -0.299 N 
ATOM     25  H   LIG    1        1.586   6.643   2.705  0.00  0.00    +0.150 HD
ATOM     26  C   LIG    1       -0.048   7.273   1.533  0.00  0.00    +0.190 C 
ATOM     27  C   LIG    1       -0.933   6.977   2.769  0.00  0.00    +0.239 C 
ATOM     28  O   LIG    1       -0.427   6.680   3.853  0.00  0.00    -0.273 OA
ATOM     29  N   LIG    1       -2.256   7.125   2.577  0.00  0.00    -0.300 N 
ATOM     30  H   LIG    1       -2.596   7.383   1.662  0.00  0.00    +0.150 HD
ATOM     31  C   LIG    1       -3.282   7.019   3.618  0.00  0.00    +0.187 C 
ATOM     32  C   LIG    1       -3.470   5.598   4.203  0.00  0.00    +0.236 C 
ATOM     33  O   LIG    1       -3.836   5.490   5.372  0.00  0.00    -0.274 OA
ATOM     34  N   LIG    1       -3.205   4.554   3.397  0.00  0.00    -0.302 N 
ATOM     35  H   LIG    1       -2.895   4.728   2.452  0.00  0.00    +0.150 HD
ATOM     36  C   LIG    1       -3.421   3.150   3.748  0.00  0.00    +0.163 C 
ATOM     37  C   LIG    1       -4.287   2.412   2.708  0.00  0.00    +0.234 C 
ATOM     38  O   LIG    1       -5.301   1.848   3.115  0.00  0.00    -0.274 OA
ATOM     39  N   LIG    1       -3.985   2.411   1.395  0.00  0.00    -0.302 N 
ATOM     40  H   LIG    1       -4.639   1.938   0.787  0.00  0.00    +0.150 HD
ATOM     41  C   LIG    1       -2.776   2.854   0.700  0.00  0.00    +0.159 C 
ATOM     42  C   LIG    1       -2.297   1.695  -0.191  0.00  0.00    +0.234 C 
ATOM     43  O   LIG    1       -3.110   1.074  -0.876  0.00  0.00    -0.274 OA
ATOM     44  N   LIG    1       -0.975   1.447  -0.181  0.00  0.00    -0.299 N 
ATOM     45  H   LIG    1       -0.388   1.980   0.445  0.00  0.00    +0.150 HD
ATOM     46  C   LIG    1       -0.299   0.336  -0.882  0.00  0.00    +0.190 C 
ATOM     47  C   LIG    1       -0.457  -1.023  -0.134  0.00  0.00    +0.239 C 
ATOM     48  O   LIG    1       -0.409  -2.071  -0.780  0.00  0.00    -0.273 OA
ATOM     49  N   LIG    1       -0.606  -0.977   1.201  0.00  0.00    -0.300 N 
ATOM     50  H   LIG    1       -0.651  -0.077   1.657  0.00  0.00    +0.150 HD
ATOM     51  C   LIG    1       -0.641  -2.123   2.100  0.00  0.00    +0.187 C 
ATOM     52  C   LIG    1       -0.052  -1.673   3.451  0.00  0.00    +0.237 C 
ATOM     53  O   LIG    1       -0.613  -0.795   4.107  0.00  0.00    -0.274 OA
ATOM     54  N   LIG    1        1.104  -2.258   3.813  0.00  0.00    -0.299 N 
ATOM     55  H   LIG    1        1.515  -2.947   3.200  0.00  0.00    +0.150 HD
ATOM     56  C   LIG    1        1.923  -1.881   4.976  0.00  0.00    +0.190 C 
ATOM     57  C   LIG    1        3.348  -2.486   4.888  0.00  0.00    +0.238 C 
ATOM     58  O   LIG    1        3.690  -3.172   3.922  0.00  0.00    -0.273 OA
ATOM     59  N   LIG    1        4.158  -2.207   5.925  0.00  0.00    -0.305 N 
ATOM     60  H   LIG    1        3.812  -1.617   6.668  0.00  0.00    +0.149 HD
ATOM     61  C   LIG    1        5.468  -2.814   6.135  0.00  0.00    +0.200 C 
ATOM     62  C   LIG    1        5.309  -4.162   6.859  0.00  0.00    +0.231 C 
ATOM     63  O   LIG    1        4.295  -4.419   7.511  0.00  0.00    -0.274 OA
ATOM     64  N   LIG    1        6.350  -5.002   6.765  0.00  0.00    -0.303 N 
ATOM     65  H   LIG    1        7.157  -4.721   6.226  0.00  0.00    +0.149 HD
ATOM     66  C   LIG    1        6.498  -6.251   7.511  0.00  0.00    +0.159 C 
ATOM     67  C   LIG    1        7.178  -5.939   8.854  0.00  0.00    +0.234 C 
ATOM     68  O   LIG    1        8.308  -5.451   8.859  0.00  0.00    -0.274 OA
ATOM     69  N   LIG    1        6.465  -6.233   9.957  0.00  0.00    -0.303 N 
ATOM     70  H   LIG    1        5.545  -6.627   9.826  0.00  0.00    +0.149 HD
ATOM     71  C   LIG    1        6.842  -6.037  11.366  0.00  0.00    +0.156 C 
ATOM     72  C   LIG    1        8.182  -6.718  11.709  0.00  0.00    +0.038 C 
ATOM     73  C   LIG    1        6.812  -4.575  11.853  0.00  0.00    +0.234 C 
ATOM     74  O   LIG    1        6.347  -4.340  12.968  0.00  0.00    -0.274 OA
ATOM     75  N   LIG    1        7.263  -3.620  11.018  0.00  0.00    -0.297 N 
ATOM     76  H   LIG    1        7.631  -3.894  10.118  0.00  0.00    +0.150 HD
ATOM     77  C   LIG    1        7.172  -2.169  11.260  0.00  0.00    +0.213 C 
ATOM     78  C   LIG    1        8.315  -1.520  10.486  0.00  0.00    +0.333 C 
ATOM     79  O   LIG    1        9.045  -0.675  11.008  0.00  0.00    -0.248 OA
ATOM     80  O   LIG    1        8.437  -1.953   9.194  0.00  0.00    -0.448 OA
ATOM     81  C   LIG    1        9.580  -1.626   8.380  0.00  0.00    +0.290 C 
ENDROOT
BRANCH  77  82
ATOM     82  C   LIG    1        5.819  -1.580  10.897  0.00  0.00    -0.015 A 
ATOM     83  C   LIG    1        4.887  -2.263  10.098  0.00  0.00    +0.009 A 
ATOM     84  C   LIG    1        3.616  -1.739   9.871  0.00  0.00    +0.047 A 
ATOM     85  C   LIG    1        3.250  -0.521  10.441  0.00  0.00    +0.135 A 
ATOM     86  C   LIG    1        4.173   0.187  11.219  0.00  0.00    +0.083 A 
ATOM     87 CL   LIG    1        3.769   1.719  11.911  0.00  0.00    -0.080 Cl
ATOM     88  C   LIG    1        5.446  -0.344  11.442  0.00  0.00    +0.029 A 
BRANCH  85  89
ATOM     89  O   LIG    1        1.987  -0.032  10.221  0.00  0.00    -0.505 OA
ATOM     90  H   LIG    1        1.449  -0.615   9.680  0.00  0.00    +0.292 HD
ENDBRANCH  85  89
ENDBRANCH  77  82
BRANCH  26  91
ATOM     91  C   LIG    1        0.037   8.755   1.194  0.00  0.00    -0.018 A 
ATOM     92  C   LIG    1        0.017   9.146  -0.150  0.00  0.00    +0.009 A 
ATOM     93  C   LIG    1        0.094  10.492  -0.498  0.00  0.00    +0.046 A 
ATOM     94  C   LIG    1        0.185  11.459   0.500  0.00  0.00    +0.117 A 
ATOM     95  C   LIG    1        0.200  11.088   1.842  0.00  0.00    +0.046 A 
ATOM     96  C   LIG    1        0.128   9.742   2.187  0.00  0.00    +0.009 A 
BRANCH  94  97
ATOM     97  O   LIG    1        0.261  12.784   0.161  0.00  0.00    -0.507 OA
ATOM     98  H   LIG    1        0.256  12.932  -0.788  0.00  0.00    +0.292 HD
ENDBRANCH  94  97
ENDBRANCH  26  91
BRANCH  46  99
ATOM     99  C   LIG    1        1.140   0.739  -1.228  0.00  0.00    -0.018 A 
ATOM    100  C   LIG    1        1.416   2.047  -1.657  0.00  0.00    +0.009 A 
ATOM    101  C   LIG    1        2.722   2.464  -1.906  0.00  0.00    +0.046 A 
ATOM    102  C   LIG    1        3.790   1.574  -1.732  0.00  0.00    +0.124 A 
ATOM    103  C   LIG    1        3.519   0.254  -1.386  0.00  0.00    +0.046 A 
ATOM    104  C   LIG    1        2.217  -0.158  -1.128  0.00  0.00    +0.009 A 
BRANCH 102 105
ATOM    105  O   LIG    1        5.120   1.928  -1.864  0.00  0.00    -0.461 OA
BRANCH 105 106
ATOM    106  C   LIG    1        5.501   3.245  -1.588  0.00  0.00    +0.340 C 
ATOM    107  C   LIG    1        6.934   3.222  -1.040  0.00  0.00    +0.221 C 
ATOM    108  C   LIG    1        7.315   4.669  -0.670  0.00  0.00    +0.180 C 
ATOM    109  C   LIG    1        7.112   5.632  -1.862  0.00  0.00    +0.177 C 
ATOM    110  C   LIG    1        5.705   5.422  -2.497  0.00  0.00    +0.179 C 
ATOM    111  O   LIG    1        5.475   4.027  -2.754  0.00  0.00    -0.331 OA
BRANCH 108 112
ATOM    112  O   LIG    1        8.614   4.734  -0.110  0.00  0.00    -0.386 OA
ATOM    113  H   LIG    1        8.894   5.652  -0.109  0.00  0.00    +0.210 HD
ENDBRANCH 108 112
BRANCH 109 114
ATOM    114  O   LIG    1        7.312   6.973  -1.447  0.00  0.00    -0.386 OA
ATOM    115  H   LIG    1        7.480   7.513  -2.223  0.00  0.00    +0.210 HD
ENDBRANCH 109 114
BRANCH 107 116
ATOM    116  O   LIG    1        7.859   2.713  -2.006  0.00  0.00    -0.337 OA
BRANCH 116 117
ATOM    117  C   LIG    1        8.281   1.388  -1.846  0.00  0.00    +0.282 C 
ATOM    118  C   LIG    1        9.457   1.329  -0.850  0.00  0.00    +0.201 C 
ATOM    119  C   LIG    1       10.707   2.000  -1.466  0.00  0.00    +0.179 C 
ATOM    120  C   LIG    1       11.008   1.433  -2.871  0.00  0.00    +0.177 C 
ATOM    121  C   LIG    1        9.728   1.456  -3.753  0.00  0.00    +0.178 C 
ATOM    122  O   LIG    1        8.634   0.814  -3.079  0.00  0.00    -0.341 OA
BRANCH 118 123
ATOM    123  O   LIG    1        9.700  -0.005  -0.434  0.00  0.00    -0.384 OA
ATOM    124  H   LIG    1       10.559  -0.034  -0.006  0.00  0.00    +0.210 HD
ENDBRANCH 118 123
BRANCH 119 125
ATOM    125  O   LIG    1       11.829   1.934  -0.600  0.00  0.00    -0.386 OA
ATOM    126  H   LIG    1       12.122   1.022  -0.543  0.00  0.00    +0.210 HD
ENDBRANCH 119 125
BRANCH 120 127
ATOM    127  O   LIG    1       12.091   2.119  -3.475  0.00  0.00    -0.386 OA
ATOM    128  H   LIG    1       11.857   3.046  -3.561  0.00  0.00    +0.210 HD
ENDBRANCH 120 127
BRANCH 121 129
ATOM    129  C   LIG    1        9.887   0.747  -5.117  0.00  0.00    +0.190 C 
BRANCH 129 130
ATOM    130  O   LIG    1       10.660   1.506  -6.026  0.00  0.00    -0.392 OA
ATOM    131  H   LIG    1       10.735   1.016  -6.849  0.00  0.00    +0.210 HD
ENDBRANCH 129 130
ENDBRANCH 121 129
ENDBRANCH 116 117
ENDBRANCH 107 116
BRANCH 110 132
ATOM    132  C   LIG    1        5.492   6.171  -3.830  0.00  0.00    +0.190 C 
BRANCH 132 133
ATOM    133  O   LIG    1        5.292   7.556  -3.629  0.00  0.00    -0.392 OA
ATOM    134  H   LIG    1        6.123   7.953  -3.360  0.00  0.00    +0.210 HD
ENDBRANCH 132 133
ENDBRANCH 110 132
ENDBRANCH 105 106
ENDBRANCH 102 105
ENDBRANCH  46  99
BRANCH   6 135
ATOM    135  C   LIG    1        9.983   2.025   3.960  0.00  0.00    -0.018 A 
ATOM    136  C   LIG    1       10.765   2.342   2.842  0.00  0.00    +0.009 A 
ATOM    137  C   LIG    1       10.834   3.652   2.377  0.00  0.00    +0.046 A 
ATOM    138  C   LIG    1       10.121   4.656   3.029  0.00  0.00    +0.117 A 
ATOM    139  C   LIG    1        9.341   4.357   4.143  0.00  0.00    +0.046 A 
ATOM    140  C   LIG    1        9.275   3.046   4.606  0.00  0.00    +0.009 A 
BRANCH 138 141
ATOM    141  O   LIG    1       10.188   5.945   2.572  0.00  0.00    -0.507 OA
ATOM    142  H   LIG    1       10.767   6.041   1.812  0.00  0.00    +0.292 HD
ENDBRANCH 138 141
ENDBRANCH   6 135
BRANCH  56 143
ATOM    143  C   LIG    1        1.196  -2.239   6.264  0.00  0.00    -0.018 A 
ATOM    144  C   LIG    1        1.142  -3.561   6.729  0.00  0.00    +0.009 A 
ATOM    145  C   LIG    1        0.498  -3.861   7.926  0.00  0.00    +0.046 A 
ATOM    146  C   LIG    1       -0.102  -2.841   8.661  0.00  0.00    +0.117 A 
ATOM    147  C   LIG    1       -0.067  -1.526   8.204  0.00  0.00    +0.046 A 
ATOM    148  C   LIG    1        0.584  -1.226   7.011  0.00  0.00    +0.009 A 
BRANCH 146 149
ATOM    149  O   LIG    1       -0.729  -3.130   9.844  0.00  0.00    -0.507 OA
ATOM    150  H   LIG    1       -0.703  -4.064  10.064  0.00  0.00    +0.292 HD
ENDBRANCH 146 149
ENDBRANCH  56 143
BRANCH  21 151
ATOM    151  C   LIG    1        4.607   7.079   1.599  0.00  0.00    -0.018 A 
ATOM    152  C   LIG    1        5.860   6.706   2.110  0.00  0.00    +0.009 A 
ATOM    153  C   LIG    1        6.815   7.661   2.441  0.00  0.00    +0.046 A 
ATOM    154  C   LIG    1        6.530   9.011   2.257  0.00  0.00    +0.117 A 
ATOM    155  C   LIG    1        5.298   9.407   1.744  0.00  0.00    +0.046 A 
ATOM    156  C   LIG    1        4.343   8.448   1.417  0.00  0.00    +0.009 A 
BRANCH 154 157
ATOM    157  O   LIG    1        7.467   9.954   2.586  0.00  0.00    -0.507 OA
ATOM    158  H   LIG    1        8.276   9.571   2.934  0.00  0.00    +0.292 HD
ENDBRANCH 154 157
ENDBRANCH  21 151
BRANCH  81 159
ATOM    159  C   LIG    1        9.673  -2.697   7.266  0.00  0.00    +0.254 C 
ATOM    160  O   LIG    1        8.668  -3.225   6.799  0.00  0.00    -0.272 OA
ATOM    161  N   LIG    1       10.891  -3.041   6.839  0.00  0.00    -0.326 N 
ATOM    162  H   LIG    1       10.996  -3.744   6.122  0.00  0.00    +0.145 HD
ATOM    163  H   LIG    1       11.715  -2.613   7.237  0.00  0.00    +0.145 HD
ENDBRANCH  81 159
BRANCH   1 165
ATOM    164  C   LIG    1        7.636   1.465   7.545  0.00  0.00    +0.235 C 
ATOM    165  N   LIG    1        8.194   0.255   7.363  0.00  0.00    -0.299 N 
ATOM    166  H   LIG    1        7.669  -0.460   6.881  0.00  0.00    +0.150 HD
ATOM    167  O   LIG    1        8.187   2.408   8.115  0.00  0.00    -0.274 OA
BRANCH 164 168
ATOM    168  C   LIG    1        6.201   1.614   7.007  0.00  0.00    +0.168 C 
BRANCH 168 170
ATOM    169  C   LIG    1        5.811   4.091   6.608  0.00  0.00    +0.237 C 
ATOM    170  N   LIG    1        6.010   2.828   6.194  0.00  0.00    -0.300 N 
ATOM    171  H   LIG    1        6.059   2.671   5.198  0.00  0.00    +0.150 HD
ATOM    172  O   LIG    1        5.763   4.439   7.788  0.00  0.00    -0.271 OA
BRANCH 169 174
ATOM    173  C   LIG    1        4.663   5.947   5.427  0.00  0.00    +0.005 C 
ATOM    174  C   LIG    1        5.630   5.006   5.507  0.00  0.00    +0.067 C 
BRANCH 173 176
ATOM    175  C   LIG    1        2.677   7.185   6.285  0.00  0.00    -0.027 C 
ATOM    176  C   LIG    1        3.588   6.197   6.381  0.00  0.00    -0.004 C 
BRANCH 175 177
ATOM    177  C   LIG    1        2.554   8.228   5.181  0.00  0.00    +0.030 C 
BRANCH 177 179
ATOM    178  C   LIG    1        2.780  10.671   4.503  0.00  0.00    +0.007 C 
ATOM    179  C   LIG    1        3.169   9.601   5.537  0.00  0.00    -0.013 C 
ATOM    180  C   LIG    1        4.700   9.531   5.704  0.00  0.00    +0.007 C 
ENDBRANCH 177 179
ENDBRANCH 175 177
ENDBRANCH 173 176
ENDBRANCH 169 174
ENDBRANCH 168 170
BRANCH 168 181
ATOM    181  C   LIG    1        5.144   1.441   8.133  0.00  0.00    +0.127 C 
BRANCH 181 182
ATOM    182  C   LIG    1        3.694   1.467   7.639  0.00  0.00    +0.213 C 
ATOM    183  O   LIG    1        3.305   0.622   6.840  0.00  0.00    -0.276 OA
ATOM    184  N   LIG    1        2.893   2.419   8.123  0.00  0.00    -0.329 N 
ATOM    185  H   LIG    1        1.924   2.462   7.841  0.00  0.00    +0.145 HD
ATOM    186  H   LIG    1        3.246   3.094   8.785  0.00  0.00    +0.145 HD
ENDBRANCH 181 182
ENDBRANCH 168 181
ENDBRANCH 164 168
ENDBRANCH   1 165
BRANCH  16 187
ATOM    187  C   LIG    1        1.732   2.456   3.567  0.00  0.00    +0.141 C 
ATOM    188  C   LIG    1        1.152   1.603   2.424  0.00  0.00    +0.040 C 
BRANCH 187 189
ATOM    189  O   LIG    1        1.521   1.758   4.773  0.00  0.00    -0.390 OA
ATOM    190  H   LIG    1        1.727   2.340   5.509  0.00  0.00    +0.210 HD
ENDBRANCH 187 189
ENDBRANCH  16 187
BRANCH  31 191
ATOM    191  C   LIG    1       -4.638   7.556   3.071  0.00  0.00    +0.141 C 
ATOM    192  C   LIG    1       -5.665   7.872   4.173  0.00  0.00    +0.040 C 
BRANCH 191 193
ATOM    193  O   LIG    1       -5.258   6.640   2.184  0.00  0.00    -0.390 OA
ATOM    194  H   LIG    1       -5.614   5.910   2.698  0.00  0.00    +0.210 HD
ENDBRANCH 191 193
ENDBRANCH  31 191
BRANCH  51 195
ATOM    195  C   LIG    1       -2.084  -2.688   2.259  0.00  0.00    +0.141 C 
ATOM    196  C   LIG    1       -2.159  -3.925   3.172  0.00  0.00    +0.040 C 
BRANCH 195 197
ATOM    197  O   LIG    1       -2.984  -1.726   2.782  0.00  0.00    -0.390 OA
ATOM    198  H   LIG    1       -2.718  -1.517   3.681  0.00  0.00    +0.210 HD
ENDBRANCH 195 197
ENDBRANCH  51 195
BRANCH  41 199
ATOM    199  C   LIG    1       -3.019   4.149  -0.115  0.00  0.00    +0.030 C 
BRANCH 199 200
ATOM    200  C   LIG    1       -1.837   4.585  -1.009  0.00  0.00    -0.017 C 
BRANCH 200 201
ATOM    201  C   LIG    1       -2.079   5.931  -1.708  0.00  0.00    -0.086 C 
BRANCH 201 202
ATOM    202  N   LIG    1       -0.890   6.259  -2.618  0.00  0.00    +0.378 N 
ATOM    203  H   LIG    1       -0.041   6.321  -2.075  0.00  0.00    -0.090 HD
ATOM    204  H   LIG    1       -0.778   5.538  -3.316  0.00  0.00    -0.090 HD
ATOM    205  H   LIG    1       -1.042   7.141  -3.087  0.00  0.00    -0.090 HD
ENDBRANCH 201 202
ENDBRANCH 200 201
ENDBRANCH 199 200
ENDBRANCH  41 199
BRANCH  11 206
ATOM    206  C   LIG    1        5.923  -0.807   2.397  0.00  0.00    +0.030 C 
BRANCH 206 207
ATOM    207  C   LIG    1        6.422  -0.440   0.983  0.00  0.00    -0.017 C 
BRANCH 207 208
ATOM    208  C   LIG    1        6.420  -1.628   0.002  0.00  0.00    -0.086 C 
BRANCH 208 209
ATOM    209  N   LIG    1        7.545  -2.612   0.338  0.00  0.00    +0.378 N 
ATOM    210  H   LIG    1        8.439  -2.145   0.287  0.00  0.00    -0.090 HD
ATOM    211  H   LIG    1        7.419  -2.979   1.271  0.00  0.00    -0.090 HD
ATOM    212  H   LIG    1        7.541  -3.380  -0.319  0.00  0.00    -0.090 HD
ENDBRANCH 208 209
ENDBRANCH 207 208
ENDBRANCH 206 207
ENDBRANCH  11 206
BRANCH  36 213
ATOM    213  C   LIG    1       -2.097   2.430   4.083  0.00  0.00    +0.067 C 
BRANCH 213 214
ATOM    214  C   LIG    1       -1.595   2.611   5.504  0.00  0.00    -0.045 A 
ATOM    215  C   LIG    1       -0.823   3.740   5.852  0.00  0.00    +0.004 A 
ATOM    216  C   LIG    1       -0.412   3.926   7.165  0.00  0.00    +0.000 A 
ATOM    217  C   LIG    1       -0.788   3.020   8.149  0.00  0.00    +0.000 A 
ATOM    218  C   LIG    1       -1.590   1.931   7.831  0.00  0.00    +0.000 A 
ATOM    219  C   LIG    1       -2.007   1.725   6.522  0.00  0.00    +0.004 A 
ENDBRANCH 213 214
ENDBRANCH  36 213
BRANCH  66 220
ATOM    220  C   LIG    1        7.295  -7.252   6.638  0.00  0.00    +0.034 C 
BRANCH 220 221
ATOM    221  C   LIG    1        7.319  -8.719   7.140  0.00  0.00    -0.015 C 
ATOM    222  C   LIG    1        7.645  -9.697   5.988  0.00  0.00    +0.007 C 
ATOM    223  C   LIG    1        8.252  -8.944   8.350  0.00  0.00    +0.007 C 
ENDBRANCH 220 221
ENDBRANCH  66 220
TORSDOF 52
