REMARK  Name = DB04173
REMARK                            x       y       z     vdW  Elec       q    Type
REMARK                         _______ _______ _______ _____ _____    ______ ____
ROOT
ATOM      1  C   LIG    1        1.550   0.175   0.019  0.00  0.00    +0.178 C 
ATOM      2  C   LIG    1        2.205   0.804   1.260  0.00  0.00    +0.179 C 
ATOM      3  C   LIG    1        3.516   0.030   1.407  0.00  0.00    +0.207 C 
ATOM      4  C   LIG    1        3.058  -1.369   0.947  0.00  0.00    +0.220 C 
ATOM      5  O   LIG    1        2.193  -1.092  -0.115  0.00  0.00    -0.336 OA
ENDROOT
BRANCH   2   6
ATOM      6  O   LIG    1        2.414   2.198   1.133  0.00  0.00    -0.386 OA
ATOM      7  H   LIG    1        2.916   2.361   0.332  0.00  0.00    +0.210 HD
ENDBRANCH   2   6
BRANCH   3   8
ATOM      8  O   LIG    1        4.096   0.073   2.703  0.00  0.00    -0.384 OA
ATOM      9  H   LIG    1        4.423   0.961   2.862  0.00  0.00    +0.210 HD
ENDBRANCH   3   8
BRANCH   4  10
ATOM     10  O   LIG    1        2.401  -1.990   1.994  0.00  0.00    -0.361 OA
ATOM     11  H   LIG    1        2.094  -2.844   1.684  0.00  0.00    +0.213 HD
ENDBRANCH   4  10
BRANCH   1  12
ATOM     12  C   LIG    1        0.028  -0.053   0.090  0.00  0.00    +0.190 C 
BRANCH  12  13
ATOM     13  O   LIG    1       -0.665   1.169  -0.057  0.00  0.00    -0.392 OA
ATOM     14  H   LIG    1       -1.608   0.992  -0.019  0.00  0.00    +0.210 HD
ENDBRANCH  12  13
ENDBRANCH   1  12
BRANCH   4  15
ATOM     15  C   LIG    1        4.163  -2.282   0.395  0.00  0.00    +0.223 C 
BRANCH  15  16
ATOM     16  O   LIG    1        5.176  -2.545   1.347  0.00  0.00    -0.390 OA
ATOM     17  H   LIG    1        5.824  -3.134   0.952  0.00  0.00    +0.210 HD
ENDBRANCH  15  16
ENDBRANCH   4  15
TORSDOF 7
