REMARK  Name = DB04850
REMARK                            x       y       z     vdW  Elec       q    Type
REMARK                         _______ _______ _______ _____ _____    ______ ____
ROOT
ATOM      1  F   LIG    1        1.599   1.286  -2.575  0.00  0.00    -0.205 F 
ATOM      2  C   LIG    1        2.234   0.653  -1.560  0.00  0.00    +0.135 A 
ATOM      3  C   LIG    1        3.603   0.409  -1.663  0.00  0.00    +0.062 A 
ATOM      4  C   LIG    1        4.300  -0.247  -0.634  0.00  0.00    +0.045 A 
ATOM      5  C   LIG    1        3.576  -0.665   0.493  0.00  0.00    +0.062 A 
ATOM      6  C   LIG    1        2.207  -0.422   0.599  0.00  0.00    +0.135 A 
ATOM      7  F   LIG    1        1.546  -0.839   1.705  0.00  0.00    -0.205 F 
ATOM      8  C   LIG    1        1.524   0.243  -0.426  0.00  0.00    +0.048 A 
ENDROOT
BRANCH   8   9
ATOM      9  C   LIG    1        0.076   0.495  -0.327  0.00  0.00    -0.036 C 
ATOM     10  C   LIG    1       -0.368   1.557   0.378  0.00  0.00    -0.004 C 
ATOM     11  C   LIG    1       -1.839   1.857   0.684  0.00  0.00    +0.135 C 
ATOM     12  N   LIG    1       -2.685   0.708   0.268  0.00  0.00    -0.295 N 
ATOM     13  C   LIG    1       -3.588   0.122   1.106  0.00  0.00    +0.247 C 
ATOM     14  O   LIG    1       -4.128  -0.955   0.829  0.00  0.00    -0.273 OA
ATOM     15  C   LIG    1       -2.291   0.021  -0.982  0.00  0.00    +0.113 C 
ATOM     16  C   LIG    1       -0.895  -0.598  -0.753  0.00  0.00    +0.054 C 
BRANCH  13  17
ATOM     17  C   LIG    1       -4.062   0.887   2.372  0.00  0.00    +0.225 C 
BRANCH  17  18
ATOM     18  O   LIG    1       -5.420   0.563   2.641  0.00  0.00    -0.380 OA
ATOM     19  H   LIG    1       -5.961   0.884   1.916  0.00  0.00    +0.211 HD
ENDBRANCH  17  18
BRANCH  17  20
ATOM     20  C   LIG    1       -3.208   0.505   3.605  0.00  0.00    +0.196 C 
BRANCH  20  21
ATOM     21  O   LIG    1       -3.520   1.321   4.718  0.00  0.00    -0.392 OA
ATOM     22  H   LIG    1       -3.005   1.024   5.471  0.00  0.00    +0.210 HD
ENDBRANCH  20  21
ENDBRANCH  17  20
ENDBRANCH  13  17
ENDBRANCH   8   9
BRANCH   4  23
ATOM     23  N   LIG    1        5.689  -0.528  -0.715  0.00  0.00    -0.233 N 
ATOM     24  C   LIG    1        6.633   0.149  -1.506  0.00  0.00    +0.408 C 
ATOM     25  O   LIG    1        6.498   1.043  -2.341  0.00  0.00    -0.226 OA
ATOM     26  O   LIG    1        7.850  -0.350  -1.208  0.00  0.00    -0.442 OA
ATOM     27  C   LIG    1        7.803  -1.483  -0.376  0.00  0.00    +0.233 C 
ATOM     28  C   LIG    1        6.408  -1.407   0.196  0.00  0.00    +0.165 C 
BRANCH  27  29
ATOM     29  C   LIG    1        8.929  -1.419   0.669  0.00  0.00    +0.277 C 
BRANCH  29  30
ATOM     30  O   LIG    1       10.180  -1.584   0.007  0.00  0.00    -0.471 OA
BRANCH  30  31
ATOM     31  C   LIG    1       11.299  -1.534   0.802  0.00  0.00    +0.255 A 
ATOM     32  C   LIG    1       11.401  -1.358   2.187  0.00  0.00    +0.111 A 
ATOM     33  C   LIG    1       12.754  -1.393   2.432  0.00  0.00    +0.234 A 
ATOM     34  O   LIG    1       13.416  -1.579   1.263  0.00  0.00    -0.360 OA
ATOM     35  N   LIG    1       12.476  -1.668   0.233  0.00  0.00    -0.040 NA
ENDBRANCH  30  31
ENDBRANCH  29  30
ENDBRANCH  27  29
ENDBRANCH   4  23
TORSDOF 9
