REMARK  Name = DB04903
REMARK                            x       y       z     vdW  Elec       q    Type
REMARK                         _______ _______ _______ _____ _____    ______ ____
ROOT
ATOM      1  N   LIG    1       -2.087  -0.398  -1.634  0.00  0.00    -0.244 N 
ATOM      2  C   LIG    1       -2.418   0.573  -2.535  0.00  0.00    +0.253 C 
ATOM      3  C   LIG    1       -1.733   0.201  -3.810  0.00  0.00    +0.042 A 
ATOM      4  C   LIG    1       -1.739   0.862  -5.040  0.00  0.00    +0.013 A 
ATOM      5  C   LIG    1       -1.012   0.322  -6.104  0.00  0.00    +0.001 A 
ATOM      6  C   LIG    1       -0.293  -0.864  -5.931  0.00  0.00    +0.000 A 
ATOM      7  C   LIG    1       -0.298  -1.515  -4.695  0.00  0.00    +0.006 A 
ATOM      8  C   LIG    1       -1.029  -0.972  -3.635  0.00  0.00    -0.014 A 
ATOM      9  O   LIG    1       -3.145   1.550  -2.351  0.00  0.00    -0.270 OA
ATOM     10  C   LIG    1       -1.210  -1.435  -2.220  0.00  0.00    +0.121 C 
ENDROOT
BRANCH   1  18
ATOM     11 CL   LIG    1       -3.086   3.508   4.498  0.00  0.00    -0.062 Cl
ATOM     12  C   LIG    1       -3.126   1.981   3.696  0.00  0.00    +0.132 A 
ATOM     13  C   LIG    1       -3.465   0.844   4.428  0.00  0.00    +0.041 A 
ATOM     14  C   LIG    1       -3.494  -0.396   3.791  0.00  0.00    +0.014 A 
ATOM     15  C   LIG    1       -3.175  -0.468   2.414  0.00  0.00    +0.019 A 
ATOM     16  C   LIG    1       -2.843   0.743   1.737  0.00  0.00    +0.163 A 
ATOM     17  N   LIG    1       -2.516   0.765   0.418  0.00  0.00    -0.212 NA
ATOM     18  C   LIG    1       -2.498  -0.408  -0.279  0.00  0.00    +0.131 A 
ATOM     19  C   LIG    1       -2.815  -1.633   0.322  0.00  0.00    +0.045 A 
ATOM     20  C   LIG    1       -3.160  -1.671   1.672  0.00  0.00    +0.015 A 
ATOM     21  N   LIG    1       -2.819   1.945   2.374  0.00  0.00    -0.216 NA
ENDBRANCH   1  18
BRANCH  10  22
ATOM     22  C   LIG    1        0.109  -1.684  -1.429  0.00  0.00    +0.102 C 
BRANCH  22  23
ATOM     23  C   LIG    1        0.969  -0.452  -1.095  0.00  0.00    +0.135 C 
ATOM     24  O   LIG    1        1.052   0.513  -1.854  0.00  0.00    -0.297 OA
BRANCH  23  25
ATOM     25  C   LIG    1        1.689  -0.447   0.255  0.00  0.00    +0.074 C 
BRANCH  25  26
ATOM     26  C   LIG    1        0.752  -0.041   1.413  0.00  0.00    +0.010 C 
BRANCH  26  27
ATOM     27  C   LIG    1        1.422  -0.017   2.805  0.00  0.00    -0.017 C 
ATOM     28  C   LIG    1        2.535   1.043   2.911  0.00  0.00    +0.007 C 
ATOM     29  C   LIG    1        0.373   0.180   3.915  0.00  0.00    +0.007 C 
ENDBRANCH  26  27
ENDBRANCH  25  26
ENDBRANCH  23  25
ENDBRANCH  22  23
ENDBRANCH  10  22
TORSDOF 6
