REMARK  Name = DB04703
REMARK                            x       y       z     vdW  Elec       q    Type
REMARK                         _______ _______ _______ _____ _____    ______ ____
ROOT
ATOM      1  C   LIG    1        1.356   0.353  -0.267  0.00  0.00    +0.339 C 
ATOM      2  C   LIG    1        1.632  -1.153  -0.132  0.00  0.00    +0.214 C 
ATOM      3  C   LIG    1        3.156  -1.419  -0.197  0.00  0.00    +0.180 C 
ATOM      4  C   LIG    1        3.820  -0.704  -1.396  0.00  0.00    +0.177 C 
ATOM      5  C   LIG    1        3.345   0.772  -1.487  0.00  0.00    +0.179 C 
ATOM      6  O   LIG    1        1.916   0.806  -1.473  0.00  0.00    -0.331 OA
ENDROOT
BRANCH   2   7
ATOM      7  O   LIG    1        1.066  -1.676   1.059  0.00  0.00    -0.383 OA
ATOM      8  H   LIG    1        1.689  -1.545   1.778  0.00  0.00    +0.210 HD
ENDBRANCH   2   7
BRANCH   3   9
ATOM      9  O   LIG    1        3.437  -2.810  -0.201  0.00  0.00    -0.386 OA
ATOM     10  H   LIG    1        3.065  -3.197  -0.997  0.00  0.00    +0.210 HD
ENDBRANCH   3   9
BRANCH   4  11
ATOM     11  O   LIG    1        5.232  -0.797  -1.309  0.00  0.00    -0.386 OA
ATOM     12  H   LIG    1        5.610  -0.451  -2.121  0.00  0.00    +0.210 HD
ENDBRANCH   4  11
BRANCH   1  13
ATOM     13  O   LIG    1       -0.034   0.515  -0.299  0.00  0.00    -0.461 OA
BRANCH  13  17
ATOM     14  O   LIG    1       -4.019   3.001  -0.148  0.00  0.00    -0.483 OA
ATOM     15  C   LIG    1       -2.639   3.071  -0.154  0.00  0.00    +0.139 A 
ATOM     16  C   LIG    1       -1.983   1.844  -0.212  0.00  0.00    +0.092 A 
ATOM     17  C   LIG    1       -0.593   1.779  -0.231  0.00  0.00    +0.131 A 
ATOM     18  C   LIG    1        0.135   2.977  -0.187  0.00  0.00    +0.092 A 
ATOM     19  C   LIG    1       -0.512   4.213  -0.136  0.00  0.00    +0.134 A 
ATOM     20  C   LIG    1       -1.922   4.284  -0.145  0.00  0.00    +0.101 A 
ATOM     21  C   LIG    1       -2.691   5.568  -0.024  0.00  0.00    +0.174 C 
ATOM     22  O   LIG    1       -2.162   6.645   0.248  0.00  0.00    -0.292 OA
ATOM     23  C   LIG    1       -4.198   5.427  -0.256  0.00  0.00    +0.129 C 
ATOM     24  C   LIG    1       -4.697   4.130   0.419  0.00  0.00    +0.211 C 
BRANCH  24  25
ATOM     25  C   LIG    1       -6.206   3.959   0.274  0.00  0.00    -0.003 A 
ATOM     26  C   LIG    1       -6.762   3.648  -0.970  0.00  0.00    +0.056 A 
ATOM     27  C   LIG    1       -8.142   3.489  -1.111  0.00  0.00    +0.159 A 
ATOM     28  C   LIG    1       -8.994   3.642  -0.008  0.00  0.00    +0.161 A 
ATOM     29  C   LIG    1       -8.427   3.956   1.240  0.00  0.00    +0.050 A 
ATOM     30  C   LIG    1       -7.048   4.112   1.378  0.00  0.00    +0.011 A 
BRANCH  27  31
ATOM     31  O   LIG    1       -8.648   3.182  -2.348  0.00  0.00    -0.503 OA
ATOM     32  H   LIG    1       -7.968   3.097  -3.021  0.00  0.00    +0.292 HD
ENDBRANCH  27  31
BRANCH  28  33
ATOM     33  O   LIG    1      -10.352   3.473  -0.218  0.00  0.00    -0.491 OA
ATOM     34  C   LIG    1      -11.253   3.632   0.872  0.00  0.00    +0.277 C 
ENDBRANCH  28  33
ENDBRANCH  24  25
BRANCH  19  35
ATOM     35  O   LIG    1        0.282   5.333  -0.097  0.00  0.00    -0.506 OA
ATOM     36  H   LIG    1        1.219   5.127  -0.102  0.00  0.00    +0.292 HD
ENDBRANCH  19  35
ENDBRANCH  13  17
ENDBRANCH   1  13
BRANCH   5  37
ATOM     37  C   LIG    1        3.789   1.496  -2.774  0.00  0.00    +0.197 C 
BRANCH  37  38
ATOM     38  O   LIG    1        5.208   1.577  -2.837  0.00  0.00    -0.346 OA
BRANCH  38  39
ATOM     39  C   LIG    1        5.729   2.070  -4.037  0.00  0.00    +0.282 C 
ATOM     40  O   LIG    1        5.471   1.216  -5.128  0.00  0.00    -0.343 OA
ATOM     41  C   LIG    1        6.027  -0.102  -5.013  0.00  0.00    +0.149 C 
ATOM     42  C   LIG    1        7.568  -0.046  -4.864  0.00  0.00    +0.174 C 
ATOM     43  C   LIG    1        7.960   0.908  -3.716  0.00  0.00    +0.179 C 
ATOM     44  C   LIG    1        5.569  -0.904  -6.242  0.00  0.00    +0.041 C 
ATOM     45  C   LIG    1        7.242   2.272  -3.854  0.00  0.00    +0.201 C 
BRANCH  42  46
ATOM     46  O   LIG    1        8.118  -1.339  -4.673  0.00  0.00    -0.387 OA
ATOM     47  H   LIG    1        7.857  -1.659  -3.806  0.00  0.00    +0.210 HD
ENDBRANCH  42  46
BRANCH  43  48
ATOM     48  O   LIG    1        9.364   1.055  -3.585  0.00  0.00    -0.386 OA
ATOM     49  H   LIG    1        9.714   1.401  -4.409  0.00  0.00    +0.210 HD
ENDBRANCH  43  48
BRANCH  45  50
ATOM     50  O   LIG    1        7.766   3.072  -4.901  0.00  0.00    -0.384 OA
ATOM     51  H   LIG    1        8.724   3.073  -4.833  0.00  0.00    +0.210 HD
ENDBRANCH  45  50
ENDBRANCH  38  39
ENDBRANCH  37  38
ENDBRANCH   5  37
TORSDOF 15
