REMARK  Name = DB04823
REMARK                            x       y       z     vdW  Elec       q    Type
REMARK                         _______ _______ _______ _____ _____    ______ ____
ROOT
ATOM      1  O   LIG    1       -0.160  -1.590  -1.936  0.00  0.00    -0.274 OA
ATOM      2  C   LIG    1       -0.422  -0.504  -1.419  0.00  0.00    +0.237 C 
ATOM      3  C   LIG    1        0.044  -0.017  -0.015  0.00  0.00    +0.124 C 
ATOM      4  C   LIG    1       -0.600   1.356   0.039  0.00  0.00    -0.003 A 
ATOM      5  C   LIG    1       -0.604   2.340   1.035  0.00  0.00    +0.007 A 
ATOM      6  C   LIG    1       -1.297   3.535   0.826  0.00  0.00    +0.000 A 
ATOM      7  C   LIG    1       -1.989   3.747  -0.370  0.00  0.00    +0.002 A 
ATOM      8  C   LIG    1       -1.992   2.764  -1.362  0.00  0.00    +0.023 A 
ATOM      9  C   LIG    1       -1.294   1.578  -1.137  0.00  0.00    +0.038 A 
ATOM     10  N   LIG    1       -1.166   0.477  -1.961  0.00  0.00    -0.284 N 
ATOM     11  H   LIG    1       -1.590   0.406  -2.874  0.00  0.00    +0.155 HD
ENDROOT
BRANCH   3  12
ATOM     12  C   LIG    1       -0.512  -0.874   1.162  0.00  0.00    -0.024 A 
ATOM     13  C   LIG    1        0.068  -0.736   2.434  0.00  0.00    +0.009 A 
ATOM     14  C   LIG    1       -0.391  -1.480   3.517  0.00  0.00    +0.046 A 
ATOM     15  C   LIG    1       -1.443  -2.374   3.343  0.00  0.00    +0.117 A 
ATOM     16  C   LIG    1       -2.040  -2.523   2.095  0.00  0.00    +0.046 A 
ATOM     17  C   LIG    1       -1.580  -1.778   1.013  0.00  0.00    +0.009 A 
BRANCH  15  18
ATOM     18  O   LIG    1       -1.896  -3.108   4.406  0.00  0.00    -0.507 OA
ATOM     19  H   LIG    1       -1.416  -2.927   5.218  0.00  0.00    +0.292 HD
ENDBRANCH  15  18
ENDBRANCH   3  12
BRANCH   3  20
ATOM     20  C   LIG    1        1.600  -0.001  -0.048  0.00  0.00    -0.024 A 
ATOM     21  C   LIG    1        2.326   1.186  -0.247  0.00  0.00    +0.009 A 
ATOM     22  C   LIG    1        3.718   1.171  -0.280  0.00  0.00    +0.046 A 
ATOM     23  C   LIG    1        4.402  -0.031  -0.117  0.00  0.00    +0.117 A 
ATOM     24  C   LIG    1        3.702  -1.218   0.077  0.00  0.00    +0.046 A 
ATOM     25  C   LIG    1        2.311  -1.202   0.109  0.00  0.00    +0.009 A 
BRANCH  23  26
ATOM     26  O   LIG    1        5.771  -0.046  -0.151  0.00  0.00    -0.507 OA
ATOM     27  H   LIG    1        6.151   0.823  -0.298  0.00  0.00    +0.292 HD
ENDBRANCH  23  26
ENDBRANCH   3  20
TORSDOF 4
