REMARK  Name = DB04944
REMARK                            x       y       z     vdW  Elec       q    Type
REMARK                         _______ _______ _______ _____ _____    ______ ____
ROOT
ATOM      1  N   LIG    1        0.209   0.081   0.005  0.00  0.00    -0.289 N 
ATOM      2  C   LIG    1       -0.558  -1.042  -0.180  0.00  0.00    +0.203 A 
ATOM      3  N   LIG    1       -1.841  -0.808  -0.253  0.00  0.00    -0.229 NA
ATOM      4  C   LIG    1       -1.983   0.506  -0.110  0.00  0.00    +0.164 A 
ATOM      5  C   LIG    1       -0.721   1.102   0.058  0.00  0.00    +0.131 A 
ENDROOT
BRANCH   4   6
ATOM      6  C   LIG    1       -3.258   1.204  -0.123  0.00  0.00    +0.263 C 
ATOM      7  O   LIG    1       -3.342   2.423   0.019  0.00  0.00    -0.269 OA
ATOM      8  N   LIG    1       -4.341   0.438  -0.301  0.00  0.00    -0.324 N 
ATOM      9  H   LIG    1       -5.260   0.855  -0.320  0.00  0.00    +0.145 HD
ATOM     10  H   LIG    1       -4.242  -0.560  -0.417  0.00  0.00    +0.145 HD
ENDBRANCH   4   6
BRANCH   1  11
ATOM     11  C1* LIG    1        1.653   0.135   0.139  0.00  0.00    +0.253 C 
ATOM     12  C2* LIG    1        2.186  -0.477   1.431  0.00  0.00    +0.195 C 
ATOM     13  C3* LIG    1        3.626  -0.768   1.002  0.00  0.00    +0.178 C 
ATOM     14  C4* LIG    1        3.496  -1.141  -0.487  0.00  0.00    +0.177 C 
ATOM     15  O4* LIG    1        2.253  -0.576  -0.901  0.00  0.00    -0.346 OA
BRANCH  12  16
ATOM     16  O2* LIG    1        2.002   0.402   2.527  0.00  0.00    -0.385 OA
ATOM     17  H2* LIG    1        2.450   1.229   2.335  0.00  0.00    +0.210 HD
ENDBRANCH  12  16
BRANCH  13  18
ATOM     18  O3* LIG    1        4.513   0.323   1.198  0.00  0.00    -0.386 OA
ATOM     19  H3* LIG    1        4.490   0.571   2.125  0.00  0.00    +0.210 HD
ENDBRANCH  13  18
BRANCH  14  20
ATOM     20  C5* LIG    1        3.492  -2.649  -0.822  0.00  0.00    +0.190 C 
BRANCH  20  21
ATOM     21  O5* LIG    1        2.532  -3.374  -0.077  0.00  0.00    -0.392 OA
ATOM     22  H5* LIG    1        2.567  -4.295  -0.347  0.00  0.00    +0.210 HD
ENDBRANCH  20  21
ENDBRANCH  14  20
ENDBRANCH   1  11
BRANCH   5  23
ATOM     23  N   LIG    1       -0.343   2.407   0.247  0.00  0.00    -0.343 N 
ATOM     24  H   LIG    1        0.626   2.675   0.348  0.00  0.00    +0.144 HD
ATOM     25  H   LIG    1       -1.027   3.150   0.284  0.00  0.00    +0.144 HD
ENDBRANCH   5  23
TORSDOF 7
