REMARK  Name = DB04812
REMARK                            x       y       z     vdW  Elec       q    Type
REMARK                         _______ _______ _______ _____ _____    ______ ____
ROOT
ATOM      1  C   LIG    1        5.724   0.753   1.315  0.00  0.00    +0.228 A 
ATOM      2  N   LIG    1        4.579   1.077   1.885  0.00  0.00    -0.209 NA
ATOM      3  C   LIG    1        3.635   0.583   1.029  0.00  0.00    +0.110 A 
ATOM      4  C   LIG    1        4.270  -0.036  -0.056  0.00  0.00    +0.156 A 
ATOM      5  C   LIG    1        3.578  -0.638  -1.109  0.00  0.00    +0.049 A 
ATOM      6  C   LIG    1        2.184  -0.598  -1.038  0.00  0.00    +0.008 A 
ATOM      7  C   LIG    1        1.510   0.010   0.035  0.00  0.00    -0.032 A 
ATOM      8  C   LIG    1        2.234   0.611   1.082  0.00  0.00    +0.036 A 
ATOM      9  O   LIG    1        5.612   0.074   0.130  0.00  0.00    -0.435 OA
ENDROOT
BRANCH   1  14
ATOM     10 CL   LIG    1       11.243   1.954   3.380  0.00  0.00    -0.084 Cl
ATOM     11  C   LIG    1        9.659   1.610   2.787  0.00  0.00    +0.041 A 
ATOM     12  C   LIG    1        9.505   0.917   1.588  0.00  0.00    +0.021 A 
ATOM     13  C   LIG    1        8.227   0.639   1.109  0.00  0.00    +0.014 A 
ATOM     14  C   LIG    1        7.098   1.052   1.827  0.00  0.00    +0.037 A 
ATOM     15  C   LIG    1        7.266   1.748   3.031  0.00  0.00    +0.014 A 
ATOM     16  C   LIG    1        8.543   2.026   3.510  0.00  0.00    +0.021 A 
ENDBRANCH   1  14
BRANCH   7  17
ATOM     17  C   LIG    1       -0.024   0.023   0.046  0.00  0.00    +0.124 C 
ATOM     18  C   LIG    1       -0.592   1.457  -0.036  0.00  0.00    +0.024 C 
BRANCH  17  19
ATOM     19  C   LIG    1       -0.577  -0.761   1.254  0.00  0.00    +0.312 C 
ATOM     20  O   LIG    1       -0.841  -0.247   2.340  0.00  0.00    -0.250 OA
BRANCH  19  21
ATOM     21  O   LIG    1       -0.703  -2.092   0.977  0.00  0.00    -0.480 OA
ATOM     22  H   LIG    1       -1.033  -2.591   1.728  0.00  0.00    +0.295 HD
ENDBRANCH  19  21
ENDBRANCH  17  19
ENDBRANCH   7  17
TORSDOF 4
