REMARK  Name = DB04887
REMARK                            x       y       z     vdW  Elec       q    Type
REMARK                         _______ _______ _______ _____ _____    ______ ____
ROOT
ATOM      1  C   LIG    1        0.498  -0.065   0.020  0.00  0.00    +0.110 C 
ENDROOT
BRANCH   1   2
ATOM      2  N   LIG    1       -0.161   1.243   0.130  0.00  0.00    -0.275 N 
ATOM      3  H   LIG    1        0.400   2.070  -0.009  0.00  0.00    +0.152 HD
ATOM      4  C   LIG    1       -1.512   1.404   0.390  0.00  0.00    +0.401 C 
ATOM      5  O   LIG    1       -2.336   0.503   0.566  0.00  0.00    -0.226 OA
BRANCH   4   6
ATOM      6  O   LIG    1       -1.789   2.725   0.421  0.00  0.00    -0.444 OA
BRANCH   6   7
ATOM      7  C   LIG    1       -3.118   3.211   0.611  0.00  0.00    +0.212 C 
ATOM      8  C   LIG    1       -3.094   4.679   1.027  0.00  0.00    +0.208 C 
ATOM      9  O   LIG    1       -4.265   5.215   0.417  0.00  0.00    -0.347 OA
ATOM     10  C   LIG    1       -4.919   4.286  -0.402  0.00  0.00    +0.257 C 
ATOM     11  O   LIG    1       -5.292   4.802  -1.645  0.00  0.00    -0.351 OA
ATOM     12  C   LIG    1       -4.383   4.447  -2.681  0.00  0.00    +0.163 C 
ATOM     13  C   LIG    1       -3.261   3.730  -1.946  0.00  0.00    +0.040 C 
ATOM     14  C   LIG    1       -3.922   3.180  -0.686  0.00  0.00    +0.090 C 
ENDBRANCH   6   7
ENDBRANCH   4   6
ENDBRANCH   1   2
BRANCH   1  15
ATOM     15  C   LIG    1        2.028   0.029   0.309  0.00  0.00    +0.151 C 
BRANCH  15  16
ATOM     16  O   LIG    1        2.570  -1.256   0.545  0.00  0.00    -0.389 OA
ATOM     17  H   LIG    1        2.172  -1.610   1.344  0.00  0.00    +0.210 HD
ENDBRANCH  15  16
BRANCH  15  18
ATOM     18  C   LIG    1        2.438   0.974   1.469  0.00  0.00    +0.142 C 
BRANCH  18  19
ATOM     19  N   LIG    1        1.701   0.776   2.751  0.00  0.00    -0.174 NA
BRANCH  19  20
ATOM     20  S   LIG    1        1.216   2.247   3.621  0.00  0.00    +0.061 S 
ATOM     21  O   LIG    1        0.414   1.855   4.787  0.00  0.00    -0.153 OA
ATOM     22  O   LIG    1        0.678   3.202   2.645  0.00  0.00    -0.153 OA
BRANCH  20  23
ATOM     23  C   LIG    1        2.753   2.929   4.240  0.00  0.00    +0.109 A 
ATOM     24  C   LIG    1        3.496   3.821   3.442  0.00  0.00    +0.032 A 
ATOM     25  C   LIG    1        4.705   4.359   3.903  0.00  0.00    +0.051 A 
ATOM     26  C   LIG    1        5.142   3.971   5.165  0.00  0.00    +0.166 A 
ATOM     27  C   LIG    1        4.425   3.104   5.941  0.00  0.00    +0.168 A 
ATOM     28  O   LIG    1        5.064   2.928   7.127  0.00  0.00    -0.453 OA
ATOM     29  C   LIG    1        6.313   3.551   6.981  0.00  0.00    +0.466 C 
ATOM     30  O   LIG    1        6.254   4.364   5.839  0.00  0.00    -0.453 OA
ATOM     31  C   LIG    1        3.218   2.562   5.514  0.00  0.00    +0.078 A 
ENDBRANCH  20  23
ENDBRANCH  19  20
BRANCH  19  32
ATOM     32  C   LIG    1        2.036  -0.421   3.571  0.00  0.00    +0.112 C 
BRANCH  32  33
ATOM     33  C   LIG    1        0.958  -1.534   3.526  0.00  0.00    -0.001 C 
ATOM     34  C   LIG    1        1.327  -2.669   4.497  0.00  0.00    +0.008 C 
ATOM     35  C   LIG    1       -0.480  -1.040   3.785  0.00  0.00    +0.008 C 
ENDBRANCH  32  33
ENDBRANCH  19  32
ENDBRANCH  18  19
ENDBRANCH  15  18
ENDBRANCH   1  15
BRANCH   1  36
ATOM     36  C   LIG    1        0.140  -0.839  -1.279  0.00  0.00    +0.060 C 
BRANCH  36  37
ATOM     37  C   LIG    1        0.508  -0.115  -2.570  0.00  0.00    -0.045 A 
ATOM     38  C   LIG    1        1.738  -0.359  -3.184  0.00  0.00    +0.007 A 
ATOM     39  C   LIG    1        2.075   0.307  -4.359  0.00  0.00    +0.046 A 
ATOM     40  C   LIG    1        1.183   1.227  -4.932  0.00  0.00    +0.121 A 
ATOM     41  C   LIG    1       -0.049   1.454  -4.318  0.00  0.00    +0.046 A 
ATOM     42  C   LIG    1       -0.388   0.788  -3.144  0.00  0.00    +0.007 A 
BRANCH  40  43
ATOM     43  O   LIG    1        1.432   1.936  -6.094  0.00  0.00    -0.486 OA
BRANCH  43  44
ATOM     44  C   LIG    1        2.723   1.891  -6.708  0.00  0.00    +0.285 C 
BRANCH  44  45
ATOM     45  C   LIG    1        3.782   2.594  -5.872  0.00  0.00    +0.086 A 
ATOM     46  C   LIG    1        5.024   2.103  -5.481  0.00  0.00    +0.073 A 
ATOM     47  S   LIG    1        5.839   3.296  -4.521  0.00  0.00    -0.080 S 
ATOM     48  C   LIG    1        4.467   4.340  -4.725  0.00  0.00    +0.076 A 
ATOM     49  C   LIG    1        4.381   5.726  -4.128  0.00  0.00    +0.073 C 
ATOM     50  N   LIG    1        3.507   3.815  -5.448  0.00  0.00    -0.246 NA
ENDBRANCH  44  45
ENDBRANCH  43  44
ENDBRANCH  40  43
ENDBRANCH  36  37
ENDBRANCH   1  36
TORSDOF 16
