REMARK  Name = DB04519
REMARK                            x       y       z     vdW  Elec       q    Type
REMARK                         _______ _______ _______ _____ _____    ______ ____
ROOT
ATOM      1  C   LIG    1       -0.642   1.534  -0.050  0.00  0.00    +0.011 C 
ENDROOT
BRANCH   1   2
ATOM      2  C   LIG    1       -2.183   1.455  -0.208  0.00  0.00    +0.120 C 
BRANCH   2   3
ATOM      3  C   LIG    1       -2.919   2.818  -0.205  0.00  0.00    +0.305 C 
ATOM      4  O   LIG    1       -4.162   2.770  -0.346  0.00  0.00    -0.251 OA
BRANCH   3   5
ATOM      5  O   LIG    1       -2.274   3.884  -0.064  0.00  0.00    -0.481 OA
ATOM      6  H   LIG    1       -1.343   3.857   0.038  0.00  0.00    +0.295 HD
ENDBRANCH   3   5
ENDBRANCH   2   3
ENDBRANCH   1   2
BRANCH   1   7
ATOM      7  C   LIG    1        0.025   0.145  -0.069  0.00  0.00    +0.001 C 
BRANCH   7   8
ATOM      8  C   LIG    1        1.566   0.179  -0.010  0.00  0.00    +0.000 C 
BRANCH   8   9
ATOM      9  C   LIG    1        2.140   0.701   1.322  0.00  0.00    -0.000 C 
BRANCH   9  10
ATOM     10  C   LIG    1        3.678   0.654   1.369  0.00  0.00    -0.003 C 
ATOM     11  C   LIG    1        4.251   1.165   2.697  0.00  0.00    +0.004 C 
ENDBRANCH   9  10
ENDBRANCH   8   9
ENDBRANCH   7   8
ENDBRANCH   1   7
TORSDOF 7
