REMARK  Name = DB04106
REMARK                            x       y       z     vdW  Elec       q    Type
REMARK                         _______ _______ _______ _____ _____    ______ ____
ROOT
ATOM      1  C   LIG    1        1.832   0.063  -0.085  0.00  0.00    +0.186 C 
ATOM      2  C   LIG    1        2.610  -1.263  -0.182  0.00  0.00    +0.041 C 
ENDROOT
BRANCH   1   3
ATOM      3  N   LIG    1        2.066   0.954  -1.220  0.00  0.00    -0.284 N 
ATOM      4  H   LIG    1        1.378   0.921  -1.959  0.00  0.00    +0.151 HD
ATOM      5  C   LIG    1        3.152   1.736  -1.392  0.00  0.00    +0.325 C 
ATOM      6  N   LIG    1        3.148   2.452  -2.543  0.00  0.00    -0.140 N 
ATOM      7  O   LIG    1        4.012   1.880  -0.519  0.00  0.00    -0.251 OA
BRANCH   6   8
ATOM      8  N   LIG    1        2.938   1.752  -3.722  0.00  0.00    +0.053 NA
ATOM      9  O   LIG    1        3.011   2.400  -4.746  0.00  0.00    -0.126 OA
ENDBRANCH   6   8
BRANCH   6  10
ATOM     10  C   LIG    1        3.583   3.866  -2.523  0.00  0.00    +0.155 C 
BRANCH  10  11
ATOM     11  C   LIG    1        5.062   4.051  -2.907  0.00  0.00    +0.130 C 
ATOM     12 CL   LIG    1        5.503   5.777  -2.866  0.00  0.00    -0.124 Cl
ENDBRANCH  10  11
ENDBRANCH   6  10
ENDBRANCH   1   3
BRANCH   1  13
ATOM     13  P   LIG    1        0.009  -0.223  -0.007  0.00  0.00    +0.352 P 
ATOM     14  O   LIG    1       -0.889   0.966   0.015  0.00  0.00    -0.257 OA
BRANCH  13  15
ATOM     15  O   LIG    1       -0.231  -1.230  -1.270  0.00  0.00    -0.307 OA
BRANCH  15  17
ATOM     16  C   LIG    1       -2.117  -2.668  -0.630  0.00  0.00    +0.034 C 
ATOM     17  C   LIG    1       -1.533  -1.663  -1.633  0.00  0.00    +0.167 C 
ENDBRANCH  15  17
ENDBRANCH  13  15
BRANCH  13  18
ATOM     18  O   LIG    1       -0.129  -1.212   1.284  0.00  0.00    -0.307 OA
BRANCH  18  19
ATOM     19  C   LIG    1       -0.194  -0.688   2.599  0.00  0.00    +0.167 C 
ATOM     20  C   LIG    1       -1.654  -0.450   3.005  0.00  0.00    +0.034 C 
ENDBRANCH  18  19
ENDBRANCH  13  18
ENDBRANCH   1  13
TORSDOF 9
