REMARK  Name = DB04829
REMARK                            x       y       z     vdW  Elec       q    Type
REMARK                         _______ _______ _______ _____ _____    ______ ____
ROOT
ATOM      1  C   LIG    1       -0.009  -2.475   0.058  0.00  0.00    +0.112 C 
ATOM      2  C   LIG    1        0.277  -2.862  -1.391  0.00  0.00    -0.007 C 
ATOM      3  C   LIG    1       -0.371  -3.850  -2.041  0.00  0.00    -0.025 C 
ATOM      4  C   LIG    1       -0.047  -4.287  -3.416  0.00  0.00    -0.011 A 
ATOM      5  C   LIG    1        0.581  -3.523  -4.407  0.00  0.00    +0.009 A 
ATOM      6  C   LIG    1        0.852  -4.062  -5.672  0.00  0.00    +0.003 A 
ATOM      7  C   LIG    1        0.525  -5.384  -6.012  0.00  0.00    +0.026 A 
ATOM      8  C   LIG    1       -0.075  -6.158  -5.012  0.00  0.00    +0.047 A 
ATOM      9  N   LIG    1       -0.532  -7.462  -4.930  0.00  0.00    -0.360 N 
ATOM     10  H   LIG    1       -0.514  -8.164  -5.656  0.00  0.00    +0.165 HD
ATOM     11  C   LIG    1       -1.034  -7.715  -3.665  0.00  0.00    +0.087 A 
ATOM     12  C   LIG    1       -0.915  -6.580  -2.879  0.00  0.00    -0.020 A 
ATOM     13  C   LIG    1       -1.212  -6.173  -1.432  0.00  0.00    +0.061 C 
ATOM     14  C   LIG    1       -0.335  -5.611  -3.745  0.00  0.00    +0.010 A 
ATOM     15  C   LIG    1       -1.533  -4.633  -1.381  0.00  0.00    +0.091 C 
ATOM     16  N   LIG    1       -1.955  -4.090  -0.075  0.00  0.00    -0.297 NA
ATOM     17  C   LIG    1       -2.895  -4.917   0.675  0.00  0.00    +0.105 C 
ATOM     18  C   LIG    1       -0.847  -3.602   0.753  0.00  0.00    +0.101 C 
ENDROOT
BRANCH   1  20
ATOM     19  O   LIG    1       -1.922  -1.033   0.297  0.00  0.00    -0.275 OA
ATOM     20  C   LIG    1       -0.697  -1.083   0.154  0.00  0.00    +0.224 C 
ATOM     21  N   LIG    1        0.051   0.053   0.055  0.00  0.00    -0.301 N 
BRANCH  21  22
ATOM     22  C   LIG    1       -0.572   1.386   0.110  0.00  0.00    +0.104 C 
ATOM     23  C   LIG    1       -1.172   1.828  -1.234  0.00  0.00    +0.024 C 
ENDBRANCH  21  22
BRANCH  21  24
ATOM     24  C   LIG    1        1.516   0.083  -0.068  0.00  0.00    +0.104 C 
ATOM     25  C   LIG    1        2.230   0.181   1.289  0.00  0.00    +0.024 C 
ENDBRANCH  21  24
ENDBRANCH   1  20
TORSDOF 3
