REMARK  Name = DB04977
REMARK                            x       y       z     vdW  Elec       q    Type
REMARK                         _______ _______ _______ _____ _____    ______ ____
ROOT
ATOM      1  N   LIG    1        2.347  -4.272   2.803  0.00  0.00    -0.289 N 
ATOM      2  C   LIG    1        0.983  -4.111   2.217  0.00  0.00    +0.189 C 
ATOM      3  C   LIG    1        0.344  -2.777   2.616  0.00  0.00    +0.328 C 
ATOM      4  O   LIG    1       -0.130  -2.555   3.731  0.00  0.00    -0.249 OA
ATOM      5  O   LIG    1        0.272  -1.937   1.548  0.00  0.00    -0.458 OA
ATOM      6  C   LIG    1       -0.363  -0.644   1.559  0.00  0.00    +0.203 C 
ATOM      7  C   LIG    1       -1.852  -0.737   2.001  0.00  0.00    +0.054 C 
ATOM      8  C   LIG    1       -0.226  -0.109   0.098  0.00  0.00    +0.200 C 
ATOM      9  C   LIG    1       -0.889   1.264  -0.177  0.00  0.00    +0.237 C 
ATOM     10  N   LIG    1       -0.326   2.428   0.197  0.00  0.00    -0.308 N 
ATOM     11  H   LIG    1       -0.810   3.256  -0.120  0.00  0.00    +0.149 HD
ATOM     12  C   LIG    1        0.807   2.731   1.087  0.00  0.00    +0.105 C 
ATOM     13  C   LIG    1        1.824   3.637   0.308  0.00  0.00    +0.146 C 
ATOM     14  C   LIG    1        3.061   4.167   1.083  0.00  0.00    +0.153 C 
ATOM     15  C   LIG    1        4.293   3.260   1.045  0.00  0.00    +0.310 C 
ATOM     16  O   LIG    1        4.986   3.190   0.031  0.00  0.00    -0.251 OA
ATOM     17  O   LIG    1        4.539   2.643   2.228  0.00  0.00    -0.453 OA
ATOM     18  C   LIG    1        5.731   1.873   2.463  0.00  0.00    +0.244 C 
ATOM     19  C   LIG    1        5.667   0.482   1.752  0.00  0.00    +0.143 C 
ATOM     20  C   LIG    1        4.821  -0.537   2.081  0.00  0.00    +0.052 C 
ATOM     21  C   LIG    1        4.689  -1.840   1.292  0.00  0.00    +0.053 C 
ATOM     22  C   LIG    1        3.878  -0.446   3.173  0.00  0.00    +0.244 C 
ATOM     23  N   LIG    1        4.207  -1.250   4.204  0.00  0.00    -0.300 N 
ATOM     24  H   LIG    1        4.941  -1.923   4.041  0.00  0.00    +0.150 HD
ATOM     25  C   LIG    1        3.684  -1.261   5.577  0.00  0.00    +0.160 C 
ATOM     26  C   LIG    1        4.164  -2.452   6.445  0.00  0.00    +0.237 C 
ATOM     27  O   LIG    1        4.353  -2.198   7.636  0.00  0.00    -0.274 OA
ATOM     28  N   LIG    1        4.418  -3.688   5.926  0.00  0.00    -0.288 N 
ATOM     29  C   LIG    1        4.928  -4.747   6.807  0.00  0.00    +0.109 C 
ATOM     30  C   LIG    1        4.596  -6.055   6.111  0.00  0.00    +0.021 C 
ATOM     31  C   LIG    1        4.704  -5.675   4.650  0.00  0.00    +0.033 C 
ATOM     32  C   LIG    1        4.153  -4.237   4.569  0.00  0.00    +0.162 C 
ATOM     33  O   LIG    1        2.937   0.343   3.168  0.00  0.00    -0.270 OA
ATOM     34  O   LIG    1       -1.949   1.261  -0.801  0.00  0.00    -0.274 OA
ATOM     35  C   LIG    1        2.662  -4.228   4.134  0.00  0.00    +0.237 C 
ATOM     36  O   LIG    1        1.816  -4.167   5.026  0.00  0.00    -0.274 OA
ATOM     37  C   LIG    1        3.284  -4.845   1.825  0.00  0.00    +0.133 C 
ENDROOT
BRANCH   8  38
ATOM     38  N   LIG    1        1.118  -0.221  -0.486  0.00  0.00    -0.299 N 
ATOM     39  H   LIG    1        1.878  -0.360   0.164  0.00  0.00    +0.150 HD
ATOM     40  C   LIG    1        1.355  -0.251  -1.812  0.00  0.00    +0.234 C 
ATOM     41  O   LIG    1        0.486  -0.096  -2.671  0.00  0.00    -0.274 OA
BRANCH  40  42
ATOM     42  C   LIG    1        2.796  -0.594  -2.236  0.00  0.00    +0.162 C 
BRANCH  42  43
ATOM     43  N   LIG    1        3.346   0.347  -3.249  0.00  0.00    -0.291 N 
ATOM     44  C   LIG    1        4.456   1.084  -2.966  0.00  0.00    +0.236 C 
ATOM     45  O   LIG    1        5.071   0.987  -1.905  0.00  0.00    -0.274 OA
ATOM     46  C   LIG    1        2.693   0.417  -4.567  0.00  0.00    +0.133 C 
BRANCH  44  47
ATOM     47  C   LIG    1        4.982   2.145  -3.971  0.00  0.00    +0.162 C 
ATOM     48  C   LIG    1        6.482   1.952  -4.279  0.00  0.00    +0.033 C 
ATOM     49  C   LIG    1        7.024   3.354  -4.468  0.00  0.00    +0.021 C 
ATOM     50  C   LIG    1        6.216   4.160  -3.463  0.00  0.00    +0.109 C 
ATOM     51  N   LIG    1        4.888   3.531  -3.454  0.00  0.00    -0.284 N 
ATOM     52  C   LIG    1        3.698   4.103  -3.107  0.00  0.00    +0.282 C 
ATOM     53  O   LIG    1        2.592   3.574  -3.240  0.00  0.00    -0.267 OA
BRANCH  52  54
ATOM     54  C   LIG    1        3.763   5.560  -2.491  0.00  0.00    +0.214 C 
ATOM     55  C   LIG    1        2.663   6.496  -2.988  0.00  0.00    +0.096 C 
ATOM     56  O   LIG    1        4.625   5.910  -1.685  0.00  0.00    -0.287 OA
ENDBRANCH  52  54
ENDBRANCH  44  47
ENDBRANCH  42  43
BRANCH  42  57
ATOM     57  C   LIG    1        2.972  -2.061  -2.724  0.00  0.00    +0.035 C 
BRANCH  57  58
ATOM     58  C   LIG    1        2.472  -3.172  -1.765  0.00  0.00    -0.015 C 
ATOM     59  C   LIG    1        0.961  -3.465  -1.916  0.00  0.00    +0.007 C 
ATOM     60  C   LIG    1        3.313  -4.455  -1.931  0.00  0.00    +0.007 C 
ENDBRANCH  57  58
ENDBRANCH  42  57
ENDBRANCH  40  42
ENDBRANCH   8  38
BRANCH  18  61
ATOM     61  C   LIG    1        6.027   1.867   3.997  0.00  0.00    +0.031 C 
ATOM     62  C   LIG    1        7.217   0.962   4.374  0.00  0.00    +0.011 C 
ATOM     63  C   LIG    1        6.260   3.293   4.536  0.00  0.00    +0.011 C 
ENDBRANCH  18  61
BRANCH  12  64
ATOM     64  C   LIG    1        0.320   3.379   2.444  0.00  0.00    +0.008 C 
ATOM     65  C   LIG    1       -1.185   3.199   2.775  0.00  0.00    +0.009 C 
BRANCH  64  66
ATOM     66  C   LIG    1        1.177   2.921   3.649  0.00  0.00    +0.002 C 
ATOM     67  C   LIG    1        1.109   3.838   4.882  0.00  0.00    +0.004 C 
ENDBRANCH  64  66
ENDBRANCH  12  64
BRANCH  13  68
ATOM     68  O   LIG    1        1.166   4.784  -0.209  0.00  0.00    -0.389 OA
ATOM     69  H   LIG    1        0.874   5.323   0.529  0.00  0.00    +0.210 HD
ENDBRANCH  13  68
BRANCH  19  70
ATOM     70  O   LIG    1        6.570   0.483   0.829  0.00  0.00    -0.507 OA
ATOM     71  H   LIG    1        6.687  -0.273   0.287  0.00  0.00    +0.292 HD
ENDBRANCH  19  70
BRANCH   2  72
ATOM     72  C   LIG    1        0.045  -5.314   2.520  0.00  0.00    +0.069 C 
BRANCH  72  73
ATOM     73  C   LIG    1       -1.212  -5.286   1.656  0.00  0.00    -0.045 A 
ATOM     74  C   LIG    1       -1.133  -5.606   0.299  0.00  0.00    +0.007 A 
ATOM     75  C   LIG    1       -2.271  -5.543  -0.499  0.00  0.00    +0.046 A 
ATOM     76  C   LIG    1       -3.505  -5.164   0.056  0.00  0.00    +0.120 A 
ATOM     77  C   LIG    1       -3.575  -4.856   1.415  0.00  0.00    +0.046 A 
ATOM     78  C   LIG    1       -2.437  -4.916   2.214  0.00  0.00    +0.007 A 
BRANCH  76  79
ATOM     79  O   LIG    1       -4.684  -5.068  -0.658  0.00  0.00    -0.495 OA
ATOM     80  C   LIG    1       -4.676  -5.352  -2.053  0.00  0.00    +0.277 C 
ENDBRANCH  76  79
ENDBRANCH  72  73
ENDBRANCH   2  72
BRANCH  25  81
ATOM     81  C   LIG    1        2.142  -1.089   5.698  0.00  0.00    +0.034 C 
BRANCH  81  82
ATOM     82  C   LIG    1        1.677   0.252   6.306  0.00  0.00    -0.015 C 
ATOM     83  C   LIG    1        0.144   0.393   6.205  0.00  0.00    +0.007 C 
ATOM     84  C   LIG    1        2.161   0.460   7.755  0.00  0.00    +0.007 C 
ENDBRANCH  81  82
ENDBRANCH  25  81
TORSDOF 17
