REMARK  Name = DB04883
REMARK                            x       y       z     vdW  Elec       q    Type
REMARK                         _______ _______ _______ _____ _____    ______ ____
ROOT
ATOM      1  C   LIG    1        1.665   0.174  -0.350  0.00  0.00    +0.325 C 
ENDROOT
BRANCH   1   2
ATOM      2  C   LIG    1        2.169   0.698  -1.738  0.00  0.00    +0.350 C 
ATOM      3  O   LIG    1        3.305   1.221  -1.783  0.00  0.00    -0.247 OA
BRANCH   2   4
ATOM      4  O   LIG    1        1.420   0.593  -2.738  0.00  0.00    -0.478 OA
ATOM      5  H   LIG    1        0.570   0.987  -2.730  0.00  0.00    +0.295 HD
ENDBRANCH   2   4
ENDBRANCH   1   2
BRANCH   1   6
ATOM      6  C   LIG    1        2.132  -1.296   0.019  0.00  0.00    +0.166 C 
BRANCH   6   7
ATOM      7  C   LIG    1        1.401  -2.294  -0.934  0.00  0.00    -0.007 A 
ATOM      8  C   LIG    1        1.934  -2.598  -2.197  0.00  0.00    +0.007 A 
ATOM      9  C   LIG    1        1.273  -3.464  -3.062  0.00  0.00    +0.000 A 
ATOM     10  C   LIG    1        0.060  -4.029  -2.678  0.00  0.00    +0.000 A 
ATOM     11  C   LIG    1       -0.496  -3.729  -1.438  0.00  0.00    +0.000 A 
ATOM     12  C   LIG    1        0.169  -2.863  -0.574  0.00  0.00    +0.007 A 
ENDBRANCH   6   7
BRANCH   6  13
ATOM     13  C   LIG    1        3.685  -1.465   0.120  0.00  0.00    -0.007 A 
ATOM     14  C   LIG    1        4.489  -0.431   0.626  0.00  0.00    +0.007 A 
ATOM     15  C   LIG    1        5.867  -0.587   0.746  0.00  0.00    +0.000 A 
ATOM     16  C   LIG    1        6.460  -1.792   0.385  0.00  0.00    +0.000 A 
ATOM     17  C   LIG    1        5.682  -2.845  -0.083  0.00  0.00    +0.000 A 
ATOM     18  C   LIG    1        4.305  -2.684  -0.206  0.00  0.00    +0.007 A 
ENDBRANCH   6  13
BRANCH   6  19
ATOM     19  O   LIG    1        1.612  -1.423   1.361  0.00  0.00    -0.363 OA
ATOM     20  C   LIG    1        1.932  -2.582   2.133  0.00  0.00    +0.195 C 
ENDBRANCH   6  19
ENDBRANCH   1   6
BRANCH   1  21
ATOM     21  O   LIG    1        0.218   0.214  -0.306  0.00  0.00    -0.444 OA
BRANCH  21  22
ATOM     22  C   LIG    1       -0.480   1.403  -0.173  0.00  0.00    +0.325 A 
ATOM     23  N   LIG    1       -1.828   1.267  -0.228  0.00  0.00    -0.159 NA
ATOM     24  C   LIG    1       -2.565   2.408  -0.101  0.00  0.00    +0.224 A 
ATOM     25  C   LIG    1       -1.964   3.657   0.080  0.00  0.00    +0.134 A 
ATOM     26  C   LIG    1       -0.560   3.701   0.128  0.00  0.00    +0.224 A 
ATOM     27  N   LIG    1        0.191   2.576   0.007  0.00  0.00    -0.159 NA
BRANCH  26  28
ATOM     28  O   LIG    1        0.192   4.846   0.297  0.00  0.00    -0.479 OA
ATOM     29  C   LIG    1       -0.482   6.093   0.421  0.00  0.00    +0.279 C 
ENDBRANCH  26  28
BRANCH  24  30
ATOM     30  O   LIG    1       -3.946   2.340  -0.151  0.00  0.00    -0.479 OA
ATOM     31  C   LIG    1       -4.579   1.077  -0.348  0.00  0.00    +0.279 C 
ENDBRANCH  24  30
ENDBRANCH  21  22
ENDBRANCH   1  21
TORSDOF 10
