REMARK  Name = DB04115
REMARK                            x       y       z     vdW  Elec       q    Type
REMARK                         _______ _______ _______ _____ _____    ______ ____
ROOT
ATOM      1  C   LIG    1        1.415   0.025  -0.006  0.00  0.00    +0.136 C 
ATOM      2  C   LIG    1        2.119  -1.188  -0.004  0.00  0.00    +0.141 C 
ATOM      3  C   LIG    1        3.542  -1.192  -0.001  0.00  0.00    +0.040 C 
ATOM      4  C   LIG    1        4.307  -2.382   0.027  0.00  0.00    +0.086 C 
ATOM      5  N   LIG    1        5.662  -2.372   0.029  0.00  0.00    -0.285 NA
ATOM      6  C   LIG    1        6.355  -3.687   0.046  0.00  0.00    +0.090 C 
ATOM      7  C   LIG    1        7.642  -3.591   0.892  0.00  0.00    +0.051 C 
ATOM      8  C   LIG    1        8.505  -2.437   0.404  0.00  0.00    -0.037 A 
ATOM      9  C   LIG    1        9.907  -2.534   0.374  0.00  0.00    +0.053 A 
ATOM     10  C   LIG    1       10.636  -1.438  -0.066  0.00  0.00    +0.167 A 
ATOM     11  O   LIG    1       11.981  -1.308  -0.202  0.00  0.00    -0.453 OA
ATOM     12  C   LIG    1       12.200   0.043  -0.513  0.00  0.00    +0.466 C 
ATOM     13  O   LIG    1       10.967   0.599  -0.885  0.00  0.00    -0.453 OA
ATOM     14  C   LIG    1       10.026  -0.291  -0.475  0.00  0.00    +0.167 A 
ATOM     15  C   LIG    1        8.643  -0.160  -0.479  0.00  0.00    +0.055 A 
ATOM     16  C   LIG    1        7.865  -1.247  -0.031  0.00  0.00    -0.018 A 
ATOM     17  C   LIG    1        6.363  -1.200  -0.026  0.00  0.00    +0.074 C 
ATOM     18  C   LIG    1        5.663   0.017  -0.039  0.00  0.00    +0.029 C 
ATOM     19  C   LIG    1        4.248   0.042  -0.028  0.00  0.00    -0.003 C 
ATOM     20  C   LIG    1        3.518   1.252  -0.041  0.00  0.00    +0.007 C 
ATOM     21  C   LIG    1        2.127   1.233  -0.027  0.00  0.00    +0.037 C 
ENDROOT
BRANCH   1  23
ATOM     22  C   LIG    1       -0.737   1.147   0.005  0.00  0.00    +0.195 C 
ATOM     23  O   LIG    1        0.034  -0.050   0.021  0.00  0.00    -0.370 OA
ENDBRANCH   1  23
BRANCH   2  24
ATOM     24  O   LIG    1        1.437  -2.382   0.029  0.00  0.00    -0.370 OA
ATOM     25  C   LIG    1        0.949  -2.813  -1.235  0.00  0.00    +0.195 C 
ENDBRANCH   2  24
TORSDOF 2
