REMARK  Name = DB04820
REMARK                            x       y       z     vdW  Elec       q    Type
REMARK                         _______ _______ _______ _____ _____    ______ ____
ROOT
ATOM      1  C   LIG    1        1.511  -0.229  -0.544  0.00  0.00    +0.111 C 
ENDROOT
BRANCH   1   2
ATOM      2  N   LIG    1        1.964  -1.579  -0.235  0.00  0.00    -0.240 NA
ATOM      3  H   LIG    1        1.580  -2.287  -0.845  0.00  0.00    +0.144 HD
BRANCH   2   4
ATOM      4  N   LIG    1        3.361  -1.667  -0.274  0.00  0.00    -0.247 N 
ATOM      5  H   LIG    1        3.751  -1.621  -1.205  0.00  0.00    +0.169 HD
ATOM      6  C   LIG    1        4.096  -1.594   0.856  0.00  0.00    +0.258 C 
ATOM      7  O   LIG    1        3.608  -1.548   1.990  0.00  0.00    -0.269 OA
BRANCH   6   8
ATOM      8  C   LIG    1        5.597  -1.604   0.671  0.00  0.00    +0.041 A 
ATOM      9  C   LIG    1        6.199  -1.198  -0.534  0.00  0.00    +0.033 A 
ATOM     10  C   LIG    1        7.590  -1.224  -0.641  0.00  0.00    +0.111 A 
ATOM     11  N   LIG    1        8.402  -1.625   0.370  0.00  0.00    -0.263 NA
ATOM     12  C   LIG    1        7.817  -2.012   1.531  0.00  0.00    +0.111 A 
ATOM     13  C   LIG    1        6.434  -2.015   1.721  0.00  0.00    +0.033 A 
ENDBRANCH   6   8
ENDBRANCH   2   4
ENDBRANCH   1   2
BRANCH   1  14
ATOM     14  C   LIG    1       -0.019  -0.136  -0.372  0.00  0.00    +0.112 C 
BRANCH  14  16
ATOM     15  O   LIG    1       -0.039   1.940  -1.600  0.00  0.00    -0.276 OA
ATOM     16  C   LIG    1       -0.611   1.222  -0.777  0.00  0.00    +0.215 C 
ATOM     17  N   LIG    1       -1.776   1.553  -0.192  0.00  0.00    -0.311 N 
ATOM     18  H   LIG    1       -2.197   0.893   0.445  0.00  0.00    +0.149 HD
BRANCH  17  19
ATOM     19  C   LIG    1       -2.545   2.767  -0.464  0.00  0.00    +0.139 C 
BRANCH  19  20
ATOM     20  C   LIG    1       -3.233   2.771  -1.824  0.00  0.00    -0.030 A 
ATOM     21  C   LIG    1       -2.727   3.557  -2.863  0.00  0.00    +0.005 A 
ATOM     22  C   LIG    1       -3.375   3.582  -4.096  0.00  0.00    +0.000 A 
ATOM     23  C   LIG    1       -4.532   2.829  -4.282  0.00  0.00    +0.000 A 
ATOM     24  C   LIG    1       -5.051   2.054  -3.246  0.00  0.00    +0.000 A 
ATOM     25  C   LIG    1       -4.403   2.030  -2.014  0.00  0.00    +0.005 A 
ENDBRANCH  19  20
ENDBRANCH  17  19
ENDBRANCH  14  16
ENDBRANCH   1  14
TORSDOF 7
