REMARK  Name = DB04787
REMARK                            x       y       z     vdW  Elec       q    Type
REMARK                         _______ _______ _______ _____ _____    ______ ____
ROOT
ATOM      1  C   LIG    1       -2.845  -3.049  -1.667  0.00  0.00    +0.061 C 
ATOM      2  C   LIG    1       -3.012  -2.516  -0.229  0.00  0.00    +0.134 C 
ATOM      3  C   LIG    1       -2.648  -3.537   0.868  0.00  0.00    +0.061 C 
ATOM      4  O   LIG    1       -4.444  -2.318  -0.075  0.00  0.00    -0.463 OA
ATOM      5  C   LIG    1       -5.012  -1.037   0.068  0.00  0.00    +0.233 C 
ATOM      6  S   LIG    1       -6.646  -0.783   0.162  0.00  0.00    +0.006 S 
ATOM      7  N   LIG    1       -4.176   0.027   0.144  0.00  0.00    -0.279 N 
ATOM      8  H   LIG    1       -4.662   0.906   0.252  0.00  0.00    +0.156 HD
ATOM      9  C   LIG    1       -2.794  -0.013   0.107  0.00  0.00    +0.041 A 
ATOM     10  C   LIG    1       -2.066   1.170   0.241  0.00  0.00    +0.024 A 
ATOM     11  C   LIG    1       -0.673   1.133   0.212  0.00  0.00    +0.012 A 
ATOM     12  C   LIG    1       -0.003  -0.082   0.054  0.00  0.00    -0.001 A 
ATOM     13  C   LIG    1       -0.749  -1.257  -0.094  0.00  0.00    +0.019 A 
ATOM     14  C   LIG    1       -2.151  -1.245  -0.060  0.00  0.00    +0.017 A 
ENDROOT
BRANCH  12  15
ATOM     15  C   LIG    1        1.490  -0.104   0.012  0.00  0.00    +0.050 A 
ATOM     16  N   LIG    1        2.296  -0.980   0.729  0.00  0.00    -0.335 N 
ATOM     17  C   LIG    1        1.822  -1.980   1.691  0.00  0.00    +0.150 C 
ATOM     18  C   LIG    1        3.622  -0.703   0.423  0.00  0.00    +0.120 A 
ATOM     19  C   LIG    1        3.644   0.349  -0.476  0.00  0.00    +0.039 A 
ATOM     20  C   LIG    1        2.328   0.725  -0.722  0.00  0.00    +0.029 A 
BRANCH  18  21
ATOM     21  C   LIG    1        4.742  -1.441   0.992  0.00  0.00    +0.117 C 
ATOM     22  N   LIG    1        5.631  -2.028   1.444  0.00  0.00    -0.189 NA
ENDBRANCH  18  21
ENDBRANCH  12  15
TORSDOF 2
