REMARK  Name = DB04839
REMARK                            x       y       z     vdW  Elec       q    Type
REMARK                         _______ _______ _______ _____ _____    ______ ____
ROOT
ATOM      1  C   LIG    1       -3.545  -1.365   5.513  0.00  0.00    +0.011 C 
ATOM      2  C   LIG    1       -4.281  -0.048   5.591  0.00  0.00    +0.016 C 
ATOM      3  C   LIG    1       -3.487  -2.202   4.190  0.00  0.00    +0.001 C 
ATOM      4  C   LIG    1       -2.929  -3.623   4.458  0.00  0.00    +0.017 C 
ATOM      5  C   LIG    1       -2.616  -1.444   3.123  0.00  0.00    +0.007 C 
ATOM      6  C   LIG    1       -1.194  -0.999   3.588  0.00  0.00    +0.005 C 
ATOM      7  C   LIG    1       -0.454  -0.175   2.503  0.00  0.00    +0.011 C 
ATOM      8  C   LIG    1       -0.354  -0.944   1.150  0.00  0.00    +0.018 C 
ATOM      9  C   LIG    1        0.528  -2.228   1.345  0.00  0.00    +0.016 C 
ATOM     10  C   LIG    1        0.109  -0.120  -0.113  0.00  0.00    +0.176 C 
ATOM     11  C   LIG    1       -0.463  -0.971  -1.299  0.00  0.00    +0.057 C 
ATOM     12  C   LIG    1       -1.694  -1.722  -0.750  0.00  0.00    +0.009 C 
ATOM     13  C   LIG    1       -1.813  -1.269   0.712  0.00  0.00    +0.006 C 
ATOM     14  C   LIG    1       -2.551  -2.172   1.735  0.00  0.00    +0.021 C 
ATOM     15  C   LIG    1       -3.952  -2.593   1.306  0.00  0.00    -0.003 C 
ATOM     16  C   LIG    1       -5.011  -2.673   2.134  0.00  0.00    +0.041 C 
ATOM     17 CL   LIG    1       -6.545  -3.187   1.406  0.00  0.00    -0.084 Cl
ATOM     18  C   LIG    1       -4.903  -2.373   3.570  0.00  0.00    -0.020 C 
ATOM     19  C   LIG    1       -6.019  -2.291   4.334  0.00  0.00    +0.052 C 
ATOM     20  C   LIG    1       -6.025  -2.017   5.760  0.00  0.00    +0.160 C 
ATOM     21  O   LIG    1       -7.000  -2.297   6.454  0.00  0.00    -0.292 OA
ATOM     22  C   LIG    1       -4.819  -1.263   6.337  0.00  0.00    +0.064 C 
ENDROOT
BRANCH  10  23
ATOM     23  C   LIG    1        1.658   0.111  -0.183  0.00  0.00    +0.174 C 
ATOM     24  O   LIG    1        2.351  -0.392  -1.067  0.00  0.00    -0.293 OA
ATOM     25  C   LIG    1        2.318   0.987   0.882  0.00  0.00    +0.090 C 
ENDBRANCH  10  23
BRANCH  10  26
ATOM     26  O   LIG    1       -0.509   1.197  -0.062  0.00  0.00    -0.450 OA
BRANCH  26  27
ATOM     27  C   LIG    1       -0.462   2.158  -1.037  0.00  0.00    +0.305 C 
ATOM     28  O   LIG    1        0.125   2.081  -2.116  0.00  0.00    -0.251 OA
ATOM     29  C   LIG    1       -1.237   3.408  -0.644  0.00  0.00    +0.136 C 
ENDBRANCH  26  27
ENDBRANCH  10  26
TORSDOF 3
