REMARK  Name = DB04564
REMARK                            x       y       z     vdW  Elec       q    Type
REMARK                         _______ _______ _______ _____ _____    ______ ____
ROOT
ATOM      1  C   LIG    1        1.477   0.039   0.082  0.00  0.00    +0.233 C 
ATOM      2  C   LIG    1        2.092   0.866   1.238  0.00  0.00    +0.189 C 
ATOM      3  C   LIG    1        3.625   0.792   1.125  0.00  0.00    +0.186 C 
ATOM      4  C   LIG    1        4.092   1.282  -0.261  0.00  0.00    +0.254 C 
ATOM      5  C   LIG    1        3.279   0.717  -1.452  0.00  0.00    +0.339 C 
ATOM      6  O   LIG    1        3.679   0.570  -2.606  0.00  0.00    -0.248 OA
ATOM      7  O   LIG    1        1.980   0.345  -1.229  0.00  0.00    -0.454 OA
ENDROOT
BRANCH   2   8
ATOM      8  O   LIG    1        1.638   0.400   2.497  0.00  0.00    -0.385 OA
ATOM      9  H   LIG    1        0.724   0.671   2.612  0.00  0.00    +0.210 HD
ENDBRANCH   2   8
BRANCH   3  10
ATOM     10  O   LIG    1        4.268   1.520   2.158  0.00  0.00    -0.386 OA
ATOM     11  H   LIG    1        4.021   2.444   2.082  0.00  0.00    +0.210 HD
ENDBRANCH   3  10
BRANCH   4  12
ATOM     12  O   LIG    1        5.476   1.077  -0.489  0.00  0.00    -0.378 OA
ATOM     13  H   LIG    1        5.730   1.550  -1.285  0.00  0.00    +0.211 HD
ENDBRANCH   4  12
BRANCH   1  14
ATOM     14  C   LIG    1       -0.068   0.075   0.032  0.00  0.00    +0.203 C 
BRANCH  14  15
ATOM     15  O   LIG    1       -0.564   1.389  -0.140  0.00  0.00    -0.391 OA
ATOM     16  H   LIG    1       -1.522   1.350  -0.195  0.00  0.00    +0.210 HD
ENDBRANCH  14  15
ENDBRANCH   1  14
TORSDOF 5
