REMARK  Name = DB04855
REMARK                            x       y       z     vdW  Elec       q    Type
REMARK                         _______ _______ _______ _____ _____    ______ ____
ROOT
ATOM      1  C   LIG    1       -1.980   5.277  -0.244  0.00  0.00    +0.197 C 
ATOM      2  O   LIG    1       -3.108   5.436  -0.713  0.00  0.00    -0.287 OA
ENDROOT
BRANCH   1   8
ATOM      3  C   LIG    1       -1.716   9.747  -1.629  0.00  0.00    +0.048 A 
ATOM      4  C   LIG    1       -0.887  10.495  -0.780  0.00  0.00    +0.028 A 
ATOM      5  C   LIG    1       -0.253   9.916   0.319  0.00  0.00    +0.049 A 
ATOM      6  C   LIG    1       -0.483   8.555   0.539  0.00  0.00    +0.136 A 
ATOM      7  C   LIG    1       -1.310   7.768  -0.290  0.00  0.00    +0.033 A 
ATOM      8  C   LIG    1       -1.261   6.446   0.272  0.00  0.00    +0.071 A 
ATOM      9  C   LIG    1       -0.460   6.551   1.417  0.00  0.00    +0.117 A 
ATOM     10  O   LIG    1        0.034   7.816   1.559  0.00  0.00    -0.459 OA
ATOM     11  C   LIG    1       -1.934   8.386  -1.389  0.00  0.00    +0.036 A 
BRANCH   3  12
ATOM     12  N   LIG    1       -2.364  10.316  -2.736  0.00  0.00    -0.221 N 
ATOM     13  H   LIG    1       -2.958   9.713  -3.286  0.00  0.00    +0.173 HD
BRANCH  12  14
ATOM     14  S   LIG    1       -1.938  11.895  -3.424  0.00  0.00    +0.040 S 
ATOM     15  C   LIG    1       -3.034  11.974  -4.956  0.00  0.00    +0.218 C 
ATOM     16  O   LIG    1       -0.532  11.815  -3.835  0.00  0.00    -0.155 OA
ATOM     17  O   LIG    1       -2.373  12.913  -2.462  0.00  0.00    -0.155 OA
ENDBRANCH  12  14
ENDBRANCH   3  12
BRANCH   9  18
ATOM     18  C   LIG    1       -0.071   5.591   2.530  0.00  0.00    +0.075 C 
BRANCH  18  19
ATOM     19  C   LIG    1       -0.459   6.095   3.935  0.00  0.00    +0.007 C 
BRANCH  19  20
ATOM     20  C   LIG    1       -1.977   6.276   4.137  0.00  0.00    -0.003 C 
ATOM     21  C   LIG    1       -2.339   6.738   5.555  0.00  0.00    +0.004 C 
ENDBRANCH  19  20
ENDBRANCH  18  19
ENDBRANCH   9  18
ENDBRANCH   1   8
BRANCH   1  22
ATOM     22  C   LIG    1       -1.334   3.921  -0.225  0.00  0.00    +0.023 A 
ATOM     23  C   LIG    1        0.059   3.769  -0.175  0.00  0.00    +0.015 A 
ATOM     24  C   LIG    1        0.634   2.502  -0.189  0.00  0.00    +0.046 A 
ATOM     25  C   LIG    1       -0.173   1.358  -0.269  0.00  0.00    +0.121 A 
ATOM     26  C   LIG    1       -1.556   1.509  -0.351  0.00  0.00    +0.046 A 
ATOM     27  C   LIG    1       -2.133   2.776  -0.340  0.00  0.00    +0.015 A 
BRANCH  25  28
ATOM     28  O   LIG    1        0.308   0.063  -0.280  0.00  0.00    -0.492 OA
BRANCH  28  29
ATOM     29  C   LIG    1        1.714  -0.162  -0.197  0.00  0.00    +0.230 C 
BRANCH  29  30
ATOM     30  C   LIG    1        1.992  -1.672  -0.141  0.00  0.00    +0.056 C 
BRANCH  30  31
ATOM     31  C   LIG    1        1.377  -2.347   1.103  0.00  0.00    +0.087 C 
BRANCH  31  32
ATOM     32  N   LIG    1        1.767  -3.754   1.303  0.00  0.00    -0.302 NA
BRANCH  32  33
ATOM     33  C   LIG    1        1.307  -4.617   0.203  0.00  0.00    +0.084 C 
BRANCH  33  34
ATOM     34  C   LIG    1        2.415  -4.877  -0.839  0.00  0.00    +0.015 C 
BRANCH  34  35
ATOM     35  C   LIG    1        1.877  -5.504  -2.136  0.00  0.00    -0.002 C 
ATOM     36  C   LIG    1        2.985  -5.837  -3.145  0.00  0.00    +0.004 C 
ENDBRANCH  34  35
ENDBRANCH  33  34
ENDBRANCH  32  33
BRANCH  32  37
ATOM     37  C   LIG    1        1.249  -4.266   2.582  0.00  0.00    +0.084 C 
BRANCH  37  38
ATOM     38  C   LIG    1        1.822  -3.576   3.842  0.00  0.00    +0.015 C 
BRANCH  38  39
ATOM     39  C   LIG    1        3.359  -3.602   3.949  0.00  0.00    -0.002 C 
ATOM     40  C   LIG    1        3.877  -2.993   5.258  0.00  0.00    +0.004 C 
ENDBRANCH  38  39
ENDBRANCH  37  38
ENDBRANCH  32  37
ENDBRANCH  31  32
ENDBRANCH  30  31
ENDBRANCH  29  30
ENDBRANCH  28  29
ENDBRANCH  25  28
ENDBRANCH   1  22
TORSDOF 18
