REMARK  Name = DB04920
REMARK                            x       y       z     vdW  Elec       q    Type
REMARK                         _______ _______ _______ _____ _____    ______ ____
ROOT
ATOM      1  C   LIG    1       -0.648  -1.234  -0.199  0.00  0.00    +0.097 C 
ATOM      2  C   LIG    1        0.005   0.181  -0.058  0.00  0.00    +0.065 C 
ATOM      3  C   LIG    1       -0.752   1.315  -0.002  0.00  0.00    +0.016 C 
ATOM      4  C   LIG    1       -0.281   2.761   0.151  0.00  0.00    +0.061 C 
ATOM      5  N   LIG    1       -2.123   1.226   0.024  0.00  0.00    -0.321 N 
ATOM      6  H   LIG    1       -2.643   2.091  -0.021  0.00  0.00    +0.152 HD
ATOM      7  C   LIG    1       -2.848   0.058   0.007  0.00  0.00    +0.016 C 
ATOM      8  C   LIG    1       -4.344   0.326   0.172  0.00  0.00    +0.061 C 
ATOM      9  C   LIG    1       -2.204  -1.143  -0.051  0.00  0.00    +0.065 C 
ENDROOT
BRANCH   1  15
ATOM     10  C   LIG    1        0.494  -3.154  -3.939  0.00  0.00    +0.021 A 
ATOM     11  C   LIG    1        0.830  -3.780  -2.740  0.00  0.00    +0.060 A 
ATOM     12 CL   LIG    1        1.670  -5.291  -2.815  0.00  0.00    -0.082 Cl
ATOM     13  C   LIG    1        0.485  -3.191  -1.513  0.00  0.00    +0.063 A 
ATOM     14 CL   LIG    1        0.936  -3.999  -0.042  0.00  0.00    -0.082 Cl
ATOM     15  C   LIG    1       -0.216  -1.963  -1.498  0.00  0.00    -0.015 A 
ATOM     16  C   LIG    1       -0.542  -1.356  -2.719  0.00  0.00    +0.006 A 
ATOM     17  C   LIG    1       -0.190  -1.943  -3.930  0.00  0.00    +0.002 A 
ENDBRANCH   1  15
BRANCH   2  18
ATOM     18  C   LIG    1        1.494   0.241  -0.115  0.00  0.00    +0.340 C 
ATOM     19  O   LIG    1        2.123   1.254  -0.437  0.00  0.00    -0.245 OA
BRANCH  18  20
ATOM     20  O   LIG    1        2.088  -0.949   0.204  0.00  0.00    -0.424 OA
BRANCH  20  21
ATOM     21  C   LIG    1        3.480  -1.014   0.117  0.00  0.00    +0.473 C 
BRANCH  21  22
ATOM     22  O   LIG    1        3.899  -2.337   0.262  0.00  0.00    -0.427 OA
BRANCH  22  23
ATOM     23  C   LIG    1        5.230  -2.570   0.115  0.00  0.00    +0.310 C 
ATOM     24  O   LIG    1        6.113  -1.731  -0.078  0.00  0.00    -0.251 OA
BRANCH  23  25
ATOM     25  C   LIG    1        5.573  -4.061   0.211  0.00  0.00    +0.120 C 
BRANCH  25  26
ATOM     26  C   LIG    1        4.866  -4.948  -0.837  0.00  0.00    +0.008 C 
ATOM     27  C   LIG    1        5.221  -4.620  -2.297  0.00  0.00    +0.004 C 
ENDBRANCH  25  26
ENDBRANCH  23  25
ENDBRANCH  22  23
ENDBRANCH  21  22
ENDBRANCH  20  21
ENDBRANCH  18  20
ENDBRANCH   2  18
BRANCH   9  28
ATOM     28  C   LIG    1       -2.960  -2.427  -0.102  0.00  0.00    +0.337 C 
ATOM     29  O   LIG    1       -4.143  -2.515  -0.440  0.00  0.00    -0.245 OA
BRANCH  28  30
ATOM     30  O   LIG    1       -2.212  -3.505   0.239  0.00  0.00    -0.465 OA
ATOM     31  C   LIG    1       -2.758  -4.816   0.218  0.00  0.00    +0.280 C 
ENDBRANCH  28  30
ENDBRANCH   9  28
TORSDOF 10
