REMARK  Name = DB04849
REMARK                            x       y       z     vdW  Elec       q    Type
REMARK                         _______ _______ _______ _____ _____    ______ ____
ROOT
ATOM      1  C   LIG    1        1.309   0.215  -0.704  0.00  0.00    +0.164 A 
ATOM      2  C   LIG    1        2.097   1.371  -0.821  0.00  0.00    +0.078 A 
ATOM      3  C   LIG    1        3.458   1.285  -1.187  0.00  0.00    +0.082 A 
ATOM      4  N   LIG    1        4.192   2.431  -1.288  0.00  0.00    -0.235 NA
ATOM      5  C   LIG    1        5.493   2.292  -1.642  0.00  0.00    +0.225 A 
ATOM      6  N   LIG    1        6.143   1.135  -1.909  0.00  0.00    -0.201 NA
ATOM      7  C   LIG    1        5.403  -0.006  -1.808  0.00  0.00    +0.231 A 
ATOM      8  C   LIG    1        4.029   0.005  -1.443  0.00  0.00    +0.066 A 
ATOM      9  C   LIG    1        3.222  -1.150  -1.322  0.00  0.00    +0.064 A 
ATOM     10  C   LIG    1        1.871  -1.045  -0.955  0.00  0.00    +0.162 A 
ENDROOT
BRANCH  10  11
ATOM     11  O   LIG    1        1.030  -2.137  -0.824  0.00  0.00    -0.491 OA
ATOM     12  C   LIG    1        1.534  -3.446  -1.070  0.00  0.00    +0.277 C 
ENDBRANCH  10  11
BRANCH   1  13
ATOM     13  O   LIG    1       -0.028   0.240  -0.346  0.00  0.00    -0.488 OA
BRANCH  13  14
ATOM     14  C   LIG    1       -0.676   1.487  -0.109  0.00  0.00    +0.227 C 
BRANCH  14  15
ATOM     15  C   LIG    1       -2.146   1.237   0.261  0.00  0.00    +0.022 C 
BRANCH  15  16
ATOM     16  C   LIG    1       -2.922   0.489  -0.838  0.00  0.00    -0.076 C 
BRANCH  16  18
ATOM     17  C   LIG    1       -5.243   1.547  -0.333  0.00  0.00    -0.079 C 
ATOM     18  N   LIG    1       -4.386   0.264  -0.403  0.00  0.00    +0.380 N 
ATOM     19  H   LIG    1       -4.382  -0.178   0.506  0.00  0.00    -0.082 HD
ATOM     20  C   LIG    1       -5.157  -0.667  -1.352  0.00  0.00    -0.079 C 
ATOM     21  C   LIG    1       -6.612  -0.382  -1.002  0.00  0.00    -0.020 C 
ATOM     22  C   LIG    1       -6.661   1.121  -0.742  0.00  0.00    -0.020 C 
ENDBRANCH  16  18
ENDBRANCH  15  16
ENDBRANCH  14  15
ENDBRANCH  13  14
ENDBRANCH   1  13
BRANCH   7  23
ATOM     23  O   LIG    1        6.017  -1.222  -2.071  0.00  0.00    -0.434 OA
BRANCH  23  24
ATOM     24  C   LIG    1        7.340  -1.300  -2.447  0.00  0.00    +0.166 A 
ATOM     25  C   LIG    1        8.316  -1.579  -1.488  0.00  0.00    +0.175 A 
ATOM     26  F   LIG    1        7.970  -1.771  -0.193  0.00  0.00    -0.201 F 
ATOM     27  C   LIG    1        9.661  -1.653  -1.883  0.00  0.00    +0.039 A 
ATOM     28  C   LIG    1       10.898  -1.907  -1.204  0.00  0.00    +0.033 A 
ATOM     29  C   LIG    1       11.918  -1.850  -2.134  0.00  0.00    +0.014 A 
ATOM     30  C   LIG    1       13.410  -2.035  -1.996  0.00  0.00    +0.063 C 
ATOM     31  N   LIG    1       11.355  -1.570  -3.357  0.00  0.00    -0.358 N 
ATOM     32  H   LIG    1       11.913  -1.479  -4.194  0.00  0.00    +0.166 HD
ATOM     33  C   LIG    1        9.986  -1.444  -3.255  0.00  0.00    +0.050 A 
ATOM     34  C   LIG    1        9.012  -1.170  -4.221  0.00  0.00    +0.030 A 
ATOM     35  C   LIG    1        7.689  -1.106  -3.784  0.00  0.00    +0.051 A 
ENDBRANCH  23  24
ENDBRANCH   7  23
TORSDOF 8
