REMARK  Name = DB04910
REMARK                            x       y       z     vdW  Elec       q    Type
REMARK                         _______ _______ _______ _____ _____    ______ ____
ROOT
ATOM      1  C   LIG    1        1.323   0.092   0.000  0.00  0.00    +0.123 A 
ATOM      2  C   LIG    1        1.910  -1.180   0.000  0.00  0.00    +0.048 A 
ATOM      3  C   LIG    1        3.298  -1.333  -0.000  0.00  0.00    +0.031 A 
ATOM      4  C   LIG    1        4.108  -0.200  -0.000  0.00  0.00    +0.066 A 
ATOM      5  C   LIG    1        3.543   1.067  -0.000  0.00  0.00    +0.069 A 
ATOM      6  N   LIG    1        4.592   1.982  -0.000  0.00  0.00    -0.326 N 
ATOM      7  H   LIG    1        4.476   2.985  -0.000  0.00  0.00    +0.169 HD
ATOM      8  C   LIG    1        5.856   1.344  -0.001  0.00  0.00    +0.201 A 
ATOM      9  N   LIG    1        6.993   1.935  -0.001  0.00  0.00    -0.109 NA
ATOM     10  N   LIG    1        5.489  -0.031  -0.001  0.00  0.00    -0.326 N 
ATOM     11  H   LIG    1        6.159  -0.786  -0.001  0.00  0.00    +0.169 HD
ATOM     12  C   LIG    1        2.158   1.226   0.000  0.00  0.00    +0.073 A 
ENDROOT
BRANCH   9  13
ATOM     13  C   LIG    1        8.194   1.230  -0.002  0.00  0.00    +0.427 C 
ATOM     14  O   LIG    1        8.350   0.001  -0.002  0.00  0.00    -0.224 OA
BRANCH  13  15
ATOM     15  O   LIG    1        9.209   2.120  -0.002  0.00  0.00    -0.452 OA
ATOM     16  C   LIG    1       10.561   1.685  -0.003  0.00  0.00    +0.282 C 
ENDBRANCH  13  15
ENDBRANCH   9  13
BRANCH   1  17
ATOM     17  O   LIG    1       -0.058   0.137   0.000  0.00  0.00    -0.492 OA
BRANCH  17  18
ATOM     18  C   LIG    1       -0.715   1.401   0.000  0.00  0.00    +0.229 C 
BRANCH  18  19
ATOM     19  C   LIG    1       -2.233   1.169   0.000  0.00  0.00    +0.038 C 
ATOM     20  C   LIG    1       -3.038   2.475   0.000  0.00  0.00    +0.007 C 
ENDBRANCH  18  19
ENDBRANCH  17  18
ENDBRANCH   1  17
TORSDOF 5
