REMARK  Name = DB04816
REMARK                            x       y       z     vdW  Elec       q    Type
REMARK                         _______ _______ _______ _____ _____    ______ ____
ROOT
ATOM      1  O   LIG    1        0.086  -2.560   0.000  0.00  0.00    -0.286 OA
ATOM      2  C   LIG    1        1.318  -2.518   0.000  0.00  0.00    +0.202 C 
ATOM      3  C   LIG    1        2.143  -3.790   0.000  0.00  0.00    +0.075 A 
ATOM      4  C   LIG    1        1.537  -5.074   0.000  0.00  0.00    +0.128 A 
ATOM      5  C   LIG    1        2.313  -6.231   0.000  0.00  0.00    +0.046 A 
ATOM      6  C   LIG    1        3.696  -6.151   0.000  0.00  0.00    +0.004 A 
ATOM      7  C   LIG    1        4.313  -4.908   0.000  0.00  0.00    +0.012 A 
ATOM      8  C   LIG    1        3.561  -3.721   0.000  0.00  0.00    +0.037 A 
ATOM      9  C   LIG    1        4.299  -2.415   0.000  0.00  0.00    +0.195 C 
ATOM     10  C   LIG    1        3.473  -1.163   0.000  0.00  0.00    +0.037 A 
ATOM     11  C   LIG    1        4.142   0.072   0.000  0.00  0.00    +0.012 A 
ATOM     12  C   LIG    1        3.442   1.271   0.000  0.00  0.00    +0.004 A 
ATOM     13  C   LIG    1        2.056   1.256   0.000  0.00  0.00    +0.046 A 
ATOM     14  C   LIG    1        1.361   0.048   0.000  0.00  0.00    +0.128 A 
ATOM     15  O   LIG    1        5.533  -2.373   0.000  0.00  0.00    -0.287 OA
ATOM     16  C   LIG    1        2.054  -1.192   0.000  0.00  0.00    +0.075 A 
ENDROOT
BRANCH   4  17
ATOM     17  O   LIG    1        0.176  -5.266   0.000  0.00  0.00    -0.506 OA
ATOM     18  H   LIG    1       -0.071  -6.193   0.000  0.00  0.00    +0.292 HD
ENDBRANCH   4  17
BRANCH  14  19
ATOM     19  O   LIG    1       -0.009   0.146   0.000  0.00  0.00    -0.506 OA
ATOM     20  H   LIG    1       -0.319   1.054   0.000  0.00  0.00    +0.292 HD
ENDBRANCH  14  19
TORSDOF 2
