REMARK  Name = DB04912
REMARK                            x       y       z     vdW  Elec       q    Type
REMARK                         _______ _______ _______ _____ _____    ______ ____
ROOT
ATOM      1  C   LIG    1       -7.309   3.709   1.961  0.00  0.00    -0.019 A 
ATOM      2  C   LIG    1       -6.528   2.622   1.604  0.00  0.00    +0.045 A 
ATOM      3  N   LIG    1       -5.264   3.035   1.384  0.00  0.00    -0.355 N 
ATOM      4  H   LIG    1       -4.489   2.455   1.105  0.00  0.00    +0.166 HD
ATOM      5  C   LIG    1       -5.221   4.365   1.595  0.00  0.00    +0.045 A 
ATOM      6  C   LIG    1       -4.085   5.167   1.452  0.00  0.00    +0.051 C 
ATOM      7  C   LIG    1       -2.795   4.777   1.082  0.00  0.00    +0.045 A 
ATOM      8  C   LIG    1       -1.709   5.620   0.932  0.00  0.00    -0.022 A 
ATOM      9  C   LIG    1       -1.698   7.126   1.145  0.00  0.00    +0.046 C 
ATOM     10  C   LIG    1       -0.646   4.835   0.531  0.00  0.00    -0.019 A 
ATOM     11  C   LIG    1       -1.111   3.530   0.481  0.00  0.00    +0.045 A 
ATOM     12  C   LIG    1       -0.373   2.391   0.142  0.00  0.00    +0.051 C 
ATOM     13  C   LIG    1       -0.813   1.067   0.054  0.00  0.00    +0.045 A 
ATOM     14  N   LIG    1       -2.080   0.656   0.262  0.00  0.00    -0.355 N 
ATOM     15  H   LIG    1       -2.861   1.242   0.508  0.00  0.00    +0.166 HD
ATOM     16  C   LIG    1       -2.120  -0.676   0.061  0.00  0.00    +0.045 A 
ATOM     17  C   LIG    1       -3.260  -1.476   0.177  0.00  0.00    +0.051 C 
ATOM     18  C   LIG    1       -4.555  -1.084   0.527  0.00  0.00    +0.045 A 
ATOM     19  C   LIG    1       -5.657  -1.915   0.635  0.00  0.00    -0.019 A 
ATOM     20  C   LIG    1       -6.715  -1.121   1.031  0.00  0.00    -0.022 A 
ATOM     21  C   LIG    1       -8.138  -1.586   1.304  0.00  0.00    +0.046 C 
ATOM     22  C   LIG    1       -6.231   0.172   1.128  0.00  0.00    +0.045 A 
ATOM     23  N   LIG    1       -4.922   0.178   0.820  0.00  0.00    -0.355 N 
ATOM     24  H   LIG    1       -4.318   0.985   0.815  0.00  0.00    +0.166 HD
ATOM     25  C   LIG    1       -0.856  -1.126  -0.277  0.00  0.00    -0.022 A 
ATOM     26  C   LIG    1       -0.458  -2.560  -0.597  0.00  0.00    +0.046 C 
ATOM     27  C   LIG    1       -0.023  -0.026  -0.261  0.00  0.00    -0.019 A 
ATOM     28  N   LIG    1       -2.416   3.515   0.811  0.00  0.00    -0.355 N 
ATOM     29  H   LIG    1       -3.006   2.699   0.848  0.00  0.00    +0.166 HD
ATOM     30  C   LIG    1       -6.972   1.302   1.488  0.00  0.00    +0.051 C 
ATOM     31  C   LIG    1       -6.477   4.810   1.970  0.00  0.00    -0.022 A 
ATOM     32  C   LIG    1       -6.873   6.238   2.317  0.00  0.00    +0.046 C 
ENDROOT
BRANCH   1  34
ATOM     33  C   LIG    1       -9.073   3.401   3.768  0.00  0.00    +0.009 C 
ATOM     34  C   LIG    1       -8.798   3.708   2.290  0.00  0.00    +0.034 C 
ENDBRANCH   1  34
BRANCH  19  35
ATOM     35  C   LIG    1       -5.702  -3.417   0.379  0.00  0.00    +0.034 C 
ATOM     36  C   LIG    1       -5.303  -4.234   1.615  0.00  0.00    +0.009 C 
ENDBRANCH  19  35
BRANCH  10  37
ATOM     37  C   LIG    1        0.753   5.351   0.188  0.00  0.00    +0.048 C 
BRANCH  37  38
ATOM     38  C   LIG    1        0.824   6.176  -1.128  0.00  0.00    +0.125 C 
BRANCH  38  39
ATOM     39  C   LIG    1        0.261   5.460  -2.379  0.00  0.00    +0.305 C 
ATOM     40  O   LIG    1        0.517   4.245  -2.544  0.00  0.00    -0.251 OA
BRANCH  39  41
ATOM     41  O   LIG    1       -0.413   6.153  -3.174  0.00  0.00    -0.481 OA
ATOM     42  H   LIG    1       -0.568   7.059  -2.991  0.00  0.00    +0.295 HD
ENDBRANCH  39  41
ENDBRANCH  38  39
ENDBRANCH  37  38
ENDBRANCH  10  37
BRANCH  27  43
ATOM     43  C   LIG    1        1.477  -0.037  -0.539  0.00  0.00    +0.048 C 
BRANCH  43  44
ATOM     44  C   LIG    1        1.806   0.163  -2.040  0.00  0.00    +0.125 C 
BRANCH  44  45
ATOM     45  C   LIG    1        3.307   0.035  -2.396  0.00  0.00    +0.305 C 
ATOM     46  O   LIG    1        3.576  -0.163  -3.602  0.00  0.00    -0.251 OA
BRANCH  45  47
ATOM     47  O   LIG    1        4.173   0.150  -1.496  0.00  0.00    -0.481 OA
ATOM     48  H   LIG    1        3.910   0.297  -0.609  0.00  0.00    +0.295 HD
ENDBRANCH  45  47
ENDBRANCH  44  45
ENDBRANCH  43  44
ENDBRANCH  27  43
TORSDOF 10
