REMARK  Name = DB04884
REMARK                            x       y       z     vdW  Elec       q    Type
REMARK                         _______ _______ _______ _____ _____    ______ ____
ROOT
ATOM      1  C   LIG    1        2.332  -1.219   0.003  0.00  0.00    +0.228 C 
ENDROOT
BRANCH   1   2
ATOM      2  O   LIG    1        1.817  -2.023  -1.055  0.00  0.00    -0.491 OA
BRANCH   2   3
ATOM      3  C   LIG    1        2.144  -3.366  -1.124  0.00  0.00    +0.128 A 
ATOM      4  C   LIG    1        3.083  -3.978  -0.280  0.00  0.00    +0.046 A 
ATOM      5  C   LIG    1        3.382  -5.330  -0.393  0.00  0.00    +0.004 A 
ATOM      6  C   LIG    1        2.757  -6.116  -1.353  0.00  0.00    +0.009 A 
ATOM      7  C   LIG    1        1.804  -5.548  -2.230  0.00  0.00    -0.014 A 
ATOM      8  C   LIG    1        1.153  -6.330  -3.217  0.00  0.00    +0.008 A 
ATOM      9  C   LIG    1        0.215  -5.753  -4.067  0.00  0.00    +0.001 A 
ATOM     10  C   LIG    1       -0.098  -4.403  -3.961  0.00  0.00    +0.001 A 
ATOM     11  C   LIG    1        0.524  -3.606  -3.004  0.00  0.00    +0.012 A 
ATOM     12  C   LIG    1        1.490  -4.156  -2.116  0.00  0.00    +0.024 A 
ENDBRANCH   2   3
ENDBRANCH   1   2
BRANCH   1  13
ATOM     13  C   LIG    1        1.646   0.160  -0.041  0.00  0.00    +0.030 C 
BRANCH  13  14
ATOM     14  C   LIG    1        0.090   0.111  -0.055  0.00  0.00    -0.035 C 
BRANCH  14  15
ATOM     15  C   LIG    1       -0.476  -0.801   1.038  0.00  0.00    -0.061 A 
ATOM     16  C   LIG    1       -0.341  -0.456   2.388  0.00  0.00    +0.002 A 
ATOM     17  C   LIG    1       -0.839  -1.301   3.376  0.00  0.00    +0.000 A 
ATOM     18  C   LIG    1       -1.469  -2.490   3.014  0.00  0.00    +0.000 A 
ATOM     19  C   LIG    1       -1.604  -2.843   1.673  0.00  0.00    +0.000 A 
ATOM     20  C   LIG    1       -1.107  -1.998   0.685  0.00  0.00    +0.002 A 
ENDBRANCH  14  15
BRANCH  14  21
ATOM     21  N   LIG    1       -0.527   1.541  -0.035  0.00  0.00    +0.381 N 
ATOM     22  H   LIG    1       -0.332   1.927   0.878  0.00  0.00    -0.082 HD
ATOM     23  C   LIG    1        0.069   2.517  -1.073  0.00  0.00    -0.096 C 
ATOM     24  C   LIG    1       -2.065   1.511  -0.181  0.00  0.00    -0.096 C 
ENDBRANCH  14  21
ENDBRANCH  13  14
ENDBRANCH   1  13
TORSDOF 6
