REMARK  Name = DB04938
REMARK                            x       y       z     vdW  Elec       q    Type
REMARK                         _______ _______ _______ _____ _____    ______ ____
ROOT
ATOM      1  C   LIG    1       -0.745   1.231  -0.038  0.00  0.00    -0.031 C 
ATOM      2  C   LIG    1       -0.012   0.076  -0.040  0.00  0.00    -0.007 C 
ENDROOT
BRANCH   1   3
ATOM      3  C   LIG    1       -0.117   2.579   0.019  0.00  0.00    -0.021 A 
ATOM      4  C   LIG    1       -0.377   3.525  -0.979  0.00  0.00    +0.008 A 
ATOM      5  C   LIG    1        0.210   4.786  -0.922  0.00  0.00    +0.001 A 
ATOM      6  C   LIG    1        1.057   5.106   0.136  0.00  0.00    +0.000 A 
ATOM      7  C   LIG    1        1.321   4.176   1.138  0.00  0.00    +0.001 A 
ATOM      8  C   LIG    1        0.734   2.915   1.080  0.00  0.00    +0.008 A 
ENDBRANCH   1   3
BRANCH   2   9
ATOM      9  C   LIG    1       -0.636  -1.271   0.009  0.00  0.00    -0.017 A 
ATOM     10  C   LIG    1       -0.438  -2.174  -1.041  0.00  0.00    +0.008 A 
ATOM     11  C   LIG    1       -1.013  -3.441  -0.995  0.00  0.00    +0.001 A 
ATOM     12  C   LIG    1       -1.781  -3.810   0.107  0.00  0.00    +0.000 A 
ATOM     13  C   LIG    1       -1.977  -2.924   1.163  0.00  0.00    +0.001 A 
ATOM     14  C   LIG    1       -1.403  -1.657   1.116  0.00  0.00    +0.008 A 
ENDBRANCH   2   9
BRANCH   2  15
ATOM     15  C   LIG    1        1.477   0.047  -0.101  0.00  0.00    -0.017 A 
ATOM     16  C   LIG    1        2.166   0.745  -1.098  0.00  0.00    +0.012 A 
ATOM     17  C   LIG    1        3.557   0.733  -1.138  0.00  0.00    +0.046 A 
ATOM     18  C   LIG    1        4.285   0.012  -0.179  0.00  0.00    +0.121 A 
ATOM     19  C   LIG    1        3.596  -0.696   0.805  0.00  0.00    +0.046 A 
ATOM     20  C   LIG    1        2.205  -0.681   0.846  0.00  0.00    +0.012 A 
BRANCH  18  21
ATOM     21  O   LIG    1        5.665  -0.052  -0.133  0.00  0.00    -0.490 OA
BRANCH  21  22
ATOM     22  C   LIG    1        6.431   0.673  -1.091  0.00  0.00    +0.256 C 
BRANCH  22  23
ATOM     23  C   LIG    1        7.920   0.452  -0.795  0.00  0.00    +0.196 C 
BRANCH  23  24
ATOM     24  O   LIG    1        8.724   1.147  -1.725  0.00  0.00    -0.392 OA
ATOM     25  H   LIG    1        9.646   0.980  -1.518  0.00  0.00    +0.210 HD
ENDBRANCH  23  24
ENDBRANCH  22  23
ENDBRANCH  21  22
ENDBRANCH  18  21
ENDBRANCH   2  15
BRANCH   1  26
ATOM     26  C   LIG    1       -2.280   1.258  -0.060  0.00  0.00    +0.052 C 
BRANCH  26  28
ATOM     27 CL   LIG    1       -4.688   1.749   1.128  0.00  0.00    -0.125 Cl
ATOM     28  C   LIG    1       -2.910   1.780   1.242  0.00  0.00    +0.113 C 
ENDBRANCH  26  28
ENDBRANCH   1  26
TORSDOF 9
