REMARK  Name = DB04880
REMARK                            x       y       z     vdW  Elec       q    Type
REMARK                         _______ _______ _______ _____ _____    ______ ____
ROOT
ATOM      1  C   LIG    1        0.056   0.141  -0.407  0.00  0.00    +0.211 C 
ATOM      2  O   LIG    1       -0.501  -0.879  -0.821  0.00  0.00    -0.285 OA
ENDROOT
BRANCH   1   3
ATOM      3  C   LIG    1       -0.726   1.378  -0.236  0.00  0.00    +0.110 A 
ATOM      4  C   LIG    1       -0.556   2.461   0.530  0.00  0.00    +0.044 A 
ATOM      5  C   LIG    1        0.432   2.920   1.589  0.00  0.00    +0.066 C 
ATOM      6  N   LIG    1       -1.604   3.269   0.299  0.00  0.00    -0.310 N 
ATOM      7  H   LIG    1       -1.745   4.151   0.769  0.00  0.00    +0.170 HD
ATOM      8  C   LIG    1       -2.455   2.733  -0.593  0.00  0.00    +0.325 A 
ATOM      9  O   LIG    1       -3.503   3.207  -1.026  0.00  0.00    -0.247 OA
ATOM     10  N   LIG    1       -1.887   1.552  -0.895  0.00  0.00    -0.303 N 
ATOM     11  H   LIG    1       -2.279   0.869  -1.527  0.00  0.00    +0.171 HD
ENDBRANCH   1   3
BRANCH   1  15
ATOM     12  C   LIG    1        4.182  -0.086   0.745  0.00  0.00    +0.008 A 
ATOM     13  C   LIG    1        3.317  -1.141   1.029  0.00  0.00    +0.015 A 
ATOM     14  C   LIG    1        1.976  -1.062   0.663  0.00  0.00    +0.013 A 
ATOM     15  C   LIG    1        1.485   0.087   0.030  0.00  0.00    +0.024 A 
ATOM     16  C   LIG    1        2.366   1.131  -0.280  0.00  0.00    +0.013 A 
ATOM     17  C   LIG    1        3.708   1.051   0.085  0.00  0.00    +0.015 A 
BRANCH  12  18
ATOM     18  S   LIG    1        5.881  -0.232   1.230  0.00  0.00    -0.129 S 
ATOM     19  C   LIG    1        6.765   1.276   0.743  0.00  0.00    +0.090 C 
ENDBRANCH  12  18
ENDBRANCH   1  15
TORSDOF 3
