REMARK  Name = DB04996
REMARK                            x       y       z     vdW  Elec       q    Type
REMARK                         _______ _______ _______ _____ _____    ______ ____
ROOT
ATOM      1  C   LIG    1        1.480  -0.026   0.000  0.00  0.00    -0.075 C 
ATOM      2  C   LIG    1        2.004   0.661  -1.284  0.00  0.00    -0.016 C 
ATOM      3  C   LIG    1        3.540   0.790  -1.281  0.00  0.00    -0.002 C 
ATOM      4  C   LIG    1        4.063   1.472   0.000  0.00  0.00    -0.000 C 
ATOM      5  C   LIG    1        3.540   0.790   1.281  0.00  0.00    -0.002 C 
ATOM      6  C   LIG    1        2.004   0.661   1.284  0.00  0.00    -0.016 C 
ENDROOT
BRANCH   1   7
ATOM      7  N   LIG    1       -0.056  -0.001   0.000  0.00  0.00    +0.380 N 
ATOM      8  H   LIG    1       -0.412  -0.470  -0.821  0.00  0.00    -0.090 HD
ATOM      9  H   LIG    1       -0.412  -0.470   0.821  0.00  0.00    -0.090 HD
ATOM     10  H   LIG    1       -0.388   0.953   0.000  0.00  0.00    -0.090 HD
ENDBRANCH   1   7
TORSDOF 1
