REMARK  Name = DB04847
REMARK                            x       y       z     vdW  Elec       q    Type
REMARK                         _______ _______ _______ _____ _____    ______ ____
ROOT
ATOM      1  C   UNK A  1       -4.875  -1.429   0.050  0.00  0.00    +0.129 A 
ATOM      2  C   UNK A  1       -4.185  -0.295   0.489  0.00  0.00    +0.056 A 
ATOM      3  C   UNK A  1       -2.768  -0.226   0.406  0.00  0.00    +0.010 A 
ATOM      4  C   UNK A  1       -2.000   0.886   0.843  0.00  0.00    +0.047 A 
ATOM      5  C   UNK A  1       -2.678   2.108   1.450  0.00  0.00    +0.066 C 
ATOM      6  N   UNK A  1       -0.653   0.956   0.767  0.00  0.00    -0.243 NA
ATOM      7  C   UNK A  1        0.030  -0.094   0.239  0.00  0.00    +0.167 A 
ATOM      8  C   UNK A  1       -0.619  -1.254  -0.231  0.00  0.00    +0.155 A 
ATOM      9  C   UNK A  1       -2.046  -1.329  -0.150  0.00  0.00    +0.028 A 
ATOM     10  C   UNK A  1       -2.782  -2.458  -0.604  0.00  0.00    +0.016 A 
ATOM     11  C   UNK A  1       -4.169  -2.491  -0.504  0.00  0.00    +0.047 A 
ENDROOT
BRANCH   7  12
ATOM     12  C   UNK A  1        1.537   0.049   0.223  0.00  0.00    +0.266 C 
ATOM     13  O   UNK A  1        2.266  -0.903   0.506  0.00  0.00    -0.268 OA
ATOM     14  N   GLY A  2        2.012   1.266  -0.117  0.00  0.00    -0.299 N 
ATOM     15  H   GLY A  2        1.345   1.992  -0.334  0.00  0.00    +0.150 HD
BRANCH  14  16
ATOM     16  CA  GLY A  2        3.430   1.644  -0.184  0.00  0.00    +0.225 C 
BRANCH  16  17
ATOM     17  C   GLY A  2        3.953   2.069   1.202  0.00  0.00    +0.322 C 
ATOM     18  OXT GLY A  2        3.284   2.138   2.215  0.00  0.00    -0.249 OA
BRANCH  17  19
ATOM     19  O   GLY A  2        5.282   2.363   1.113  0.00  0.00    -0.480 OA
ATOM     20  H   GLY A  2        5.652   2.632   1.957  0.00  0.00    +0.295 HD
ENDBRANCH  17  19
ENDBRANCH  16  17
ENDBRANCH  14  16
ENDBRANCH   7  12
BRANCH   8  21
ATOM     21  O   UNK A  1        0.088  -2.302  -0.776  0.00  0.00    -0.504 OA
ATOM     22  H   UNK A  1       -0.471  -3.032  -1.051  0.00  0.00    +0.292 HD
ENDBRANCH   8  21
BRANCH   1  23
ATOM     23  O   UNK A  1       -6.250  -1.518   0.100  0.00  0.00    -0.456 OA
BRANCH  23  24
ATOM     24  C   UNK A  1       -6.958  -1.054   1.189  0.00  0.00    +0.128 A 
ATOM     25  C   UNK A  1       -6.520  -1.256   2.505  0.00  0.00    +0.046 A 
ATOM     26  C   UNK A  1       -7.282  -0.788   3.572  0.00  0.00    +0.004 A 
ATOM     27  C   UNK A  1       -8.485  -0.131   3.325  0.00  0.00    +0.000 A 
ATOM     28  C   UNK A  1       -8.934   0.060   2.021  0.00  0.00    +0.004 A 
ATOM     29  C   UNK A  1       -8.172  -0.407   0.953  0.00  0.00    +0.046 A 
ENDBRANCH  23  24
ENDBRANCH   1  23
TORSDOF 7
