REMARK  Name = DB04348
REMARK                            x       y       z     vdW  Elec       q    Type
REMARK                         _______ _______ _______ _____ _____    ______ ____
ROOT
ATOM      1  C   LIG    1        8.736  -3.394  -0.405  0.00  0.00    +0.010 C 
ATOM      2  C   LIG    1        8.311  -4.795   0.067  0.00  0.00    +0.032 C 
ATOM      3  C   LIG    1        8.398  -5.808  -1.092  0.00  0.00    +0.115 C 
ATOM      4  C   LIG    1        7.641  -5.319  -2.344  0.00  0.00    +0.035 C 
ATOM      5  C   LIG    1        7.997  -3.864  -2.775  0.00  0.00    +0.000 C 
ATOM      6  C   LIG    1        7.180  -3.384  -4.009  0.00  0.00    +0.035 C 
ATOM      7  C   LIG    1        5.697  -3.043  -3.714  0.00  0.00    +0.118 C 
ATOM      8  C   LIG    1        5.544  -2.099  -2.478  0.00  0.00    +0.025 C 
ATOM      9  C   LIG    1        4.058  -1.896  -2.055  0.00  0.00    +0.003 C 
ATOM     10  C   LIG    1        3.856  -0.891  -0.886  0.00  0.00    +0.000 C 
ATOM     11  C   LIG    1        4.382   0.542  -1.229  0.00  0.00    +0.014 C 
ATOM     12  C   LIG    1        4.638  -1.452   0.353  0.00  0.00    +0.121 C 
ATOM     13  C   LIG    1        6.127  -1.726   0.013  0.00  0.00    +0.036 C 
ATOM     14  C   LIG    1        2.286  -0.872  -0.811  0.00  0.00    +0.001 C 
ATOM     15  C   LIG    1        1.851  -0.940  -2.304  0.00  0.00    +0.005 C 
ATOM     16  C   LIG    1        3.038  -1.483  -3.117  0.00  0.00    +0.005 C 
ATOM     17  C   LIG    1        6.361  -2.623  -1.244  0.00  0.00    +0.003 C 
ATOM     18  C   LIG    1        7.887  -2.838  -1.592  0.00  0.00    -0.026 C 
ATOM     19  C   LIG    1        8.580  -1.503  -2.009  0.00  0.00    +0.012 C 
ENDROOT
BRANCH   3  20
ATOM     20  O   LIG    1        7.937  -7.079  -0.684  0.00  0.00    -0.392 OA
ATOM     21  H   LIG    1        7.009  -7.006  -0.448  0.00  0.00    +0.210 HD
ENDBRANCH   3  20
BRANCH   7  22
ATOM     22  O   LIG    1        4.927  -4.228  -3.604  0.00  0.00    -0.391 OA
ATOM     23  H   LIG    1        4.005  -3.982  -3.497  0.00  0.00    +0.210 HD
ENDBRANCH   7  22
BRANCH  12  24
ATOM     24  O   LIG    1        4.031  -2.625   0.871  0.00  0.00    -0.391 OA
ATOM     25  H   LIG    1        4.522  -2.905   1.646  0.00  0.00    +0.210 HD
ENDBRANCH  12  24
BRANCH  14  26
ATOM     26  C   LIG    1        1.572   0.273  -0.011  0.00  0.00    -0.010 C 
ATOM     27  C   LIG    1        2.074   0.401   1.446  0.00  0.00    +0.008 C 
BRANCH  26  28
ATOM     28  C   LIG    1        0.026   0.099  -0.040  0.00  0.00    +0.013 C 
BRANCH  28  29
ATOM     29  C   LIG    1       -0.785   1.318   0.465  0.00  0.00    +0.096 C 
BRANCH  29  30
ATOM     30  C   LIG    1       -2.291   1.170   0.210  0.00  0.00    +0.213 C 
ATOM     31  O   LIG    1       -2.710   1.008  -0.937  0.00  0.00    -0.276 OA
ATOM     32  N   LIG    1       -3.092   1.224   1.290  0.00  0.00    -0.314 N 
ATOM     33  H   LIG    1       -2.667   1.366   2.195  0.00  0.00    +0.149 HD
BRANCH  32  34
ATOM     34  C   LIG    1       -4.546   1.064   1.280  0.00  0.00    +0.129 C 
BRANCH  34  35
ATOM     35  C   LIG    1       -5.039  -0.366   0.972  0.00  0.00    +0.216 C 
BRANCH  35  36
ATOM     36  S   LIG    1       -4.478  -1.600   2.299  0.00  0.00    +0.081 S 
ATOM     37  O   LIG    1       -5.098  -2.901   2.030  0.00  0.00    -0.147 OA
ATOM     38  O   LIG    1       -4.567  -0.975   3.623  0.00  0.00    -0.147 OA
BRANCH  36  39
ATOM     39  O   LIG    1       -2.875  -1.705   1.878  0.00  0.00    -0.254 OA
ATOM     40  H   LIG    1       -2.768  -2.202   1.045  0.00  0.00    +0.244 HD
ENDBRANCH  36  39
ENDBRANCH  35  36
ENDBRANCH  34  35
ENDBRANCH  32  34
ENDBRANCH  29  30
ENDBRANCH  28  29
ENDBRANCH  26  28
ENDBRANCH  14  26
TORSDOF 11
