REMARK  Name = DB04974
REMARK                            x       y       z     vdW  Elec       q    Type
REMARK                         _______ _______ _______ _____ _____    ______ ____
ROOT
ATOM      1  C   LIG    1       -0.809  -0.780   0.082  0.00  0.00    +0.123 C 
ENDROOT
BRANCH   1   3
ATOM      2  C   LIG    1        0.824   0.630   1.329  0.00  0.00    +0.251 C 
ATOM      3  N   LIG    1       -0.103  -0.344   1.288  0.00  0.00    -0.311 N 
ATOM      4  H   LIG    1       -0.346  -0.818   2.146  0.00  0.00    +0.149 HD
ATOM      5  O   LIG    1        1.202   1.246   0.329  0.00  0.00    -0.272 OA
BRANCH   2   6
ATOM      6  C   LIG    1        1.373   0.964   2.722  0.00  0.00    +0.324 C 
BRANCH   6   7
ATOM      7  O   LIG    1        2.275   2.067   2.626  0.00  0.00    -0.483 OA
BRANCH   7  12
ATOM      8  C   LIG    1        4.158   4.395   4.737  0.00  0.00    -0.004 A 
ATOM      9  C   LIG    1        3.844   3.941   6.022  0.00  0.00    +0.007 A 
ATOM     10  C   LIG    1        3.005   2.843   6.193  0.00  0.00    +0.004 A 
ATOM     11  C   LIG    1        2.469   2.193   5.082  0.00  0.00    +0.045 A 
ATOM     12  C   LIG    1        2.765   2.642   3.783  0.00  0.00    +0.122 A 
ATOM     13  C   LIG    1        3.612   3.743   3.628  0.00  0.00    +0.053 A 
BRANCH   8  14
ATOM     14  C   LIG    1        5.074   5.604   4.532  0.00  0.00    +0.207 C 
BRANCH  14  15
ATOM     15  O   LIG    1        6.205   5.535   5.405  0.00  0.00    -0.455 OA
BRANCH  15  16
ATOM     16  C   LIG    1        7.254   4.704   5.169  0.00  0.00    +0.328 C 
ATOM     17  O   LIG    1        7.421   4.038   4.145  0.00  0.00    -0.249 OA
BRANCH  16  23
ATOM     18  N   LIG    1        7.587   4.561   7.656  0.00  0.00    -0.288 N 
ATOM     19  C   LIG    1        6.976   3.240   7.926  0.00  0.00    +0.108 C 
ATOM     20  C   LIG    1        8.115   2.207   7.979  0.00  0.00    +0.019 C 
ATOM     21  C   LIG    1        8.898   2.182   6.655  0.00  0.00    +0.004 C 
ATOM     22  C   LIG    1        9.364   3.594   6.240  0.00  0.00    +0.034 C 
ATOM     23  C   LIG    1        8.269   4.702   6.338  0.00  0.00    +0.185 C 
ATOM     24  C   LIG    1        7.728   5.524   8.613  0.00  0.00    +0.224 C 
ATOM     25  O   LIG    1        8.393   6.545   8.415  0.00  0.00    -0.275 OA
BRANCH  24  26
ATOM     26  C   LIG    1        6.880   5.453   9.918  0.00  0.00    +0.105 C 
BRANCH  26  27
ATOM     27  C   LIG    1        5.425   5.840   9.607  0.00  0.00    -0.028 A 
ATOM     28  C   LIG    1        4.400   4.908   9.789  0.00  0.00    +0.054 A 
ATOM     29  C   LIG    1        3.071   5.217   9.459  0.00  0.00    +0.165 A 
ATOM     30  C   LIG    1        2.780   6.489   8.944  0.00  0.00    +0.204 A 
ATOM     31  C   LIG    1        3.783   7.456   8.799  0.00  0.00    +0.165 A 
ATOM     32  C   LIG    1        5.104   7.115   9.128  0.00  0.00    +0.054 A 
BRANCH  29  33
ATOM     33  O   LIG    1        2.016   4.334   9.605  0.00  0.00    -0.491 OA
ATOM     34  C   LIG    1        2.252   3.047  10.165  0.00  0.00    +0.277 C 
ENDBRANCH  29  33
BRANCH  31  35
ATOM     35  O   LIG    1        3.405   8.701   8.331  0.00  0.00    -0.491 OA
ATOM     36  C   LIG    1        4.372   9.746   8.273  0.00  0.00    +0.277 C 
ENDBRANCH  31  35
BRANCH  30  37
ATOM     37  O   LIG    1        1.485   6.809   8.610  0.00  0.00    -0.488 OA
ATOM     38  C   LIG    1        1.099   6.384   7.309  0.00  0.00    +0.277 C 
ENDBRANCH  30  37
ENDBRANCH  26  27
BRANCH  26  39
ATOM     39  C   LIG    1        7.446   6.300  11.094  0.00  0.00    +0.014 C 
ATOM     40  C   LIG    1        8.822   5.841  11.608  0.00  0.00    +0.005 C 
ENDBRANCH  26  39
ENDBRANCH  24  26
ENDBRANCH  16  23
ENDBRANCH  15  16
ENDBRANCH  14  15
BRANCH  14  41
ATOM     41  C   LIG    1        4.321   6.924   4.797  0.00  0.00    +0.054 C 
BRANCH  41  42
ATOM     42  C   LIG    1        5.138   8.185   4.441  0.00  0.00    +0.039 C 
BRANCH  42  43
ATOM     43  C   LIG    1        4.438   9.532   4.638  0.00  0.00    -0.044 A 
ATOM     44  C   LIG    1        5.144  10.696   4.337  0.00  0.00    +0.007 A 
ATOM     45  C   LIG    1        4.557  11.947   4.508  0.00  0.00    +0.049 A 
ATOM     46  C   LIG    1        3.244  12.062   4.992  0.00  0.00    +0.161 A 
ATOM     47  C   LIG    1        2.523  10.899   5.302  0.00  0.00    +0.162 A 
ATOM     48  C   LIG    1        3.126   9.643   5.115  0.00  0.00    +0.053 A 
BRANCH  46  49
ATOM     49  O   LIG    1        2.604  13.273   5.192  0.00  0.00    -0.491 OA
ATOM     50  C   LIG    1        3.288  14.485   4.891  0.00  0.00    +0.277 C 
ENDBRANCH  46  49
BRANCH  47  51
ATOM     51  O   LIG    1        1.238  11.067   5.790  0.00  0.00    -0.491 OA
ATOM     52  C   LIG    1        0.483   9.928   6.188  0.00  0.00    +0.277 C 
ENDBRANCH  47  51
ENDBRANCH  42  43
ENDBRANCH  41  42
ENDBRANCH  14  41
ENDBRANCH   8  14
ENDBRANCH   7  12
ENDBRANCH   6   7
ENDBRANCH   2   6
ENDBRANCH   1   3
BRANCH   1  53
ATOM     53  C   LIG    1       -2.164  -0.076  -0.179  0.00  0.00    +0.123 C 
BRANCH  53  54
ATOM     54  N   LIG    1       -2.140   1.384  -0.068  0.00  0.00    -0.311 N 
ATOM     55  H   LIG    1       -1.888   1.894  -0.902  0.00  0.00    +0.149 HD
ATOM     56  C   LIG    1       -2.416   2.082   1.051  0.00  0.00    +0.251 C 
ATOM     57  O   LIG    1       -2.745   1.546   2.110  0.00  0.00    -0.272 OA
BRANCH  56  58
ATOM     58  C   LIG    1       -2.276   3.611   1.005  0.00  0.00    +0.324 C 
BRANCH  58  59
ATOM     59  O   LIG    1       -2.054   4.045  -0.338  0.00  0.00    -0.483 OA
BRANCH  59  60
ATOM     60  C   LIG    1       -1.894   5.391  -0.597  0.00  0.00    +0.122 A 
ATOM     61  C   LIG    1       -1.849   6.394   0.386  0.00  0.00    +0.045 A 
ATOM     62  C   LIG    1       -1.681   7.731   0.022  0.00  0.00    +0.004 A 
ATOM     63  C   LIG    1       -1.563   8.081  -1.321  0.00  0.00    +0.007 A 
ATOM     64  C   LIG    1       -1.612   7.096  -2.311  0.00  0.00    -0.004 A 
ATOM     65  C   LIG    1       -1.770   5.757  -1.938  0.00  0.00    +0.053 A 
BRANCH  64  66
ATOM     66  C   LIG    1       -1.507   7.490  -3.790  0.00  0.00    +0.207 C 
BRANCH  66  67
ATOM     67  O   LIG    1       -2.520   6.842  -4.569  0.00  0.00    -0.455 OA
BRANCH  67  68
ATOM     68  C   LIG    1       -3.842   7.112  -4.414  0.00  0.00    +0.328 C 
ATOM     69  O   LIG    1       -4.307   7.980  -3.670  0.00  0.00    -0.249 OA
BRANCH  68  70
ATOM     70  C   LIG    1       -4.726   6.146  -5.239  0.00  0.00    +0.185 C 
ATOM     71  C   LIG    1       -4.494   6.286  -6.775  0.00  0.00    +0.034 C 
ATOM     72  C   LIG    1       -5.201   7.487  -7.435  0.00  0.00    +0.004 C 
ATOM     73  C   LIG    1       -6.676   7.569  -7.016  0.00  0.00    +0.019 C 
ATOM     74  C   LIG    1       -6.819   7.556  -5.483  0.00  0.00    +0.108 C 
ATOM     75  N   LIG    1       -6.190   6.307  -4.984  0.00  0.00    -0.288 N 
ATOM     76  C   LIG    1       -6.994   5.291  -4.543  0.00  0.00    +0.224 C 
ATOM     77  O   LIG    1       -8.223   5.416  -4.505  0.00  0.00    -0.275 OA
BRANCH  76  78
ATOM     78  C   LIG    1       -6.378   3.982  -3.961  0.00  0.00    +0.105 C 
BRANCH  78  79
ATOM     79  C   LIG    1       -7.394   2.821  -3.940  0.00  0.00    -0.028 A 
ATOM     80  C   LIG    1       -7.429   1.910  -5.000  0.00  0.00    +0.054 A 
ATOM     81  C   LIG    1       -8.353   0.854  -5.021  0.00  0.00    +0.165 A 
ATOM     82  C   LIG    1       -9.258   0.726  -3.959  0.00  0.00    +0.204 A 
ATOM     83  C   LIG    1       -9.247   1.629  -2.887  0.00  0.00    +0.165 A 
ATOM     84  C   LIG    1       -8.316   2.679  -2.896  0.00  0.00    +0.054 A 
BRANCH  81  85
ATOM     85  O   LIG    1       -8.432  -0.083  -6.035  0.00  0.00    -0.491 OA
ATOM     86  C   LIG    1       -7.548   0.012  -7.147  0.00  0.00    +0.277 C 
ENDBRANCH  81  85
BRANCH  83  87
ATOM     87  O   LIG    1      -10.170   1.424  -1.878  0.00  0.00    -0.491 OA
ATOM     88  C   LIG    1      -10.195   2.309  -0.763  0.00  0.00    +0.277 C 
ENDBRANCH  83  87
BRANCH  82  89
ATOM     89  O   LIG    1      -10.157  -0.314  -3.958  0.00  0.00    -0.488 OA
ATOM     90  C   LIG    1      -11.397  -0.008  -4.581  0.00  0.00    +0.277 C 
ENDBRANCH  82  89
ENDBRANCH  78  79
BRANCH  78  91
ATOM     91  C   LIG    1       -5.688   4.234  -2.588  0.00  0.00    +0.014 C 
ATOM     92  C   LIG    1       -4.931   3.018  -2.029  0.00  0.00    +0.005 C 
ENDBRANCH  78  91
ENDBRANCH  76  78
ENDBRANCH  68  70
ENDBRANCH  67  68
ENDBRANCH  66  67
BRANCH  66  93
ATOM     93  C   LIG    1       -0.141   7.113  -4.404  0.00  0.00    +0.054 C 
BRANCH  93  94
ATOM     94  C   LIG    1        1.061   7.838  -3.766  0.00  0.00    +0.039 C 
BRANCH  94  95
ATOM     95  C   LIG    1        2.389   7.389  -4.357  0.00  0.00    -0.044 A 
ATOM     96  C   LIG    1        3.047   6.278  -3.831  0.00  0.00    +0.007 A 
ATOM     97  C   LIG    1        4.257   5.858  -4.376  0.00  0.00    +0.049 A 
ATOM     98  C   LIG    1        4.833   6.543  -5.460  0.00  0.00    +0.161 A 
ATOM     99  C   LIG    1        4.176   7.663  -5.993  0.00  0.00    +0.162 A 
ATOM    100  C   LIG    1        2.954   8.077  -5.433  0.00  0.00    +0.053 A 
BRANCH  98 101
ATOM    101  O   LIG    1        6.031   6.175  -6.048  0.00  0.00    -0.491 OA
ATOM    102  C   LIG    1        6.736   5.041  -5.552  0.00  0.00    +0.277 C 
ENDBRANCH  98 101
BRANCH  99 103
ATOM    103  O   LIG    1        4.784   8.300  -7.060  0.00  0.00    -0.491 OA
ATOM    104  C   LIG    1        4.161   9.440  -7.645  0.00  0.00    +0.277 C 
ENDBRANCH  99 103
ENDBRANCH  94  95
ENDBRANCH  93  94
ENDBRANCH  66  93
ENDBRANCH  64  66
ENDBRANCH  59  60
ENDBRANCH  58  59
ENDBRANCH  56  58
ENDBRANCH  53  54
ENDBRANCH   1  53
TORSDOF 39
