REMARK  Name = DB04918
REMARK                            x       y       z     vdW  Elec       q    Type
REMARK                         _______ _______ _______ _____ _____    ______ ____
ROOT
ATOM      1  CA  LIG    1       -1.314   1.523   2.522  0.00  0.00    +0.126 C 
ATOM      2  C   LIG    1       -0.940   1.447   3.843  0.00  0.00    -0.009 C 
ATOM      3  C   LIG    1       -0.021   0.298   4.318  0.00  0.00    +0.108 C 
ATOM      4  S   LIG    1        1.152  -0.275   3.040  0.00  0.00    -0.131 S 
ATOM      5  C   LIG    1       -0.159  -0.641   1.838  0.00  0.00    +0.169 C 
ATOM      6  CA  LIG    1        0.106  -0.728   0.308  0.00  0.00    +0.191 C 
ATOM      7  C   LIG    1       -0.992   0.387   0.201  0.00  0.00    +0.244 C 
ATOM      8  O   LIG    1       -1.643   0.892  -0.713  0.00  0.00    -0.273 OA
ATOM      9  N   LIG    1       -0.910   0.605   1.581  0.00  0.00    -0.249 N 
ENDROOT
BRANCH   2  10
ATOM     10  C   LIG    1       -1.289   2.483   4.828  0.00  0.00    +0.015 C 
ATOM     11  C   LIG    1       -1.476   2.296   6.157  0.00  0.00    +0.016 C 
ATOM     12  C   LIG    1       -1.876   3.433   6.969  0.00  0.00    +0.243 C 
ATOM     13  O   LIG    1       -1.815   4.632   6.684  0.00  0.00    -0.270 OA
ATOM     14  N   LIG    1       -2.365   2.903   8.115  0.00  0.00    -0.293 N 
ATOM     15  C   LIG    1       -2.410   1.449   8.142  0.00  0.00    +0.113 C 
ATOM     16  C   LIG    1       -1.521   1.041   6.994  0.00  0.00    +0.059 C 
BRANCH  14  17
ATOM     17  C   LIG    1       -2.906   3.757   9.188  0.00  0.00    +0.091 C 
ATOM     18  C   LIG    1       -2.244   3.457  10.544  0.00  0.00    +0.039 C 
ATOM     19  C   LIG    1       -3.378   2.925  11.421  0.00  0.00    +0.083 C 
ATOM     20  N   LIG    1       -4.588   3.532  10.900  0.00  0.00    -0.314 NA
ATOM     21  H   LIG    1       -5.396   2.984  11.161  0.00  0.00    +0.122 HD
ATOM     22  C   LIG    1       -4.401   3.498   9.460  0.00  0.00    +0.103 C 
ENDBRANCH  14  17
ENDBRANCH   2  10
BRANCH   6  23
ATOM     23  N   LIG    1        1.486  -0.420  -0.129  0.00  0.00    -0.296 N 
ATOM     24  H   LIG    1        2.118  -1.203  -0.045  0.00  0.00    +0.150 HD
ATOM     25  C   LIG    1        2.033   0.718  -0.610  0.00  0.00    +0.270 C 
ATOM     26  O   LIG    1        1.434   1.777  -0.799  0.00  0.00    -0.268 OA
BRANCH  25  27
ATOM     27  C   LIG    1        3.473   0.586  -0.893  0.00  0.00    +0.208 C 
ATOM     28  N   LIG    1        3.906   0.314  -2.082  0.00  0.00    -0.078 NA
BRANCH  27  29
ATOM     29  C   LIG    1        4.438   0.777   0.228  0.00  0.00    +0.197 A 
ATOM     30  N   LIG    1        5.738   0.601   0.014  0.00  0.00    -0.202 NA
ATOM     31  C   LIG    1        6.407   0.820   1.109  0.00  0.00    +0.176 A 
ATOM     32  S   LIG    1        5.405   1.257   2.438  0.00  0.00    +0.049 S 
ATOM     33  N   LIG    1        4.021   1.131   1.440  0.00  0.00    -0.185 NA
BRANCH  31  34
ATOM     34  N   LIG    1        7.761   0.729   1.244  0.00  0.00    -0.336 N 
ATOM     35  H   LIG    1        8.222   0.905   2.125  0.00  0.00    +0.144 HD
ATOM     36  H   LIG    1        8.352   0.482   0.463  0.00  0.00    +0.144 HD
ENDBRANCH  31  34
ENDBRANCH  27  29
BRANCH  28  37
ATOM     37  O   LIG    1        2.954   0.129  -3.116  0.00  0.00    -0.409 OA
ATOM     38  H   LIG    1        3.515  -0.040  -3.877  0.00  0.00    +0.328 HD
ENDBRANCH  28  37
ENDBRANCH  25  27
ENDBRANCH   6  23
BRANCH   1  39
ATOM     39  C   LIG    1       -2.168   2.599   2.032  0.00  0.00    +0.352 C 
ATOM     40  OXT LIG    1       -1.847   3.389   1.145  0.00  0.00    -0.244 OA
BRANCH  39  41
ATOM     41  O   LIG    1       -3.394   2.601   2.634  0.00  0.00    -0.476 OA
ATOM     42  H   LIG    1       -3.962   3.298   2.298  0.00  0.00    +0.295 HD
ENDBRANCH  39  41
ENDBRANCH   1  39
TORSDOF 9
