REMARK  Name = DB04915
REMARK                            x       y       z     vdW  Elec       q    Type
REMARK                         _______ _______ _______ _____ _____    ______ ____
ROOT
ATOM      1  O   LIG    1       -2.132  -1.198  -0.192  0.00  0.00    -0.487 OA
ATOM      2  C   LIG    1       -2.805   0.008  -0.112  0.00  0.00    +0.132 A 
ATOM      3  C   LIG    1       -4.198  -0.028  -0.056  0.00  0.00    +0.091 A 
ATOM      4  C   LIG    1       -4.918   1.168  -0.008  0.00  0.00    +0.120 A 
ATOM      5  C   LIG    1       -4.243   2.392  -0.022  0.00  0.00    +0.046 A 
ATOM      6  C   LIG    1       -2.849   2.424  -0.086  0.00  0.00    +0.015 A 
ATOM      7  C   LIG    1       -2.127   1.229  -0.147  0.00  0.00    +0.017 A 
ATOM      8  C   LIG    1       -0.669   1.205  -0.168  0.00  0.00    +0.019 C 
ATOM      9  C   LIG    1        0.026   0.070   0.049  0.00  0.00    -0.003 C 
ATOM     10  C   LIG    1       -0.761  -1.235   0.268  0.00  0.00    +0.265 C 
ENDROOT
BRANCH   9  11
ATOM     11  C   LIG    1        1.513   0.031  -0.000  0.00  0.00    -0.018 A 
ATOM     12  C   LIG    1        2.210  -0.890   0.793  0.00  0.00    +0.012 A 
ATOM     13  C   LIG    1        3.602  -0.928   0.783  0.00  0.00    +0.046 A 
ATOM     14  C   LIG    1        4.312  -0.037  -0.018  0.00  0.00    +0.117 A 
ATOM     15  C   LIG    1        3.638   0.891  -0.805  0.00  0.00    +0.046 A 
ATOM     16  C   LIG    1        2.246   0.928  -0.792  0.00  0.00    +0.012 A 
BRANCH  14  17
ATOM     17  O   LIG    1        5.681  -0.073  -0.029  0.00  0.00    -0.507 OA
ATOM     18  H   LIG    1        6.043  -0.750   0.547  0.00  0.00    +0.292 HD
ENDBRANCH  14  17
ENDBRANCH   9  11
BRANCH   4  19
ATOM     19  O   LIG    1       -6.285   1.141   0.053  0.00  0.00    -0.507 OA
ATOM     20  H   LIG    1       -6.674   2.017   0.083  0.00  0.00    +0.292 HD
ENDBRANCH   4  19
TORSDOF 3
