REMARK  Name = DB04854
REMARK                            x       y       z     vdW  Elec       q    Type
REMARK                         _______ _______ _______ _____ _____    ______ ____
ROOT
ATOM      1  C   LIG    1        4.258  -0.038  -0.015  0.00  0.00    +0.009 A 
ATOM      2  C   LIG    1        3.602   1.199  -0.032  0.00  0.00    +0.014 A 
ATOM      3  C   LIG    1        2.211   1.275  -0.038  0.00  0.00    +0.047 A 
ATOM      4  C   LIG    1        1.424   0.112  -0.027  0.00  0.00    +0.138 A 
ATOM      5  C   LIG    1        2.076  -1.133  -0.010  0.00  0.00    +0.094 A 
ATOM      6  C   LIG    1        3.473  -1.200  -0.004  0.00  0.00    +0.033 A 
ENDROOT
BRANCH   1  12
ATOM      7  S   LIG    1        6.658  -1.579  -0.008  0.00  0.00    -0.060 S 
ATOM      8  C   LIG    1        8.151  -0.662  -0.000  0.00  0.00    +0.119 A 
ATOM      9  C   LIG    1        7.823   0.706  -0.001  0.00  0.00    +0.060 A 
ATOM     10  C   LIG    1        8.720   1.931   0.004  0.00  0.00    +0.067 C 
ATOM     11  N   LIG    1        6.529   0.978  -0.006  0.00  0.00    -0.243 NA
ATOM     12  C   LIG    1        5.764  -0.087  -0.009  0.00  0.00    +0.109 A 
BRANCH   8  13
ATOM     13  C   LIG    1        9.451  -1.301   0.006  0.00  0.00    +0.345 C 
ATOM     14  O   LIG    1       10.509  -0.676   0.013  0.00  0.00    -0.244 OA
BRANCH  13  15
ATOM     15  O   LIG    1        9.390  -2.666   0.005  0.00  0.00    -0.477 OA
ATOM     16  H   LIG    1       10.261  -3.069   0.009  0.00  0.00    +0.295 HD
ENDBRANCH  13  15
ENDBRANCH   8  13
ENDBRANCH   1  12
BRANCH   5  17
ATOM     17  C   LIG    1        1.318  -2.381   0.004  0.00  0.00    +0.103 C 
ATOM     18  N   LIG    1        0.718  -3.370   0.015  0.00  0.00    -0.191 NA
ENDBRANCH   5  17
BRANCH   4  19
ATOM     19  O   LIG    1        0.038   0.133  -0.035  0.00  0.00    -0.490 OA
BRANCH  19  20
ATOM     20  C   LIG    1       -0.656   1.377   0.009  0.00  0.00    +0.232 C 
BRANCH  20  21
ATOM     21  C   LIG    1       -2.177   1.122   0.045  0.00  0.00    +0.020 C 
ATOM     22  C   LIG    1       -2.597   0.286   1.270  0.00  0.00    +0.010 C 
ATOM     23  C   LIG    1       -2.967   2.442  -0.020  0.00  0.00    +0.010 C 
ENDBRANCH  20  21
ENDBRANCH  19  20
ENDBRANCH   4  19
TORSDOF 7
