REMARK  Name = DB04209
REMARK                            x       y       z     vdW  Elec       q    Type
REMARK                         _______ _______ _______ _____ _____    ______ ____
ROOT
ATOM      1  C   LIG    1        0.036   0.362  -0.051  0.00  0.00    +0.000 C 
ENDROOT
BRANCH   1   2
ATOM      2  C   LIG    1       -0.311   1.848   0.152  0.00  0.00    +0.000 C 
BRANCH   2   3
ATOM      3  C   LIG    1       -1.829   2.098   0.258  0.00  0.00    +0.001 C 
BRANCH   3   4
ATOM      4  C   LIG    1       -2.209   3.582   0.427  0.00  0.00    +0.015 C 
BRANCH   4   5
ATOM      5  C   LIG    1       -2.073   4.482  -0.829  0.00  0.00    +0.085 C 
BRANCH   5   8
ATOM      6  C   LIG    1       -4.468   6.060  -0.441  0.00  0.00    +0.030 C 
ATOM      7  C   LIG    1       -4.343   5.056  -1.591  0.00  0.00    +0.043 C 
ATOM      8  N   LIG    1       -3.208   4.316  -1.799  0.00  0.00    -0.287 NA
ATOM      9  C   LIG    1       -3.098   3.416  -2.871  0.00  0.00    +0.053 C 
ATOM     10  C   LIG    1       -1.931   2.631  -3.131  0.00  0.00    +0.021 C 
ATOM     11  C   LIG    1       -1.884   1.757  -4.211  0.00  0.00    +0.002 C 
ATOM     12  C   LIG    1       -2.969   1.629  -5.064  0.00  0.00    +0.000 C 
ATOM     13  C   LIG    1       -4.123   2.374  -4.851  0.00  0.00    +0.007 C 
ATOM     14  C   LIG    1       -4.222   3.283  -3.758  0.00  0.00    +0.024 C 
ATOM     15  C   LIG    1       -5.395   4.054  -3.527  0.00  0.00    +0.049 C 
ATOM     16  C   LIG    1       -5.429   4.925  -2.450  0.00  0.00    +0.040 C 
BRANCH  15  17
ATOM     17  N   LIG    1       -6.528   3.981  -4.343  0.00  0.00    -0.322 NA
ATOM     18  H   LIG    1       -7.334   4.550  -4.128  0.00  0.00    +0.119 HD
ATOM     19  H   LIG    1       -6.532   3.356  -5.136  0.00  0.00    +0.119 HD
ENDBRANCH  15  17
ENDBRANCH   5   8
ENDBRANCH   4   5
ENDBRANCH   3   4
ENDBRANCH   2   3
ENDBRANCH   1   2
BRANCH   1  20
ATOM     20  C   LIG    1        1.551   0.114  -0.193  0.00  0.00    +0.000 C 
BRANCH  20  21
ATOM     21  C   LIG    1        1.951  -1.374  -0.225  0.00  0.00    +0.000 C 
BRANCH  21  22
ATOM     22  C   LIG    1        1.413  -2.157  -1.439  0.00  0.00    +0.001 C 
BRANCH  22  23
ATOM     23  C   LIG    1        1.890  -3.619  -1.461  0.00  0.00    +0.015 C 
BRANCH  23  24
ATOM     24  C   LIG    1        1.322  -4.411  -2.657  0.00  0.00    +0.085 C 
BRANCH  24  25
ATOM     25  N   LIG    1        1.751  -5.846  -2.628  0.00  0.00    -0.287 NA
ATOM     26  C   LIG    1        1.050  -6.749  -1.817  0.00  0.00    +0.053 C 
ATOM     27  C   LIG    1       -0.052  -6.366  -0.990  0.00  0.00    +0.021 C 
ATOM     28  C   LIG    1       -0.715  -7.309  -0.211  0.00  0.00    +0.002 C 
ATOM     29  C   LIG    1       -0.317  -8.637  -0.220  0.00  0.00    +0.000 C 
ATOM     30  C   LIG    1        0.754  -9.049  -1.003  0.00  0.00    +0.007 C 
ATOM     31  C   LIG    1        1.469  -8.122  -1.817  0.00  0.00    +0.024 C 
ATOM     32  C   LIG    1        2.578  -8.516  -2.618  0.00  0.00    +0.049 C 
ATOM     33  C   LIG    1        3.239  -7.559  -3.374  0.00  0.00    +0.040 C 
ATOM     34  C   LIG    1        2.833  -6.229  -3.374  0.00  0.00    +0.043 C 
ATOM     35  C   LIG    1        3.630  -5.236  -4.221  0.00  0.00    +0.030 C 
BRANCH  32  36
ATOM     36  N   LIG    1        3.045  -9.833  -2.676  0.00  0.00    -0.322 NA
ATOM     37  H   LIG    1        3.836 -10.055  -3.263  0.00  0.00    +0.119 HD
ATOM     38  H   LIG    1        2.581 -10.551  -2.137  0.00  0.00    +0.119 HD
ENDBRANCH  32  36
ENDBRANCH  24  25
ENDBRANCH  23  24
ENDBRANCH  22  23
ENDBRANCH  21  22
ENDBRANCH  20  21
ENDBRANCH   1  20
TORSDOF 13
