REMARK  Name = DB04926
REMARK                            x       y       z     vdW  Elec       q    Type
REMARK                         _______ _______ _______ _____ _____    ______ ____
ROOT
ATOM      1  C   LIG    1        1.409   0.036   0.064  0.00  0.00    -0.073 C 
ATOM      2  C   LIG    1        2.143   0.691   1.264  0.00  0.00    -0.011 C 
ATOM      3  C   LIG    1        1.648   0.823  -1.252  0.00  0.00    -0.007 C 
ATOM      4  C   LIG    1        1.518   0.123  -2.639  0.00  0.00    -0.036 C 
ATOM      5  C   LIG    1        0.093   0.408  -3.170  0.00  0.00    +0.011 C 
ATOM      6  C   LIG    1        2.561   0.741  -3.614  0.00  0.00    +0.011 C 
ATOM      7  C   LIG    1        1.662  -1.431  -2.621  0.00  0.00    +0.012 C 
ATOM      8  C   LIG    1        1.519  -2.285  -1.323  0.00  0.00    -0.036 C 
ATOM      9  C   LIG    1        2.561  -3.440  -1.331  0.00  0.00    +0.011 C 
ATOM     10  C   LIG    1        0.094  -2.887  -1.370  0.00  0.00    +0.011 C 
ATOM     11  C   LIG    1        1.648  -1.498   0.015  0.00  0.00    -0.007 C 
ENDROOT
BRANCH   1  12
ATOM     12  N   LIG    1       -0.096   0.191   0.349  0.00  0.00    +0.382 N 
ATOM     13  H   LIG    1       -0.634  -0.219  -0.401  0.00  0.00    -0.089 HD
ATOM     14  H   LIG    1       -0.336  -0.273   1.214  0.00  0.00    -0.089 HD
ATOM     15  H   LIG    1       -0.337   1.169   0.426  0.00  0.00    -0.089 HD
ENDBRANCH   1  12
TORSDOF 1
