REMARK  Name = DB04905
REMARK                            x       y       z     vdW  Elec       q    Type
REMARK                         _______ _______ _______ _____ _____    ______ ____
ROOT
ATOM      1  C   LIG    1        2.093  -3.269   0.928  0.00  0.00    +0.120 A 
ATOM      2  C   LIG    1        3.189  -3.809   0.236  0.00  0.00    +0.046 A 
ATOM      3  C   LIG    1        3.535  -5.147   0.404  0.00  0.00    +0.007 A 
ATOM      4  C   LIG    1        2.787  -5.960   1.257  0.00  0.00    -0.043 A 
ATOM      5  C   LIG    1        1.704  -5.426   1.957  0.00  0.00    +0.007 A 
ATOM      6  C   LIG    1        1.360  -4.088   1.788  0.00  0.00    +0.046 A 
ENDROOT
BRANCH   1   7
ATOM      7  O   LIG    1        1.675  -1.957   0.824  0.00  0.00    -0.494 OA
BRANCH   7   8
ATOM      8  C   LIG    1        2.357  -1.070  -0.061  0.00  0.00    +0.210 C 
BRANCH   8   9
ATOM      9  C   LIG    1        1.687   0.319  -0.040  0.00  0.00    -0.037 C 
BRANCH   9  10
ATOM     10  N   LIG    1        0.145   0.225  -0.190  0.00  0.00    +0.382 N 
ATOM     11  H   LIG    1       -0.157  -0.513   0.431  0.00  0.00    -0.082 HD
BRANCH  10  12
ATOM     12  C   LIG    1       -0.567   1.522   0.274  0.00  0.00    -0.082 C 
ATOM     13  C   LIG    1       -0.572   1.634   1.809  0.00  0.00    -0.017 C 
ENDBRANCH  10  12
BRANCH  10  14
ATOM     14  C   LIG    1       -0.282  -0.200  -1.619  0.00  0.00    -0.082 C 
ATOM     15  C   LIG    1       -1.700  -0.797  -1.621  0.00  0.00    -0.017 C 
ENDBRANCH  10  14
ENDBRANCH   9  10
ENDBRANCH   8   9
ENDBRANCH   7   8
ENDBRANCH   1   7
BRANCH   4  16
ATOM     16  C   LIG    1        3.180  -7.417   1.457  0.00  0.00    +0.070 C 
BRANCH  16  17
ATOM     17  C   LIG    1        2.485  -8.363   0.488  0.00  0.00    -0.043 A 
ATOM     18  C   LIG    1        1.286  -8.982   0.855  0.00  0.00    +0.004 A 
ATOM     19  C   LIG    1        0.659  -9.860  -0.025  0.00  0.00    +0.000 A 
ATOM     20  C   LIG    1        1.236 -10.123  -1.266  0.00  0.00    +0.000 A 
ATOM     21  C   LIG    1        2.436  -9.517  -1.634  0.00  0.00    +0.000 A 
ATOM     22  C   LIG    1        3.063  -8.639  -0.754  0.00  0.00    +0.004 A 
ENDBRANCH  16  17
ENDBRANCH   4  16
TORSDOF 8
