REMARK  Name = DB04335
REMARK                            x       y       z     vdW  Elec       q    Type
REMARK                         _______ _______ _______ _____ _____    ______ ____
ROOT
ATOM      1  O4*   I A  1       -1.384   0.826   0.138  0.00  0.00    -0.346 OA
ATOM      2  C4*   I A  1       -0.380  -0.181   0.261  0.00  0.00    +0.177 C 
ATOM      3  C3*   I A  1       -0.448  -0.945  -1.076  0.00  0.00    +0.178 C 
ATOM      4  C2*   I A  1       -1.095   0.060  -2.029  0.00  0.00    +0.195 C 
ATOM      5  C1*   I A  1       -2.085   0.702  -1.061  0.00  0.00    +0.253 C 
ENDROOT
BRANCH   5   6
ATOM      6  N9    I A  1       -2.620   1.997  -1.436  0.00  0.00    -0.285 N 
ATOM      7  C8    I A  1       -2.060   2.988  -2.223  0.00  0.00    +0.203 A 
ATOM      8  N7    I A  1       -2.793   4.072  -2.361  0.00  0.00    -0.229 NA
ATOM      9  C5    I A  1       -3.873   3.823  -1.646  0.00  0.00    +0.172 A 
ATOM     10  C6    I A  1       -5.045   4.671  -1.416  0.00  0.00    +0.279 A 
ATOM     11  N1    I A  1       -5.937   4.017  -0.596  0.00  0.00    -0.312 N 
ATOM     12  H1    I A  1       -6.777   4.536  -0.387  0.00  0.00    +0.170 HD
ATOM     13  C2    I A  1       -5.812   2.754  -0.038  0.00  0.00    +0.201 A 
ATOM     14  N3    I A  1       -4.773   2.015  -0.250  0.00  0.00    -0.218 NA
ATOM     15  O6    I A  1       -5.270   5.799  -1.849  0.00  0.00    -0.265 OA
ATOM     16  C4    I A  1       -3.815   2.564  -1.055  0.00  0.00    +0.169 A 
ENDBRANCH   5   6
BRANCH   4  17
ATOM     17  O2*   I A  1       -1.760  -0.461  -3.166  0.00  0.00    -0.385 OA
ATOM     18  H2*   I A  1       -2.408  -1.106  -2.873  0.00  0.00    +0.210 HD
ENDBRANCH   4  17
BRANCH   3  19
ATOM     19  O3*   I A  1       -1.162  -2.165  -0.951  0.00  0.00    -0.386 OA
ATOM     20  H3*   I A  1       -1.223  -2.573  -1.818  0.00  0.00    +0.210 HD
ENDBRANCH   3  19
BRANCH   2  21
ATOM     21  C5*   I A  1        0.948   0.556   0.527  0.00  0.00    +0.190 C 
BRANCH  21  22
ATOM     22  O5*   I A  1        1.963  -0.358   0.888  0.00  0.00    -0.392 OA
ATOM     23  H5*   I A  1        2.765   0.134   1.079  0.00  0.00    +0.210 HD
ENDBRANCH  21  22
ENDBRANCH   2  21
TORSDOF 5
