REMARK  Name = DB04660
REMARK                            x       y       z     vdW  Elec       q    Type
REMARK                         _______ _______ _______ _____ _____    ______ ____
ROOT
ATOM      1  P   LIG    1        1.453  -0.082   0.102  0.00  0.00    +0.475 P 
ATOM      2  O   LIG    1        1.561   0.872   1.272  0.00  0.00    -0.227 OA
ENDROOT
BRANCH   1   3
ATOM      3  O   LIG    1        2.091  -1.454   0.101  0.00  0.00    -0.302 OA
ATOM      4  H   LIG    1        1.811  -1.941   0.891  0.00  0.00    +0.222 HD
ENDBRANCH   1   3
BRANCH   1   5
ATOM      5  O   LIG    1       -0.217  -0.273  -0.317  0.00  0.00    -0.289 OA
BRANCH   5   6
ATOM      6  C   LIG    1       -1.013   0.895  -0.423  0.00  0.00    +0.154 C 
BRANCH   6   7
ATOM      7  C   LIG    1       -1.622   1.264   0.951  0.00  0.00    -0.047 C 
BRANCH   7   9
ATOM      8  C   LIG    1       -2.611   2.996   2.483  0.00  0.00    -0.093 C 
ATOM      9  N   LIG    1       -1.861   2.791   1.144  0.00  0.00    +0.376 N 
ATOM     10  C   LIG    1       -0.523   3.568   1.225  0.00  0.00    -0.093 C 
ATOM     11  C   LIG    1       -2.733   3.372   0.005  0.00  0.00    -0.093 C 
ENDBRANCH   7   9
ENDBRANCH   6   7
ENDBRANCH   5   6
ENDBRANCH   1   5
BRANCH   1  12
ATOM     12  O   LIG    1        1.966   0.766  -1.312  0.00  0.00    -0.284 OA
BRANCH  12  13
ATOM     13  C   LIG    1        1.911   0.069  -2.545  0.00  0.00    +0.206 C 
BRANCH  13  14
ATOM     14  C   LIG    1        1.995   1.083  -3.702  0.00  0.00    +0.166 C 
BRANCH  14  15
ATOM     15  O   LIG    1        2.111   0.391  -4.931  0.00  0.00    -0.387 OA
ATOM     16  H   LIG    1        2.853  -0.215  -4.870  0.00  0.00    +0.210 HD
ENDBRANCH  14  15
BRANCH  14  17
ATOM     17  C   LIG    1        0.812   2.078  -3.768  0.00  0.00    +0.189 C 
BRANCH  17  18
ATOM     18  O   LIG    1       -0.444   1.431  -3.863  0.00  0.00    -0.392 OA
ATOM     19  H   LIG    1       -1.125   2.099  -3.968  0.00  0.00    +0.210 HD
ENDBRANCH  17  18
ENDBRANCH  14  17
ENDBRANCH  13  14
ENDBRANCH  12  13
ENDBRANCH   1  12
TORSDOF 11
