REMARK  Name = DB04545
REMARK                            x       y       z     vdW  Elec       q    Type
REMARK                         _______ _______ _______ _____ _____    ______ ____
ROOT
ATOM      1  C   LIG    1        1.482  -0.019   0.050  0.00  0.00    +0.028 C 
ATOM      2  C   LIG    1        2.025  -1.478   0.023  0.00  0.00    +0.145 C 
ATOM      3  C   LIG    1        3.575  -1.466   0.023  0.00  0.00    +0.126 C 
ATOM      4  C   LIG    1        4.109  -0.749   1.283  0.00  0.00    -0.048 C 
ATOM      5  N   LIG    1        3.579   0.697   1.304  0.00  0.00    +0.381 N 
ATOM      6  H   LIG    1        3.920   1.169   2.131  0.00  0.00    -0.086 HD
ATOM      7  H   LIG    1        3.941   1.199   0.505  0.00  0.00    -0.086 HD
ATOM      8  C   LIG    1        2.036   0.748   1.284  0.00  0.00    -0.074 C 
ENDROOT
BRANCH   2   9
ATOM      9  O   LIG    1        1.490  -2.239  -1.047  0.00  0.00    -0.389 OA
ATOM     10  H   LIG    1        1.855  -1.910  -1.872  0.00  0.00    +0.210 HD
ENDBRANCH   2   9
BRANCH   3  11
ATOM     11  O   LIG    1        4.131  -2.765  -0.056  0.00  0.00    -0.391 OA
ATOM     12  H   LIG    1        3.727  -3.317   0.618  0.00  0.00    +0.210 HD
ENDBRANCH   3  11
BRANCH   1  13
ATOM     13  C   LIG    1       -0.062   0.059  -0.046  0.00  0.00    +0.160 C 
BRANCH  13  14
ATOM     14  O   LIG    1       -0.510   1.398  -0.106  0.00  0.00    -0.395 OA
ATOM     15  H   LIG    1       -1.468   1.398  -0.173  0.00  0.00    +0.209 HD
ENDBRANCH  13  14
ENDBRANCH   1  13
TORSDOF 4
