REMARK  Name = DB04882
REMARK                            x       y       z     vdW  Elec       q    Type
REMARK                         _______ _______ _______ _____ _____    ______ ____
ROOT
ATOM      1  N   LIG    1       -0.042  -0.178   0.151  0.00  0.00    -0.193 N 
ATOM      2  C   LIG    1       -0.794  -1.293   0.012  0.00  0.00    +0.279 A 
ATOM      3  O   LIG    1       -0.381  -2.450  -0.064  0.00  0.00    -0.265 OA
ATOM      4  C   LIG    1       -2.204  -0.801  -0.019  0.00  0.00    +0.064 A 
ATOM      5  C   LIG    1       -2.161   0.583   0.060  0.00  0.00    +0.064 A 
ATOM      6  C   LIG    1       -3.346   1.352   0.038  0.00  0.00    +0.023 A 
ATOM      7  C   LIG    1       -3.668   2.735   0.089  0.00  0.00    +0.008 A 
ATOM      8  C   LIG    1       -2.908   3.915   0.194  0.00  0.00    +0.014 A 
ATOM      9  C   LIG    1       -3.561   5.146   0.216  0.00  0.00    +0.046 A 
ATOM     10  C   LIG    1       -4.947   5.229   0.134  0.00  0.00    +0.119 A 
ATOM     11  C   LIG    1       -5.742   4.088   0.028  0.00  0.00    +0.071 A 
ATOM     12  C   LIG    1       -5.088   2.851   0.008  0.00  0.00    +0.051 A 
ATOM     13  N   LIG    1       -5.604   1.577  -0.085  0.00  0.00    -0.352 N 
ATOM     14  H   LIG    1       -6.585   1.351  -0.160  0.00  0.00    +0.166 HD
ATOM     15  C   LIG    1       -4.574   0.663  -0.056  0.00  0.00    +0.073 A 
ATOM     16  C   LIG    1       -4.633  -0.734  -0.123  0.00  0.00    +0.077 A 
ATOM     17  N   LIG    1       -5.738  -1.581  -0.207  0.00  0.00    -0.309 N 
ATOM     18  C   LIG    1       -5.257  -2.884  -0.316  0.00  0.00    +0.056 A 
ATOM     19  C   LIG    1       -5.953  -4.097  -0.457  0.00  0.00    +0.072 A 
ATOM     20  C   LIG    1       -5.207  -5.271  -0.525  0.00  0.00    +0.119 A 
ATOM     21  C   LIG    1       -3.819  -5.254  -0.459  0.00  0.00    +0.046 A 
ATOM     22  C   LIG    1       -3.120  -4.059  -0.324  0.00  0.00    +0.014 A 
ATOM     23  C   LIG    1       -3.831  -2.845  -0.251  0.00  0.00    +0.009 A 
ATOM     24  C   LIG    1       -3.438  -1.491  -0.125  0.00  0.00    +0.023 A 
ATOM     25  C   LIG    1       -0.728   0.989   0.139  0.00  0.00    +0.279 A 
ATOM     26  O   LIG    1       -0.250   2.122   0.183  0.00  0.00    -0.265 OA
ENDROOT
BRANCH  17  27
ATOM     27  C   LIG    1       -7.152  -1.215  -0.215  0.00  0.00    +0.251 C 
ATOM     28  O   LIG    1       -7.855  -2.055   0.665  0.00  0.00    -0.346 OA
ATOM     29  C   LIG    1       -9.225  -1.678   0.855  0.00  0.00    +0.177 C 
ATOM     30  C   LIG    1       -9.977  -1.799  -0.495  0.00  0.00    +0.177 C 
ATOM     31  C   LIG    1       -9.263  -0.973  -1.588  0.00  0.00    +0.178 C 
ATOM     32  C   LIG    1       -7.749  -1.290  -1.637  0.00  0.00    +0.195 C 
BRANCH  30  33
ATOM     33  O   LIG    1      -11.341  -1.431  -0.372  0.00  0.00    -0.386 OA
ATOM     34  H   LIG    1      -11.393  -0.480  -0.247  0.00  0.00    +0.210 HD
ENDBRANCH  30  33
BRANCH  31  35
ATOM     35  O   LIG    1       -9.872  -1.150  -2.856  0.00  0.00    -0.386 OA
ATOM     36  H   LIG    1       -9.788  -2.072  -3.112  0.00  0.00    +0.210 HD
ENDBRANCH  31  35
BRANCH  32  37
ATOM     37  O   LIG    1       -7.072  -0.426  -2.536  0.00  0.00    -0.385 OA
ATOM     38  H   LIG    1       -6.182  -0.760  -2.672  0.00  0.00    +0.210 HD
ENDBRANCH  32  37
BRANCH  29  39
ATOM     39  C   LIG    1       -9.816  -2.585   1.954  0.00  0.00    +0.190 C 
BRANCH  39  40
ATOM     40  O   LIG    1       -9.170  -2.355   3.190  0.00  0.00    -0.392 OA
ATOM     41  H   LIG    1       -8.263  -2.662   3.120  0.00  0.00    +0.210 HD
ENDBRANCH  39  40
ENDBRANCH  29  39
ENDBRANCH  17  27
BRANCH   1  42
ATOM     42  N   LIG    1        1.375  -0.229   0.164  0.00  0.00    -0.271 N 
ATOM     43  H   LIG    1        1.697   0.446  -0.514  0.00  0.00    +0.167 HD
BRANCH  42  44
ATOM     44  C   LIG    1        1.971   0.054   1.478  0.00  0.00    +0.138 C 
BRANCH  44  45
ATOM     45  C   LIG    1        1.556  -0.979   2.563  0.00  0.00    +0.181 C 
BRANCH  45  46
ATOM     46  O   LIG    1        2.020  -2.285   2.277  0.00  0.00    -0.393 OA
ATOM     47  H   LIG    1        1.732  -2.873   2.979  0.00  0.00    +0.209 HD
ENDBRANCH  45  46
ENDBRANCH  44  45
BRANCH  44  48
ATOM     48  C   LIG    1        3.500   0.175   1.285  0.00  0.00    +0.181 C 
BRANCH  48  49
ATOM     49  O   LIG    1        4.132   0.586   2.481  0.00  0.00    -0.393 OA
ATOM     50  H   LIG    1        5.079   0.630   2.327  0.00  0.00    +0.209 HD
ENDBRANCH  48  49
ENDBRANCH  44  48
ENDBRANCH  42  44
ENDBRANCH   1  42
BRANCH  10  51
ATOM     51  O   LIG    1       -5.546   6.460   0.159  0.00  0.00    -0.507 OA
ATOM     52  H   LIG    1       -6.503   6.412   0.098  0.00  0.00    +0.292 HD
ENDBRANCH  10  51
BRANCH  20  53
ATOM     53  O   LIG    1       -5.856  -6.470  -0.657  0.00  0.00    -0.507 OA
ATOM     54  H   LIG    1       -6.810  -6.379  -0.686  0.00  0.00    +0.292 HD
ENDBRANCH  20  53
TORSDOF 14
