REMARK  Name = DB04951
REMARK                            x       y       z     vdW  Elec       q    Type
REMARK                         _______ _______ _______ _____ _____    ______ ____
ROOT
ATOM      1  O   LIG    1       -0.060   2.422  -0.268  0.00  0.00    -0.267 OA
ATOM      2  C   LIG    1       -0.621   1.335  -0.109  0.00  0.00    +0.256 A 
ATOM      3  C   LIG    1       -2.081   1.251  -0.121  0.00  0.00    +0.071 A 
ATOM      4  C   LIG    1       -2.753   0.076  -0.110  0.00  0.00    +0.010 A 
ATOM      5  C   LIG    1       -2.033  -1.187  -0.026  0.00  0.00    -0.034 A 
ATOM      6  C   LIG    1       -2.747  -2.523   0.019  0.00  0.00    +0.045 C 
ATOM      7  C   LIG    1       -0.689  -1.070   0.050  0.00  0.00    +0.098 A 
ATOM      8  N   LIG    1        0.025   0.119   0.037  0.00  0.00    -0.284 N 
ENDROOT
BRANCH   8   9
ATOM      9  C   LIG    1        1.441   0.055   0.043  0.00  0.00    +0.049 A 
ATOM     10  C   LIG    1        2.179   0.771   0.997  0.00  0.00    +0.026 A 
ATOM     11  C   LIG    1        3.570   0.699   1.003  0.00  0.00    +0.002 A 
ATOM     12  C   LIG    1        4.224  -0.088   0.059  0.00  0.00    +0.000 A 
ATOM     13  C   LIG    1        3.502  -0.806  -0.892  0.00  0.00    +0.002 A 
ATOM     14  C   LIG    1        2.112  -0.737  -0.900  0.00  0.00    +0.026 A 
ENDBRANCH   8   9
TORSDOF 1
