REMARK  Name = DB04465
REMARK                            x       y       z     vdW  Elec       q    Type
REMARK                         _______ _______ _______ _____ _____    ______ ____
ROOT
ATOM      1  O   LIG    1        1.345   0.127   0.019  0.00  0.00    -0.340 OA
ENDROOT
BRANCH   1   6
ATOM      2  C   LIG    1       -1.958   1.534   0.104  0.00  0.00    +0.178 C 
ATOM      3  C   LIG    1       -2.549   0.819   1.345  0.00  0.00    +0.177 C 
ATOM      4  C   LIG    1       -2.041  -0.640   1.392  0.00  0.00    +0.179 C 
ATOM      5  C   LIG    1       -0.500  -0.712   1.244  0.00  0.00    +0.201 C 
ATOM      6  C   LIG    1       -0.051   0.122   0.029  0.00  0.00    +0.282 C 
ATOM      7  O   LIG    1       -0.530   1.438   0.160  0.00  0.00    -0.341 OA
BRANCH   3   8
ATOM      8  O   LIG    1       -2.271   1.525   2.545  0.00  0.00    -0.386 OA
ATOM      9  H   LIG    1       -1.319   1.556   2.667  0.00  0.00    +0.210 HD
ENDBRANCH   3   8
BRANCH   4  10
ATOM     10  O   LIG    1       -2.512  -1.337   2.534  0.00  0.00    -0.386 OA
ATOM     11  H   LIG    1       -2.164  -0.906   3.319  0.00  0.00    +0.210 HD
ENDBRANCH   4  10
BRANCH   5  12
ATOM     12  O   LIG    1       -0.048  -2.052   1.139  0.00  0.00    -0.384 OA
ATOM     13  H   LIG    1       -0.680  -2.547   0.613  0.00  0.00    +0.210 HD
ENDBRANCH   5  12
BRANCH   2  14
ATOM     14  C   LIG    1       -2.368   3.018  -0.011  0.00  0.00    +0.190 C 
BRANCH  14  15
ATOM     15  O   LIG    1       -1.948   3.556  -1.248  0.00  0.00    -0.392 OA
ATOM     16  H   LIG    1       -2.197   4.483  -1.281  0.00  0.00    +0.210 HD
ENDBRANCH  14  15
ENDBRANCH   2  14
ENDBRANCH   1   6
BRANCH   1  17
ATOM     17  C   LIG    1        1.969   0.713  -1.128  0.00  0.00    +0.183 C 
ATOM     18  C   LIG    1        2.895   1.856  -0.668  0.00  0.00    +0.179 C 
ATOM     19  C   LIG    1        3.785   2.348  -1.836  0.00  0.00    +0.201 C 
ATOM     20  C   LIG    1        4.508   1.168  -2.522  0.00  0.00    +0.279 C 
ATOM     21  O   LIG    1        3.572   0.197  -2.929  0.00  0.00    -0.341 OA
ATOM     22  C   LIG    1        2.779  -0.376  -1.876  0.00  0.00    +0.178 C 
BRANCH  18  23
ATOM     23  O   LIG    1        2.137   2.921  -0.122  0.00  0.00    -0.386 OA
ATOM     24  H   LIG    1        1.391   2.547   0.353  0.00  0.00    +0.210 HD
ENDBRANCH  18  23
BRANCH  19  25
ATOM     25  O   LIG    1        4.681   3.381  -1.458  0.00  0.00    -0.384 OA
ATOM     26  H   LIG    1        5.075   3.146  -0.615  0.00  0.00    +0.210 HD
ENDBRANCH  19  25
BRANCH  20  27
ATOM     27  O   LIG    1        5.469   0.654  -1.679  0.00  0.00    -0.365 OA
ATOM     28  H   LIG    1        6.005   0.037  -2.183  0.00  0.00    +0.213 HD
ENDBRANCH  20  27
BRANCH  22  29
ATOM     29  C   LIG    1        1.909  -1.505  -2.469  0.00  0.00    +0.190 C 
BRANCH  29  30
ATOM     30  O   LIG    1        0.954  -1.017  -3.392  0.00  0.00    -0.392 OA
ATOM     31  H   LIG    1        0.462  -1.762  -3.747  0.00  0.00    +0.210 HD
ENDBRANCH  29  30
ENDBRANCH  22  29
ENDBRANCH   1  17
TORSDOF 12
