REMARK  Name = DB04982
REMARK                            x       y       z     vdW  Elec       q    Type
REMARK                         _______ _______ _______ _____ _____    ______ ____
ROOT
ATOM      1  O   LIG    1       -1.615  -5.266   0.702  0.00  0.00    -0.453 OA
ATOM      2  C   LIG    1       -0.469  -5.769   1.336  0.00  0.00    +0.466 C 
ATOM      3  O   LIG    1        0.335  -4.676   1.692  0.00  0.00    -0.453 OA
ATOM      4  C   LIG    1       -0.155  -3.620   0.990  0.00  0.00    +0.167 A 
ATOM      5  C   LIG    1        0.363  -2.338   0.871  0.00  0.00    +0.060 A 
ATOM      6  C   LIG    1       -0.339  -1.386   0.100  0.00  0.00    +0.009 A 
ATOM      7  C   LIG    1        0.266  -0.040  -0.106  0.00  0.00    +0.097 C 
ATOM      8  N   LIG    1       -0.329   1.098  -0.070  0.00  0.00    -0.176 NA
ATOM      9  N   LIG    1       -1.661   1.321   0.196  0.00  0.00    -0.190 N 
ATOM     10  C   LIG    1       -1.907   2.559   0.733  0.00  0.00    +0.232 C 
ATOM     11  C   LIG    1       -0.769   3.428   1.305  0.00  0.00    +0.111 C 
ATOM     12  O   LIG    1       -3.041   3.038   0.799  0.00  0.00    -0.274 OA
ATOM     13  C   LIG    1       -2.786   0.468  -0.290  0.00  0.00    +0.102 C 
ATOM     14  C   LIG    1       -3.692  -0.026   0.868  0.00  0.00    +0.030 C 
ATOM     15  C   LIG    1       -2.400  -0.707  -1.216  0.00  0.00    +0.060 C 
ATOM     16  C   LIG    1       -1.570  -1.761  -0.502  0.00  0.00    -0.033 A 
ATOM     17  C   LIG    1       -2.064  -3.070  -0.352  0.00  0.00    +0.054 A 
ATOM     18  C   LIG    1       -1.325  -3.975   0.393  0.00  0.00    +0.167 A 
ENDROOT
BRANCH   7  19
ATOM     19  C   LIG    1        1.719  -0.023  -0.400  0.00  0.00    +0.003 A 
ATOM     20  C   LIG    1        2.561   0.901   0.235  0.00  0.00    +0.012 A 
ATOM     21  C   LIG    1        3.925   0.918  -0.045  0.00  0.00    +0.023 A 
ATOM     22  C   LIG    1        4.455   0.015  -0.965  0.00  0.00    +0.025 A 
ATOM     23  C   LIG    1        3.628  -0.905  -1.607  0.00  0.00    +0.023 A 
ATOM     24  C   LIG    1        2.264  -0.924  -1.327  0.00  0.00    +0.012 A 
BRANCH  22  25
ATOM     25  N   LIG    1        5.820   0.033  -1.246  0.00  0.00    -0.358 N 
ATOM     26  H   LIG    1        6.198  -0.622  -1.915  0.00  0.00    +0.142 HD
ATOM     27  H   LIG    1        6.415   0.700  -0.776  0.00  0.00    +0.142 HD
ENDBRANCH  22  25
ENDBRANCH   7  19
TORSDOF 2
