REMARK  Name = DB04931
REMARK                            x       y       z     vdW  Elec       q    Type
REMARK                         _______ _______ _______ _____ _____    ______ ____
ROOT
ATOM      1  C   UNK A  1        1.254   0.286  -0.702  0.00  0.00    +0.163 C 
ENDROOT
BRANCH   1   2
ATOM      2  N   UNK A  1       -0.170   0.214  -1.052  0.00  0.00    -0.302 N 
ATOM      3  H   UNK A  1       -0.684  -0.481  -0.531  0.00  0.00    +0.150 HD
ATOM      4  C   UNK A  1       -0.877   1.009  -1.878  0.00  0.00    +0.234 C 
ATOM      5  O   UNK A  1       -0.395   1.891  -2.589  0.00  0.00    -0.274 OA
BRANCH   4   6
ATOM      6  C   UNK A  1       -2.398   0.788  -1.841  0.00  0.00    +0.165 C 
BRANCH   6   7
ATOM      7  N   UNK A  1       -2.843   0.900  -0.454  0.00  0.00    -0.302 N 
ATOM      8  H   UNK A  1       -2.302   1.529   0.123  0.00  0.00    +0.150 HD
ATOM      9  C   UNK A  1       -3.906   0.286   0.078  0.00  0.00    +0.234 C 
ATOM     10  O   UNK A  1       -4.632  -0.506  -0.524  0.00  0.00    -0.274 OA
BRANCH   9  11
ATOM     11  C   UNK A  1       -4.178   0.630   1.551  0.00  0.00    +0.159 C 
BRANCH  11  12
ATOM     12  N   UNK A  1       -5.596   0.531   1.891  0.00  0.00    -0.302 N 
ATOM     13  H   UNK A  1       -5.858  -0.263   2.458  0.00  0.00    +0.150 HD
ATOM     14  C   UNK A  1       -6.538   1.420   1.537  0.00  0.00    +0.234 C 
ATOM     15  O   UNK A  1       -6.321   2.421   0.851  0.00  0.00    -0.274 OA
BRANCH  14  16
ATOM     16  C   UNK A  1       -7.947   1.147   2.091  0.00  0.00    +0.159 C 
BRANCH  16  17
ATOM     17  N   UNK A  1       -7.959   1.392   3.533  0.00  0.00    -0.302 N 
ATOM     18  H   UNK A  1       -8.183   2.337   3.813  0.00  0.00    +0.150 HD
ATOM     19  C   UNK A  1       -7.706   0.472   4.478  0.00  0.00    +0.236 C 
ATOM     20  O   UNK A  1       -7.420  -0.704   4.251  0.00  0.00    -0.274 OA
BRANCH  19  21
ATOM     21  C   UNK A  1       -7.777   0.966   5.933  0.00  0.00    +0.184 C 
BRANCH  21  22
ATOM     22  N   UNK A  1       -8.704   0.161   6.728  0.00  0.00    -0.301 N 
ATOM     23  H   UNK A  1       -8.284  -0.415   7.443  0.00  0.00    +0.150 HD
ATOM     24  C   UNK A  1      -10.037   0.128   6.553  0.00  0.00    +0.234 C 
ATOM     25  O   UNK A  1      -10.643   0.790   5.708  0.00  0.00    -0.274 OA
BRANCH  24  26
ATOM     26  C   UNK A  1      -10.804  -0.835   7.469  0.00  0.00    +0.163 C 
BRANCH  26  27
ATOM     27  N   UNK A  1      -12.163  -0.337   7.687  0.00  0.00    -0.302 N 
ATOM     28  H   UNK A  1      -12.619   0.055   6.876  0.00  0.00    +0.150 HD
ATOM     29  C   UNK A  1      -12.807  -0.341   8.865  0.00  0.00    +0.236 C 
ATOM     30  O   UNK A  1      -12.336  -0.777   9.917  0.00  0.00    -0.274 OA
BRANCH  29  31
ATOM     31  C   UNK A  1      -14.220   0.270   8.860  0.00  0.00    +0.184 C 
BRANCH  31  32
ATOM     32  N   UNK A  1      -15.145  -0.543   9.651  0.00  0.00    -0.302 N 
ATOM     33  H   UNK A  1      -15.329  -0.213  10.587  0.00  0.00    +0.150 HD
ATOM     34  C   UNK A  0      -15.697  -1.696   9.238  0.00  0.00    +0.211 C 
ATOM     35  C   UNK A  0      -16.581  -2.428  10.243  0.00  0.00    +0.109 C 
ATOM     36  O   UNK A  0      -15.527  -2.170   8.116  0.00  0.00    -0.276 OA
ENDBRANCH  31  32
BRANCH  31  37
ATOM     37  C   UNK A  1      -14.229   1.707   9.423  0.00  0.00    +0.187 C 
BRANCH  37  38
ATOM     38  O   UNK A  1      -13.406   2.575   8.668  0.00  0.00    -0.393 OA
ATOM     39  H   UNK A  1      -13.443   3.451   9.060  0.00  0.00    +0.209 HD
ENDBRANCH  37  38
ENDBRANCH  31  37
ENDBRANCH  29  31
ENDBRANCH  26  27
BRANCH  26  40
ATOM     40  C   UNK A  1      -10.854  -2.251   6.850  0.00  0.00    +0.067 C 
BRANCH  40  41
ATOM     41  C   UNK A  1      -11.511  -3.308   7.721  0.00  0.00    -0.045 A 
ATOM     42  C   UNK A  1      -12.776  -3.829   7.378  0.00  0.00    +0.007 A 
ATOM     43  C   UNK A  1      -13.393  -4.791   8.200  0.00  0.00    +0.045 A 
ATOM     44  C   UNK A  1      -12.748  -5.237   9.370  0.00  0.00    +0.117 A 
ATOM     45  C   UNK A  1      -11.482  -4.723   9.714  0.00  0.00    +0.045 A 
ATOM     46  C   UNK A  1      -10.864  -3.763   8.890  0.00  0.00    +0.007 A 
BRANCH  44  47
ATOM     47  O   UNK A  1      -13.348  -6.166  10.170  0.00  0.00    -0.507 OA
ATOM     48  H   UNK A  1      -14.203  -6.451   9.841  0.00  0.00    +0.292 HD
ENDBRANCH  44  47
ENDBRANCH  40  41
ENDBRANCH  26  40
ENDBRANCH  24  26
ENDBRANCH  21  22
BRANCH  21  49
ATOM     49  C   UNK A  1       -6.380   0.932   6.585  0.00  0.00    +0.187 C 
BRANCH  49  50
ATOM     50  O   UNK A  1       -6.353   1.756   7.732  0.00  0.00    -0.393 OA
ATOM     51  H   UNK A  1       -5.473   1.717   8.116  0.00  0.00    +0.209 HD
ENDBRANCH  49  50
ENDBRANCH  21  49
ENDBRANCH  19  21
ENDBRANCH  16  17
BRANCH  16  52
ATOM     52  C   UNK A  1       -9.037   1.974   1.371  0.00  0.00    +0.032 C 
BRANCH  52  53
ATOM     53  C   UNK A  1      -10.466   1.634   1.840  0.00  0.00    +0.002 C 
BRANCH  53  54
ATOM     54  C   UNK A  1      -11.546   2.425   1.083  0.00  0.00    -0.003 C 
ATOM     55  C   UNK A  1      -12.969   2.096   1.556  0.00  0.00    +0.004 C 
ENDBRANCH  53  54
ENDBRANCH  52  53
ENDBRANCH  16  52
ENDBRANCH  14  16
ENDBRANCH  11  12
BRANCH  11  56
ATOM     56  C   UNK A  1       -3.353  -0.275   2.489  0.00  0.00    +0.043 C 
BRANCH  56  57
ATOM     57  C   UNK A  1       -3.570   0.038   3.985  0.00  0.00    +0.123 C 
BRANCH  57  58
ATOM     58  C   UNK A  1       -2.596  -0.694   4.910  0.00  0.00    +0.305 C 
ATOM     59  O   UNK A  1       -1.682  -1.423   4.527  0.00  0.00    -0.251 OA
BRANCH  58  60
ATOM     60  O   UNK A  1       -2.858  -0.433   6.223  0.00  0.00    -0.481 OA
ATOM     61  H   UNK A  1       -2.253  -0.885   6.816  0.00  0.00    +0.295 HD
ENDBRANCH  58  60
ENDBRANCH  57  58
ENDBRANCH  56  57
ENDBRANCH  11  56
ENDBRANCH   9  11
ENDBRANCH   6   7
BRANCH   6  62
ATOM     62  C   UNK A  1       -3.213   1.746  -2.748  0.00  0.00    +0.086 C 
BRANCH  62  63
ATOM     63  C   UNK A  1       -3.307   3.182  -2.279  0.00  0.00    +0.038 A 
ATOM     64  C   UNK A  1       -2.603   4.311  -2.638  0.00  0.00    +0.133 A 
ATOM     65  N   UNK A  1       -3.065   5.412  -1.914  0.00  0.00    -0.244 NA
ATOM     66  C   UNK A  1       -4.034   4.916  -1.154  0.00  0.00    +0.196 A 
ATOM     67  N   UNK A  1       -4.225   3.607  -1.331  0.00  0.00    -0.348 N 
ATOM     68  H   UNK A  1       -4.910   3.035  -0.858  0.00  0.00    +0.166 HD
ENDBRANCH  62  63
ENDBRANCH   6  62
ENDBRANCH   4   6
ENDBRANCH   1   2
BRANCH   1  71
ATOM     69  N   UNK A  1        3.277  -0.821  -1.501  0.00  0.00    -0.302 N 
ATOM     70  H   UNK A  1        3.382  -1.108  -0.539  0.00  0.00    +0.150 HD
ATOM     71  C   UNK A  1        2.214  -0.077  -1.851  0.00  0.00    +0.234 C 
ATOM     72  O   UNK A  1        2.004   0.323  -2.996  0.00  0.00    -0.274 OA
BRANCH  69  73
ATOM     73  C   UNK A  1        4.331  -1.269  -2.415  0.00  0.00    +0.159 C 
BRANCH  73  76
ATOM     74  N   UNK A  1        2.848  -2.870  -3.528  0.00  0.00    -0.302 N 
ATOM     75  H   UNK A  1        2.209  -2.089  -3.587  0.00  0.00    +0.150 HD
ATOM     76  C   UNK A  1        4.046  -2.688  -2.947  0.00  0.00    +0.234 C 
ATOM     77  O   UNK A  1        4.893  -3.575  -2.830  0.00  0.00    -0.274 OA
BRANCH  74  78
ATOM     78  C   UNK A  1        2.402  -4.102  -4.182  0.00  0.00    +0.163 C 
BRANCH  78  81
ATOM     79  N   UNK A  1        3.364  -5.602  -5.854  0.00  0.00    -0.305 N 
ATOM     80  H   UNK A  1        3.106  -6.334  -5.208  0.00  0.00    +0.149 HD
ATOM     81  C   UNK A  1        3.105  -4.323  -5.533  0.00  0.00    +0.234 C 
ATOM     82  O   UNK A  1        3.372  -3.359  -6.252  0.00  0.00    -0.274 OA
BRANCH  79  83
ATOM     83  C   UNK A  1        3.963  -6.025  -7.119  0.00  0.00    +0.200 C 
BRANCH  83  86
ATOM     84  N   UNK A  1        3.302  -5.519  -9.416  0.00  0.00    -0.303 N 
ATOM     85  H   UNK A  1        4.261  -5.223  -9.526  0.00  0.00    +0.149 HD
ATOM     86  C   UNK A  1        2.901  -5.993  -8.225  0.00  0.00    +0.231 C 
ATOM     87  O   UNK A  1        1.759  -6.398  -8.003  0.00  0.00    -0.274 OA
BRANCH  84  88
ATOM     88  C   UNK A  1        2.449  -5.333 -10.592  0.00  0.00    +0.159 C 
BRANCH  88  90
ATOM     89  O   UNK A  1        2.748  -7.545 -11.442  0.00  0.00    -0.274 OA
ATOM     90  C   UNK A  1        1.922  -6.684 -11.133  0.00  0.00    +0.237 C 
ATOM     91  N   UNK A  1        0.582  -6.852 -11.251  0.00  0.00    -0.288 N 
ATOM     92  C   UNK A  1       -0.455  -5.928 -10.778  0.00  0.00    +0.109 C 
ATOM     93  C   UNK A  1       -1.789  -6.561 -11.162  0.00  0.00    +0.021 C 
ATOM     94  C   UNK A  1       -1.449  -8.037 -11.313  0.00  0.00    +0.033 C 
ATOM     95  C   UNK A  1       -0.015  -8.047 -11.871  0.00  0.00    +0.162 C 
BRANCH  95  96
ATOM     96  C   UNK A  1        0.059  -7.990 -13.414  0.00  0.00    +0.234 C 
ATOM     97  N   UNK A  1        1.230  -8.358 -13.961  0.00  0.00    -0.302 N 
ATOM     98  H   UNK A  1        1.982  -8.659 -13.358  0.00  0.00    +0.150 HD
ATOM     99  O   UNK A  1       -0.910  -7.599 -14.066  0.00  0.00    -0.274 OA
BRANCH  97 100
ATOM    100  C   UNK A  1        1.523  -8.366 -15.399  0.00  0.00    +0.161 C 
BRANCH 100 101
ATOM    101  C   UNK A  1        0.817  -9.560 -16.088  0.00  0.00    +0.231 C 
ATOM    102  N   UNK A  1       -0.005  -9.271 -17.101  0.00  0.00    -0.328 N 
ATOM    103  H   UNK A  1       -0.484 -10.012 -17.591  0.00  0.00    +0.145 HD
ATOM    104  H   UNK A  1       -0.161  -8.312 -17.377  0.00  0.00    +0.145 HD
ATOM    105  O   UNK A  1        1.039 -10.712 -15.718  0.00  0.00    -0.274 OA
ENDBRANCH 100 101
BRANCH 100 106
ATOM    106  C   UNK A  1        3.067  -8.439 -15.658  0.00  0.00    +0.012 C 
ATOM    107  C   UNK A  1        3.471  -8.561 -17.145  0.00  0.00    +0.009 C 
ATOM    108  C   UNK A  1        3.811  -7.240 -15.035  0.00  0.00    +0.009 C 
ENDBRANCH 100 106
ENDBRANCH  97 100
ENDBRANCH  95  96
ENDBRANCH  88  90
BRANCH  88 109
ATOM    109  C   UNK A  1        3.285  -4.601 -11.664  0.00  0.00    +0.032 C 
BRANCH 109 110
ATOM    110  C   UNK A  1        2.492  -4.234 -12.933  0.00  0.00    +0.003 C 
BRANCH 110 111
ATOM    111  C   UNK A  1        3.344  -3.471 -13.960  0.00  0.00    +0.015 C 
BRANCH 111 112
ATOM    112  C   UNK A  1        2.591  -3.156 -15.262  0.00  0.00    +0.077 C 
BRANCH 112 113
ATOM    113  N   UNK A  1        1.548  -2.176 -15.030  0.00  0.00    -0.330 NA
ATOM    114  H   UNK A  1        1.952  -1.334 -14.645  0.00  0.00    +0.118 HD
ATOM    115  H   UNK A  1        0.899  -2.526 -14.340  0.00  0.00    +0.118 HD
ENDBRANCH 112 113
ENDBRANCH 111 112
ENDBRANCH 110 111
ENDBRANCH 109 110
ENDBRANCH  88 109
ENDBRANCH  84  88
ENDBRANCH  83  86
ENDBRANCH  79  83
ENDBRANCH  78  81
BRANCH  78 116
ATOM    116  C   UNK A  1        0.863  -4.084  -4.338  0.00  0.00    +0.069 C 
BRANCH 116 117
ATOM    117  C   UNK A  1        0.234  -2.843  -4.912  0.00  0.00    -0.020 A 
ATOM    118  C   UNK A  1       -0.202  -1.793  -4.180  0.00  0.00    +0.087 A 
ATOM    119  N   UNK A  1       -0.661  -0.798  -5.015  0.00  0.00    -0.360 N 
ATOM    120  H   UNK A  1       -1.017   0.083  -4.670  0.00  0.00    +0.165 HD
ATOM    121  C   UNK A  1       -0.548  -1.155  -6.341  0.00  0.00    +0.047 A 
ATOM    122  C   UNK A  1       -0.868  -0.500  -7.543  0.00  0.00    +0.026 A 
ATOM    123  C   UNK A  1       -0.619  -1.149  -8.766  0.00  0.00    +0.002 A 
ATOM    124  C   UNK A  1       -0.054  -2.439  -8.772  0.00  0.00    +0.001 A 
ATOM    125  C   UNK A  1        0.263  -3.085  -7.559  0.00  0.00    +0.010 A 
ATOM    126  C   UNK A  1        0.026  -2.463  -6.310  0.00  0.00    +0.003 A 
ENDBRANCH 116 117
ENDBRANCH  78 116
ENDBRANCH  74  78
ENDBRANCH  73  76
BRANCH  73 127
ATOM    127  C   UNK A  1        5.702  -1.144  -1.710  0.00  0.00    +0.035 C 
BRANCH 127 128
ATOM    128  C   UNK A  1        6.062   0.303  -1.331  0.00  0.00    +0.039 C 
BRANCH 128 129
ATOM    129  C   UNK A  1        7.450   0.417  -0.689  0.00  0.00    +0.196 C 
BRANCH 129 130
ATOM    130  N   UNK A  1        7.755   1.792  -0.341  0.00  0.00    -0.276 N 
ATOM    131  H   UNK A  1        7.042   2.472  -0.563  0.00  0.00    +0.258 HD
BRANCH 130 132
ATOM    132  C   UNK A  1        8.903   2.258   0.283  0.00  0.00    +0.376 C 
ATOM    133  N   UNK A  1        9.872   1.534   0.640  0.00  0.00    -0.130 NA
ATOM    134  H   UNK A  1       10.619   2.051   1.083  0.00  0.00    +0.306 HD
BRANCH 132 135
ATOM    135  N   UNK A  1        8.859   3.629   0.468  0.00  0.00    -0.289 N 
ATOM    136  H   UNK A  1        8.350   4.127  -0.248  0.00  0.00    +0.255 HD
ATOM    137  H   UNK A  1        9.764   4.059   0.590  0.00  0.00    +0.255 HD
ENDBRANCH 132 135
ENDBRANCH 130 132
ENDBRANCH 129 130
ENDBRANCH 128 129
ENDBRANCH 127 128
ENDBRANCH  73 127
ENDBRANCH  69  73
ENDBRANCH   1  71
BRANCH   1 138
ATOM    138  C   UNK A  1        1.611   1.655  -0.074  0.00  0.00    +0.067 C 
BRANCH 138 139
ATOM    139  C   UNK A  1        0.810   1.997   1.172  0.00  0.00    -0.045 A 
ATOM    140  C   UNK A  1        1.108   1.372   2.401  0.00  0.00    +0.004 A 
ATOM    141  C   UNK A  1        0.306   1.602   3.511  0.00  0.00    +0.000 A 
ATOM    142  C   UNK A  1       -0.805   2.429   3.413  0.00  0.00    +0.000 A 
ATOM    143  C   UNK A  1       -1.133   3.025   2.201  0.00  0.00    +0.000 A 
ATOM    144  C   UNK A  1       -0.343   2.808   1.081  0.00  0.00    +0.004 A 
ENDBRANCH 138 139
ENDBRANCH   1 138
TORSDOF 57
