REMARK  Name = DB04825
REMARK                            x       y       z     vdW  Elec       q    Type
REMARK                         _______ _______ _______ _____ _____    ______ ____
ROOT
ATOM      1  C   LIG    1        2.109  -1.344  -0.076  0.00  0.00    +0.028 C 
ENDROOT
BRANCH   1   2
ATOM      2  C   LIG    1        1.616   0.114  -0.204  0.00  0.00    +0.082 C 
BRANCH   2   3
ATOM      3  N   LIG    1        0.159   0.163  -0.277  0.00  0.00    -0.313 NA
ATOM      4  H   LIG    1       -0.146  -0.258  -1.142  0.00  0.00    +0.122 HD
BRANCH   3   5
ATOM      5  C   LIG    1       -0.394   1.513  -0.174  0.00  0.00    +0.055 C 
ATOM      6  C   LIG    1       -0.074   2.343  -1.434  0.00  0.00    +0.024 C 
BRANCH   5   7
ATOM      7  C   LIG    1       -1.921   1.423   0.066  0.00  0.00    +0.053 C 
BRANCH   7   8
ATOM      8  C   LIG    1       -2.315   0.654   1.325  0.00  0.00    -0.046 A 
ATOM      9  C   LIG    1       -2.274   1.288   2.570  0.00  0.00    +0.004 A 
ATOM     10  C   LIG    1       -2.626   0.586   3.720  0.00  0.00    +0.000 A 
ATOM     11  C   LIG    1       -3.014  -0.749   3.622  0.00  0.00    +0.000 A 
ATOM     12  C   LIG    1       -3.056  -1.387   2.384  0.00  0.00    +0.000 A 
ATOM     13  C   LIG    1       -2.707  -0.685   1.234  0.00  0.00    +0.004 A 
ENDBRANCH   7   8
ENDBRANCH   5   7
ENDBRANCH   3   5
ENDBRANCH   2   3
ENDBRANCH   1   2
BRANCH   1  14
ATOM     14  C   LIG    1        1.576  -2.126   1.162  0.00  0.00    +0.050 C 
BRANCH  14  15
ATOM     15  C   LIG    1        1.933  -3.620   1.189  0.00  0.00    -0.040 A 
ATOM     16  C   LIG    1        3.059  -4.129   0.527  0.00  0.00    +0.004 A 
ATOM     17  C   LIG    1        3.348  -5.490   0.580  0.00  0.00    +0.000 A 
ATOM     18  C   LIG    1        2.514  -6.347   1.293  0.00  0.00    +0.000 A 
ATOM     19  C   LIG    1        1.393  -5.854   1.956  0.00  0.00    +0.000 A 
ATOM     20  C   LIG    1        1.104  -4.494   1.903  0.00  0.00    +0.004 A 
ENDBRANCH  14  15
BRANCH  14  21
ATOM     21  C   LIG    1        1.923  -1.428   2.480  0.00  0.00    -0.040 A 
ATOM     22  C   LIG    1        0.909  -0.844   3.246  0.00  0.00    +0.004 A 
ATOM     23  C   LIG    1        1.219  -0.190   4.435  0.00  0.00    +0.000 A 
ATOM     24  C   LIG    1        2.545  -0.118   4.857  0.00  0.00    +0.000 A 
ATOM     25  C   LIG    1        3.563  -0.694   4.099  0.00  0.00    +0.000 A 
ATOM     26  C   LIG    1        3.252  -1.347   2.910  0.00  0.00    +0.004 A 
ENDBRANCH  14  21
ENDBRANCH   1  14
TORSDOF 8
