REMARK  Name = DB04917
REMARK                            x       y       z     vdW  Elec       q    Type
REMARK                         _______ _______ _______ _____ _____    ______ ____
ROOT
ATOM      1  C   LIG    1        1.585  -0.235   2.468  0.00  0.00    +0.248 C 
ATOM      2  N   LIG    1        2.458   0.041   3.457  0.00  0.00    -0.308 N 
ATOM      3  H   LIG    1        3.438   0.082   3.219  0.00  0.00    +0.149 HD
ATOM      4  O   LIG    1        0.386  -0.436   2.672  0.00  0.00    -0.270 OA
ENDROOT
BRANCH   2   5
ATOM      5  C   LIG    1        2.143   0.095   4.890  0.00  0.00    +0.073 C 
ATOM      6  C   LIG    1        3.400  -0.172   5.768  0.00  0.00    +0.004 C 
ATOM      7  C   LIG    1        4.171   1.064   6.289  0.00  0.00    -0.077 C 
ATOM      8  N   LIG    1        3.229   2.224   6.689  0.00  0.00    +0.380 N 
ATOM      9  H   LIG    1        3.824   3.024   6.858  0.00  0.00    -0.082 HD
ATOM     10  C   LIG    1        2.450   1.973   8.008  0.00  0.00    -0.079 C 
ATOM     11  C   LIG    1        1.267   0.986   7.827  0.00  0.00    -0.018 C 
ATOM     12  C   LIG    1        0.451   1.218   6.536  0.00  0.00    +0.002 C 
ATOM     13  C   LIG    1        2.293   2.584   5.519  0.00  0.00    -0.074 C 
ATOM     14  C   LIG    1        1.353   1.386   5.288  0.00  0.00    -0.007 C 
ENDBRANCH   2   5
BRANCH   1  20
ATOM     15 CL   LIG    1        0.917   0.469  -2.709  0.00  0.00    -0.078 Cl
ATOM     16  C   LIG    1        1.904   0.030  -1.350  0.00  0.00    +0.104 A 
ATOM     17  C   LIG    1        3.222  -0.407  -1.539  0.00  0.00    +0.047 A 
ATOM     18  C   LIG    1        4.001  -0.753  -0.437  0.00  0.00    +0.025 A 
ATOM     19  C   LIG    1        3.473  -0.678   0.848  0.00  0.00    +0.018 A 
ATOM     20  C   LIG    1        2.153  -0.249   1.064  0.00  0.00    +0.080 A 
ATOM     21  C   LIG    1        1.373   0.124  -0.054  0.00  0.00    +0.152 A 
BRANCH  17  22
ATOM     22  N   LIG    1        3.783  -0.506  -2.815  0.00  0.00    -0.357 N 
ATOM     23  H   LIG    1        3.235  -0.234  -3.618  0.00  0.00    +0.142 HD
ATOM     24  H   LIG    1        4.742  -0.808  -2.917  0.00  0.00    +0.142 HD
ENDBRANCH  17  22
BRANCH  21  25
ATOM     25  O   LIG    1        0.079   0.578   0.082  0.00  0.00    -0.493 OA
ATOM     26  C   LIG    1       -0.035   1.948   0.450  0.00  0.00    +0.277 C 
ENDBRANCH  21  25
ENDBRANCH   1  20
TORSDOF 4
