REMARK  Name = DB04860
REMARK                            x       y       z     vdW  Elec       q    Type
REMARK                         _______ _______ _______ _____ _____    ______ ____
ROOT
ATOM      1  S   LIG    1       -2.307  -0.624   0.520  0.00  0.00    -0.019 S 
ATOM      2  C   LIG    1       -1.931   1.038   0.143  0.00  0.00    +0.124 A 
ATOM      3  C   LIG    1       -2.914   2.065  -0.168  0.00  0.00    +0.269 A 
ATOM      4  N   LIG    1       -2.313   3.266  -0.414  0.00  0.00    -0.294 N 
ATOM      5  H   LIG    1       -2.939   4.025  -0.636  0.00  0.00    +0.172 HD
ATOM      6  C   LIG    1       -0.959   3.521  -0.381  0.00  0.00    +0.195 A 
ATOM      7  N   LIG    1       -0.125   2.572  -0.095  0.00  0.00    -0.197 NA
ATOM      8  O   LIG    1       -4.130   1.903  -0.211  0.00  0.00    -0.266 OA
ATOM      9  C   LIG    1       -0.610   1.313   0.166  0.00  0.00    +0.161 A 
ATOM     10  N   LIG    1        0.184   0.238   0.483  0.00  0.00    -0.257 N 
ATOM     11  C   LIG    1       -0.522  -0.956   0.725  0.00  0.00    +0.295 A 
ATOM     12  O   LIG    1       -0.075  -2.064   1.021  0.00  0.00    -0.259 OA
ENDROOT
BRANCH  10  13
ATOM     13  C1* LIG    1        1.636   0.252   0.584  0.00  0.00    +0.256 C 
ATOM     14  C2* LIG    1        2.277  -0.037   1.939  0.00  0.00    +0.195 C 
ATOM     15  C3* LIG    1        3.717  -0.254   1.473  0.00  0.00    +0.178 C 
ATOM     16  C4* LIG    1        3.550  -0.987   0.126  0.00  0.00    +0.177 C 
ATOM     17  O4* LIG    1        2.224  -0.658  -0.296  0.00  0.00    -0.346 OA
BRANCH  15  18
ATOM     18  O3* LIG    1        4.460   0.948   1.341  0.00  0.00    -0.386 OA
ATOM     19  H3* LIG    1        4.354   1.459   2.147  0.00  0.00    +0.210 HD
ENDBRANCH  15  18
BRANCH  14  20
ATOM     20  O2* LIG    1        2.024   1.012   2.858  0.00  0.00    -0.385 OA
ATOM     21  H2* LIG    1        1.114   0.945   3.156  0.00  0.00    +0.210 HD
ENDBRANCH  14  20
BRANCH  16  22
ATOM     22  C5* LIG    1        3.648  -2.523   0.235  0.00  0.00    +0.190 C 
BRANCH  22  23
ATOM     23  O5* LIG    1        3.529  -3.130  -1.036  0.00  0.00    -0.392 OA
ATOM     24  H5* LIG    1        3.576  -4.082  -0.927  0.00  0.00    +0.210 HD
ENDBRANCH  22  23
ENDBRANCH  16  22
ENDBRANCH  10  13
BRANCH   6  25
ATOM     25  N   LIG    1       -0.512   4.830  -0.655  0.00  0.00    -0.329 N 
ATOM     26  H   LIG    1       -0.940   5.297  -1.441  0.00  0.00    +0.145 HD
ATOM     27  H   LIG    1        0.488   4.962  -0.684  0.00  0.00    +0.145 HD
ENDBRANCH   6  25
TORSDOF 6
