REMARK  Name = DB04789
REMARK                            x       y       z     vdW  Elec       q    Type
REMARK                         _______ _______ _______ _____ _____    ______ ____
ROOT
ATOM      1  C   UNK A  0       -2.793  -0.110  -0.379  0.00  0.00    +0.027 A 
ATOM      2  C   UNK A  0       -1.998   1.018  -0.614  0.00  0.00    +0.023 A 
ATOM      3  C   UNK A  0       -0.611   0.926  -0.539  0.00  0.00    +0.015 A 
ATOM      4  C   UNK A  0        0.010  -0.294  -0.227  0.00  0.00    +0.037 A 
ATOM      5  C   UNK A  0       -0.796  -1.416   0.013  0.00  0.00    +0.015 A 
ATOM      6  C   UNK A  0       -2.183  -1.323  -0.064  0.00  0.00    +0.023 A 
ENDROOT
BRANCH   4   7
ATOM      7  C   UNK A  0        1.518  -0.420  -0.141  0.00  0.00    +0.245 C 
ATOM      8  N   GLU A  1        2.234   0.641  -0.572  0.00  0.00    -0.298 N 
ATOM      9  H   GLU A  1        1.726   1.407  -0.989  0.00  0.00    +0.150 HD
ATOM     10  O   UNK A  0        2.042  -1.452   0.283  0.00  0.00    -0.270 OA
BRANCH   8  11
ATOM     11  CA  GLU A  1        3.700   0.798  -0.611  0.00  0.00    +0.182 C 
BRANCH  11  12
ATOM     12  C   GLU A  1        4.344   0.725   0.827  0.00  0.00    +0.325 C 
ATOM     13  OXT GLU A  1        5.094  -0.262   1.008  0.00  0.00    -0.249 OA
BRANCH  12  14
ATOM     14  O   GLU A  1        4.030   1.639   1.628  0.00  0.00    -0.479 OA
ATOM     15  H   GLU A  1        4.384   1.644   2.496  0.00  0.00    +0.295 HD
ENDBRANCH  12  14
ENDBRANCH  11  12
BRANCH  11  16
ATOM     16  CB  GLU A  1        4.038   2.164  -1.277  0.00  0.00    +0.045 C 
BRANCH  16  17
ATOM     17  CG  GLU A  1        3.610   2.250  -2.764  0.00  0.00    +0.123 C 
BRANCH  17  18
ATOM     18  CD  GLU A  1        3.922   3.577  -3.481  0.00  0.00    +0.305 C 
ATOM     19  OE2 GLU A  1        3.592   3.643  -4.686  0.00  0.00    -0.251 OA
BRANCH  18  20
ATOM     20  OE1 GLU A  1        4.470   4.506  -2.846  0.00  0.00    -0.481 OA
ATOM     21  HE1 GLU A  1        4.663   5.316  -3.275  0.00  0.00    +0.295 HD
ENDBRANCH  18  20
ENDBRANCH  17  18
ENDBRANCH  16  17
ENDBRANCH  11  16
ENDBRANCH   8  11
ENDBRANCH   4   7
BRANCH   1  22
ATOM     22  N   UNK A  0       -4.197  -0.082  -0.442  0.00  0.00    -0.342 N 
ATOM     23  H   UNK A  0       -4.678  -0.970  -0.482  0.00  0.00    +0.146 HD
BRANCH  22  24
ATOM     24  C   UNK A  0       -4.922   1.090  -0.926  0.00  0.00    +0.125 C 
BRANCH  24  25
ATOM     25  C   UNK A  0       -6.468   0.956  -0.872  0.00  0.00    +0.107 C 
ATOM     26  N   UNK A  0       -6.974  -0.254  -1.590  0.00  0.00    -0.320 N 
ATOM     27  C   UNK A  0       -6.620  -0.228  -3.019  0.00  0.00    +0.130 C 
ATOM     28  C   UNK A  0       -8.189  -0.827  -1.147  0.00  0.00    +0.135 A 
ATOM     29  C   UNK A  0       -8.738  -2.050  -1.769  0.00  0.00    +0.276 A 
ATOM     30  N   UNK A  0       -9.940  -2.426  -1.250  0.00  0.00    -0.294 N 
ATOM     31  H   UNK A  0      -10.348  -3.253  -1.658  0.00  0.00    +0.172 HD
ATOM     32  C   UNK A  0      -10.601  -1.810  -0.220  0.00  0.00    +0.195 A 
ATOM     33  N   UNK A  0      -10.092  -0.773   0.350  0.00  0.00    -0.199 NA
ATOM     34  O   UNK A  0       -8.222  -2.750  -2.637  0.00  0.00    -0.266 OA
ATOM     35  C   UNK A  0       -8.892  -0.295  -0.098  0.00  0.00    +0.149 A 
ATOM     36  N   UNK A  0       -8.388   0.746   0.637  0.00  0.00    -0.326 N 
ATOM     37  H   UNK A  0       -8.856   1.032   1.485  0.00  0.00    +0.148 HD
ATOM     38  C   UNK A  0       -6.953   0.988   0.609  0.00  0.00    +0.127 C 
BRANCH  32  39
ATOM     39  N   UNK A  0      -11.842  -2.338   0.192  0.00  0.00    -0.329 N 
ATOM     40  H   UNK A  0      -12.040  -3.312   0.018  0.00  0.00    +0.145 HD
ATOM     41  H   UNK A  0      -12.241  -2.012   1.060  0.00  0.00    +0.145 HD
ENDBRANCH  32  39
ENDBRANCH  24  25
ENDBRANCH  22  24
ENDBRANCH   1  22
TORSDOF 12
