REMARK  Name = DB04863
REMARK                            x       y       z     vdW  Elec       q    Type
REMARK                         _______ _______ _______ _____ _____    ______ ____
ROOT
ATOM      1  C   LIG    1        1.484   0.111  -0.218  0.00  0.00    +0.121 A 
ATOM      2  C   LIG    1        2.167   1.294   0.100  0.00  0.00    +0.046 A 
ATOM      3  C   LIG    1        3.556   1.296   0.196  0.00  0.00    +0.012 A 
ATOM      4  C   LIG    1        4.291   0.126  -0.024  0.00  0.00    -0.018 A 
ATOM      5  C   LIG    1        3.602  -1.050  -0.346  0.00  0.00    +0.012 A 
ATOM      6  C   LIG    1        2.214  -1.055  -0.441  0.00  0.00    +0.046 A 
ENDROOT
BRANCH   4   7
ATOM      7  C   LIG    1        5.778   0.129   0.084  0.00  0.00    -0.018 A 
ATOM      8  C   LIG    1        6.416   0.811   1.125  0.00  0.00    +0.009 A 
ATOM      9  C   LIG    1        7.804   0.808   1.232  0.00  0.00    +0.016 A 
ATOM     10  C   LIG    1        8.600   0.118   0.302  0.00  0.00    +0.060 A 
ATOM     11  C   LIG    1        7.951  -0.555  -0.746  0.00  0.00    +0.016 A 
ATOM     12  C   LIG    1        6.563  -0.552  -0.851  0.00  0.00    +0.009 A 
BRANCH  10  13
ATOM     13  C   LIG    1       10.074   0.113   0.408  0.00  0.00    +0.270 C 
ATOM     14  N   LIG    1       10.821  -1.007   0.384  0.00  0.00    -0.138 N 
ATOM     15  H   LIG    1       11.817  -0.871   0.289  0.00  0.00    +0.305 HD
ATOM     16  C   LIG    1       10.390  -2.368   0.604  0.00  0.00    +0.498 C 
ATOM     17  O   LIG    1        9.258  -2.716   0.949  0.00  0.00    -0.201 OA
BRANCH  13  18
ATOM     18  N   LIG    1       10.674   1.297   0.511  0.00  0.00    -0.251 N 
ATOM     19  H   LIG    1       11.679   1.351   0.590  0.00  0.00    +0.288 HD
ATOM     20  H   LIG    1       10.117   2.139   0.515  0.00  0.00    +0.288 HD
ENDBRANCH  13  18
BRANCH  16  21
ATOM     21  O   LIG    1       11.454  -3.164   0.392  0.00  0.00    -0.435 OA
ATOM     22  C   LIG    1       11.340  -4.571   0.549  0.00  0.00    +0.284 C 
ENDBRANCH  16  21
ENDBRANCH  10  13
ENDBRANCH   4   7
BRANCH   1  23
ATOM     23  O   LIG    1        0.111   0.008  -0.329  0.00  0.00    -0.490 OA
BRANCH  23  24
ATOM     24  C   LIG    1       -0.705   1.156  -0.090  0.00  0.00    +0.251 C 
BRANCH  24  27
ATOM     25  N   LIG    1       -2.538   0.214  -1.483  0.00  0.00    -0.309 N 
ATOM     26  H   LIG    1       -2.496   0.764  -2.329  0.00  0.00    +0.149 HD
ATOM     27  C   LIG    1       -2.204   0.792  -0.184  0.00  0.00    +0.111 C 
ATOM     28  C   LIG    1       -2.644  -0.300   0.785  0.00  0.00    +0.039 C 
ATOM     29  C   LIG    1       -2.637  -1.580  -0.044  0.00  0.00    +0.087 C 
ATOM     30  C   LIG    1       -2.799  -1.107  -1.496  0.00  0.00    +0.217 C 
ATOM     31  O   LIG    1       -3.078  -1.803  -2.470  0.00  0.00    -0.275 OA
BRANCH  29  32
ATOM     32  C   LIG    1       -3.728  -2.624   0.317  0.00  0.00    +0.133 C 
BRANCH  32  33
ATOM     33  C   LIG    1       -3.598  -3.251   1.712  0.00  0.00    +0.308 C 
ATOM     34  O   LIG    1       -2.632  -3.034   2.448  0.00  0.00    -0.251 OA
BRANCH  33  35
ATOM     35  O   LIG    1       -4.652  -4.039   2.005  0.00  0.00    -0.468 OA
ATOM     36  C   LIG    1       -4.722  -4.715   3.252  0.00  0.00    +0.280 C 
ENDBRANCH  33  35
ENDBRANCH  32  33
ENDBRANCH  29  32
ENDBRANCH  24  27
ENDBRANCH  23  24
ENDBRANCH   1  23
TORSDOF 10
