REMARK  Name = DB04911
REMARK                            x       y       z     vdW  Elec       q    Type
REMARK                         _______ _______ _______ _____ _____    ______ ____
ROOT
ATOM      1  C   UNK A  1       -0.358  -0.754  -0.587  0.00  0.00    +0.208 A 
ATOM      2  C   UNK A  1       -1.007   0.480  -0.380  0.00  0.00    +0.174 A 
ATOM      3  C   UNK A  1       -2.363   0.499  -0.027  0.00  0.00    +0.056 A 
ATOM      4  C   UNK A  1       -3.083  -0.678   0.200  0.00  0.00    -0.011 A 
ATOM      5  C   UNK A  1       -2.418  -1.889   0.003  0.00  0.00    +0.056 A 
ATOM      6  C   UNK A  1       -4.527  -0.599   0.701  0.00  0.00    +0.190 C 
ATOM      7  C   UNK A  1       -4.573   0.067   2.093  0.00  0.00    +0.239 C 
ATOM      8  O   UNK A  1       -3.906  -0.405   3.016  0.00  0.00    -0.273 OA
ATOM      9  N   UNK A  1       -5.290   1.202   2.192  0.00  0.00    -0.299 N 
ATOM     10  H   UNK A  1       -5.780   1.535   1.375  0.00  0.00    +0.150 HD
ATOM     11  C   UNK A  1       -5.163   2.175   3.289  0.00  0.00    +0.190 C 
ATOM     12  C   UNK A  1       -3.916   3.082   3.097  0.00  0.00    +0.239 C 
ATOM     13  O   UNK A  1       -3.474   3.261   1.962  0.00  0.00    -0.273 OA
ATOM     14  N   UNK A  2       -3.539   3.793   4.178  0.00  0.00    -0.300 N 
ATOM     15  H   UNK A  2       -3.952   3.543   5.064  0.00  0.00    +0.150 HD
ATOM     16  C   UNK A  2       -2.892   5.120   4.175  0.00  0.00    +0.192 C 
ATOM     17  C   UNK A  2       -3.780   6.159   3.438  0.00  0.00    +0.237 C 
ATOM     18  N   UNK A  3       -4.965   6.404   4.031  0.00  0.00    -0.297 N 
ATOM     19  H   UNK A  3       -5.180   5.883   4.870  0.00  0.00    +0.150 HD
ATOM     20  C   UNK A  3       -5.895   7.514   3.765  0.00  0.00    +0.213 C 
ATOM     21  C   UNK A  3       -6.631   7.448   2.423  0.00  0.00    -0.002 A 
ATOM     22  C   UNK A  3       -7.476   6.380   2.014  0.00  0.00    +0.033 A 
ATOM     23  C   UNK A  3       -8.188   6.493   0.806  0.00  0.00    +0.128 A 
ATOM     24  C   UNK A  3       -8.063   7.628   0.008  0.00  0.00    +0.091 A 
ATOM     25  C   UNK A  3       -7.223   8.664   0.397  0.00  0.00    +0.121 A 
ATOM     26  C   UNK A  1       -7.558   5.107   2.781  0.00  0.00    +0.028 A 
ATOM     27  C   UNK A  1       -6.554   4.171   2.562  0.00  0.00    +0.018 A 
ATOM     28  C   UNK A  1       -8.566   4.808   3.708  0.00  0.00    +0.125 A 
ATOM     29  C   UNK A  1       -8.512   3.614   4.434  0.00  0.00    +0.046 A 
ATOM     30  C   UNK A  1       -7.440   2.732   4.268  0.00  0.00    +0.009 A 
ATOM     31  C   UNK A  3       -6.520   8.573   1.594  0.00  0.00    +0.052 A 
ATOM     32  O   UNK A  2       -3.397   6.705   2.406  0.00  0.00    -0.274 OA
ATOM     33  C   UNK A  2       -1.337   5.166   3.906  0.00  0.00    +0.180 C 
ATOM     34  C   UNK A  2       -0.866   4.302   2.734  0.00  0.00    -0.015 A 
ATOM     35  C   UNK A  2       -0.455   2.985   2.970  0.00  0.00    +0.010 A 
ATOM     36  C   UNK A  2       -0.214   2.121   1.906  0.00  0.00    +0.048 A 
ATOM     37  C   UNK A  2       -0.381   2.559   0.586  0.00  0.00    +0.147 A 
ATOM     38  C   UNK A  2       -0.691   3.902   0.345  0.00  0.00    +0.083 A 
ATOM     39 CL   UNK A  2       -0.867   4.484  -1.273  0.00  0.00    -0.080 Cl
ATOM     40  C   UNK A  2       -0.921   4.772   1.415  0.00  0.00    +0.030 A 
ATOM     41  C   UNK A  1       -6.430   3.014   3.342  0.00  0.00    -0.018 A 
ATOM     42  N   UNK A  1       -5.208  -1.902   0.798  0.00  0.00    -0.299 N 
ATOM     43  H   UNK A  1       -5.327  -2.263   1.733  0.00  0.00    +0.150 HD
ATOM     44  C   UNK A  1       -5.732  -2.581  -0.241  0.00  0.00    +0.235 C 
ATOM     45  O   UNK A  1       -5.662  -2.203  -1.410  0.00  0.00    -0.274 OA
ATOM     46  C   UNK A  1       -6.457  -3.902   0.065  0.00  0.00    +0.168 C 
ATOM     47  N   UNK A  1       -5.772  -4.658   1.123  0.00  0.00    -0.302 N 
ATOM     48  H   UNK A  1       -5.510  -4.132   1.943  0.00  0.00    +0.150 HD
ATOM     49  C   UNK A  1       -5.504  -5.979   1.078  0.00  0.00    +0.237 C 
ATOM     50  O   UNK A  1       -5.801  -6.704   0.129  0.00  0.00    -0.274 OA
ATOM     51  C   UNK A  1       -4.789  -6.625   2.294  0.00  0.00    +0.192 C 
ATOM     52  C   UNK A  1       -3.422  -7.295   1.920  0.00  0.00    +0.174 C 
ATOM     53  C   UNK A  1       -2.444  -6.303   1.280  0.00  0.00    -0.015 A 
ATOM     54  C   UNK A  1       -1.642  -5.469   2.069  0.00  0.00    +0.030 A 
ATOM     55  C   UNK A  1       -0.885  -4.455   1.483  0.00  0.00    +0.083 A 
ATOM     56 CL   UNK A  1        0.017  -3.383   2.496  0.00  0.00    -0.080 Cl
ATOM     57  C   UNK A  1       -0.924  -4.271   0.094  0.00  0.00    +0.147 A 
ATOM     58  C   UNK A  1       -1.643  -5.163  -0.704  0.00  0.00    +0.048 A 
ATOM     59  O   UNK A  1       -0.381  -3.148  -0.486  0.00  0.00    -0.451 OA
ATOM     60  C   UNK A  1       -2.402  -6.170  -0.113  0.00  0.00    +0.010 A 
ATOM     61  O   UNK A  2       -0.315   1.672  -0.469  0.00  0.00    -0.451 OA
ATOM     62  C   UNK A  1       -1.061  -1.945  -0.361  0.00  0.00    +0.174 A 
ENDROOT
BRANCH  51  63
ATOM     63  N   UNK A  1       -4.682  -5.721   3.452  0.00  0.00    -0.300 N 
ATOM     64  H   UNK A  1       -3.778  -5.295   3.593  0.00  0.00    +0.150 HD
ATOM     65  C   UNK A  1       -5.694  -5.397   4.276  0.00  0.00    +0.231 C 
ATOM     66  O   UNK A  1       -6.830  -5.867   4.183  0.00  0.00    -0.274 OA
BRANCH  65  67
ATOM     67  C   UNK A  1       -5.361  -4.354   5.374  0.00  0.00    +0.140 C 
BRANCH  67  68
ATOM     68  N   UNK A  1       -5.939  -4.795   6.669  0.00  0.00    -0.309 NA
ATOM     69  H   UNK A  1       -5.972  -4.016   7.311  0.00  0.00    +0.122 HD
ATOM     70  C   ACE A  0       -5.212  -5.881   7.313  0.00  0.00    +0.101 C 
ENDBRANCH  67  68
BRANCH  67  71
ATOM     71  C   UNK A  1       -5.791  -2.909   4.981  0.00  0.00    +0.031 C 
BRANCH  71  72
ATOM     72  C   UNK A  1       -7.243  -2.660   4.485  0.00  0.00    -0.015 C 
ATOM     73  C   UNK A  1       -8.315  -3.029   5.531  0.00  0.00    +0.007 C 
ATOM     74  C   UNK A  1       -7.405  -1.203   4.000  0.00  0.00    +0.007 C 
ENDBRANCH  71  72
ENDBRANCH  67  71
ENDBRANCH  65  67
ENDBRANCH  51  63
BRANCH  23  75
ATOM     75  O   UNK A  3       -9.011   5.483   0.370  0.00  0.00    -0.506 OA
ATOM     76  H   UNK A  3       -9.424   5.672  -0.476  0.00  0.00    +0.292 HD
ENDBRANCH  23  75
BRANCH  25  77
ATOM     77  O   UNK A  3       -7.095   9.776  -0.392  0.00  0.00    -0.507 OA
ATOM     78  H   UNK A  3       -6.484  10.424  -0.032  0.00  0.00    +0.292 HD
ENDBRANCH  25  77
BRANCH  28  79
ATOM     79  O   UNK A  1       -9.601   5.681   3.928  0.00  0.00    -0.506 OA
ATOM     80  H   UNK A  1       -9.561   6.456   3.364  0.00  0.00    +0.292 HD
ENDBRANCH  28  79
BRANCH  20  81
ATOM     81  C   UNK A  3       -6.872   7.691   4.952  0.00  0.00    +0.330 C 
ATOM     82  O   UNK A  3       -6.969   6.920   5.886  0.00  0.00    -0.249 OA
BRANCH  81  83
ATOM     83  O   UNK A  3       -7.595   8.839   4.790  0.00  0.00    -0.479 OA
ATOM     84  H   UNK A  3       -8.217   8.983   5.507  0.00  0.00    +0.295 HD
ENDBRANCH  81  83
ENDBRANCH  20  81
BRANCH  52  85
ATOM     85  O   UNK A  1       -2.878  -7.932   3.066  0.00  0.00    -0.385 OA
ATOM     86  H   UNK A  1       -2.800  -7.284   3.770  0.00  0.00    +0.210 HD
ENDBRANCH  52  85
BRANCH  33  87
ATOM     87  O   UNK A  2       -0.845   6.505   3.739  0.00  0.00    -0.341 OA
BRANCH  87  88
ATOM     88  C   UNK A  2       -0.330   7.135   4.881  0.00  0.00    +0.253 C 
ATOM     89  C   UNK A  2        0.556   8.321   4.455  0.00  0.00    +0.085 C 
ATOM     90  C   UNK A  2       -0.213   9.601   4.032  0.00  0.00    +0.047 C 
ATOM     91  C   UNK A  2       -0.811   9.424   2.610  0.00  0.00    +0.030 C 
ATOM     92  C   UNK A  2       -1.304   9.892   5.103  0.00  0.00    +0.163 C 
ATOM     93  C   UNK A  2       -2.151   8.630   5.393  0.00  0.00    +0.148 C 
ATOM     94  C   UNK A  2       -3.204   8.828   6.497  0.00  0.00    +0.041 C 
ATOM     95  O   UNK A  2       -1.335   7.522   5.787  0.00  0.00    -0.346 OA
BRANCH  90  96
ATOM     96  N   UNK A  2        0.743  10.697   3.978  0.00  0.00    -0.323 NA
ATOM     97  H   UNK A  2        0.266  11.538   3.684  0.00  0.00    +0.119 HD
ATOM     98  H   UNK A  2        1.441  10.501   3.275  0.00  0.00    +0.119 HD
ENDBRANCH  90  96
BRANCH  92  99
ATOM     99  O   UNK A  2       -2.137  10.988   4.749  0.00  0.00    -0.387 OA
ATOM    100  H   UNK A  2       -2.622  11.266   5.530  0.00  0.00    +0.210 HD
ENDBRANCH  92  99
ENDBRANCH  87  88
ENDBRANCH  33  87
BRANCH  46 101
ATOM    101  C   UNK A  1       -7.931  -3.603   0.439  0.00  0.00    +0.127 C 
BRANCH 101 102
ATOM    102  C   UNK A  1       -8.767  -4.844   0.763  0.00  0.00    +0.213 C 
ATOM    103  N   UNK A  1       -9.227  -5.554  -0.269  0.00  0.00    -0.329 N 
ATOM    104  H   UNK A  1       -9.020  -5.273  -1.217  0.00  0.00    +0.145 HD
ATOM    105  H   UNK A  1       -9.779  -6.384  -0.108  0.00  0.00    +0.145 HD
ATOM    106  O   UNK A  1       -8.994  -5.154   1.930  0.00  0.00    -0.276 OA
ENDBRANCH 101 102
ENDBRANCH  46 101
BRANCH   1 107
ATOM    107  O   UNK A  1        0.970  -0.885  -0.953  0.00  0.00    -0.453 OA
BRANCH 107 108
ATOM    108  C   UNK A  1        1.532  -0.004  -1.884  0.00  0.00    +0.340 C 
ATOM    109  O   UNK A  1        0.691   0.171  -2.996  0.00  0.00    -0.331 OA
ATOM    110  C   UNK A  1        1.155   1.195  -3.880  0.00  0.00    +0.179 C 
ATOM    111  C   UNK A  1        2.480   0.713  -4.521  0.00  0.00    +0.177 C 
ATOM    112  C   UNK A  1        3.500   0.286  -3.436  0.00  0.00    +0.180 C 
ATOM    113  C   UNK A  1        2.859  -0.620  -2.348  0.00  0.00    +0.220 C 
BRANCH 111 114
ATOM    114  O   UNK A  1        3.031   1.703  -5.374  0.00  0.00    -0.386 OA
ATOM    115  H   UNK A  1        3.800   1.332  -5.814  0.00  0.00    +0.210 HD
ENDBRANCH 111 114
BRANCH 112 116
ATOM    116  O   UNK A  1        4.624  -0.331  -4.040  0.00  0.00    -0.386 OA
ATOM    117  H   UNK A  1        4.334  -1.135  -4.477  0.00  0.00    +0.210 HD
ENDBRANCH 112 116
BRANCH 110 118
ATOM    118  C   UNK A  1        0.046   1.472  -4.917  0.00  0.00    +0.190 C 
BRANCH 118 119
ATOM    119  O   UNK A  1       -1.100   2.014  -4.290  0.00  0.00    -0.392 OA
ATOM    120  H   UNK A  1       -1.769   2.174  -4.960  0.00  0.00    +0.210 HD
ENDBRANCH 118 119
ENDBRANCH 110 118
BRANCH 113 121
ATOM    121  O   UNK A  1        3.686  -0.738  -1.189  0.00  0.00    -0.339 OA
BRANCH 121 122
ATOM    122  C   UNK A  1        4.609  -1.785  -1.146  0.00  0.00    +0.253 C 
ATOM    123  O   UNK A  1        4.002  -3.048  -1.048  0.00  0.00    -0.346 OA
ATOM    124  C   UNK A  1        3.291  -3.297   0.168  0.00  0.00    +0.148 C 
ATOM    125  C   UNK A  1        2.696  -4.712   0.044  0.00  0.00    +0.041 C 
ATOM    126  C   UNK A  1        4.204  -3.128   1.413  0.00  0.00    +0.163 C 
ATOM    127  C   UNK A  1        4.933  -1.747   1.437  0.00  0.00    +0.050 C 
ATOM    128  C   UNK A  1        3.931  -0.598   1.772  0.00  0.00    +0.030 C 
ATOM    129  C   UNK A  1        5.567  -1.540   0.027  0.00  0.00    +0.085 C 
BRANCH 126 130
ATOM    130  O   UNK A  1        3.472  -3.374   2.606  0.00  0.00    -0.387 OA
ATOM    131  H   UNK A  1        3.233  -4.304   2.630  0.00  0.00    +0.210 HD
ENDBRANCH 126 130
BRANCH 127 132
ATOM    132  N   UNK A  1        6.003  -1.799   2.450  0.00  0.00    -0.304 NA
ATOM    133  H   UNK A  1        6.625  -2.559   2.213  0.00  0.00    +0.123 HD
BRANCH 132 134
ATOM    134  C   UNK A  1        6.795  -0.583   2.631  0.00  0.00    +0.117 C 
BRANCH 134 135
ATOM    135  C   UNK A  1        7.801  -0.782   3.752  0.00  0.00    -0.034 A 
ATOM    136  C   UNK A  1        9.097  -1.207   3.461  0.00  0.00    +0.005 A 
ATOM    137  C   UNK A  1       10.028  -1.349   4.486  0.00  0.00    +0.009 A 
ATOM    138  C   UNK A  1        9.685  -1.066   5.816  0.00  0.00    -0.018 A 
ATOM    139  C   UNK A  1        8.376  -0.646   6.092  0.00  0.00    +0.009 A 
ATOM    140  C   UNK A  1        7.441  -0.501   5.071  0.00  0.00    +0.005 A 
BRANCH 138 141
ATOM    141  C   UNK A  1       10.693  -1.201   6.912  0.00  0.00    -0.018 A 
ATOM    142  C   UNK A  1       10.308  -1.614   8.196  0.00  0.00    +0.010 A 
ATOM    143  C   UNK A  1       11.245  -1.734   9.219  0.00  0.00    +0.020 A 
ATOM    144  C   UNK A  1       12.582  -1.440   8.968  0.00  0.00    +0.041 A 
ATOM    145 CL   UNK A  1       13.745  -1.585  10.235  0.00  0.00    -0.084 Cl
ATOM    146  C   UNK A  1       12.986  -1.028   7.701  0.00  0.00    +0.020 A 
ATOM    147  C   UNK A  1       12.046  -0.912   6.681  0.00  0.00    +0.010 A 
ENDBRANCH 138 141
ENDBRANCH 134 135
ENDBRANCH 132 134
ENDBRANCH 127 132
ENDBRANCH 121 122
ENDBRANCH 113 121
ENDBRANCH 107 108
ENDBRANCH   1 107
TORSDOF 30
