REMARK  Name = DB04930
REMARK                            x       y       z     vdW  Elec       q    Type
REMARK                         _______ _______ _______ _____ _____    ______ ____
ROOT
ATOM      1  C   LIG    1        4.611  -0.344  -0.431  0.00  0.00    +0.267 C 
ENDROOT
BRANCH   1   2
ATOM      2  C   LIG    1        5.232  -0.256  -1.825  0.00  0.00    -0.007 A 
ATOM      3  C   LIG    1        6.146  -1.234  -2.227  0.00  0.00    +0.007 A 
ATOM      4  C   LIG    1        6.747  -1.164  -3.484  0.00  0.00    +0.004 A 
ATOM      5  C   LIG    1        6.436  -0.115  -4.349  0.00  0.00    +0.046 A 
ATOM      6  C   LIG    1        5.517   0.864  -3.967  0.00  0.00    +0.129 A 
ATOM      7  C   LIG    1        4.929   0.797  -2.697  0.00  0.00    +0.053 A 
BRANCH   6   8
ATOM      8  O   LIG    1        5.247   1.894  -4.840  0.00  0.00    -0.456 OA
BRANCH   8   9
ATOM      9  C   LIG    1        3.945   2.282  -5.070  0.00  0.00    +0.128 A 
ATOM     10  C   LIG    1        2.931   1.348  -5.319  0.00  0.00    +0.046 A 
ATOM     11  C   LIG    1        1.634   1.782  -5.576  0.00  0.00    +0.004 A 
ATOM     12  C   LIG    1        1.350   3.146  -5.582  0.00  0.00    +0.000 A 
ATOM     13  C   LIG    1        2.356   4.081  -5.345  0.00  0.00    +0.004 A 
ATOM     14  C   LIG    1        3.655   3.647  -5.096  0.00  0.00    +0.046 A 
ENDBRANCH   8   9
ENDBRANCH   6   8
ENDBRANCH   1   2
BRANCH   1  15
ATOM     15  O   LIG    1        3.310   0.243  -0.355  0.00  0.00    -0.460 OA
BRANCH  15  16
ATOM     16  C   LIG    1        2.216  -0.375  -0.860  0.00  0.00    +0.312 C 
ATOM     17  O   LIG    1        2.217  -1.469  -1.426  0.00  0.00    -0.250 OA
BRANCH  16  22
ATOM     18  C   LIG    1       -0.290   0.420  -1.567  0.00  0.00    +0.035 C 
ATOM     19  C   LIG    1       -0.379  -0.143  -0.175  0.00  0.00    -0.014 C 
ATOM     20  C   LIG    1       -0.527  -1.666   0.069  0.00  0.00    +0.012 C 
ATOM     21  C   LIG    1       -1.159   0.677   0.869  0.00  0.00    +0.012 C 
ATOM     22  C   LIG    1        0.944   0.470  -0.627  0.00  0.00    +0.111 C 
BRANCH  18  23
ATOM     23  C   LIG    1       -0.363  -0.491  -2.791  0.00  0.00    +0.010 C 
ATOM     24  C   LIG    1       -0.970  -0.196  -3.953  0.00  0.00    +0.103 C 
ATOM     25 CL   LIG    1       -0.980  -1.340  -5.298  0.00  0.00    -0.071 Cl
ATOM     26 CL   LIG    1       -1.805   1.334  -4.256  0.00  0.00    -0.071 Cl
ENDBRANCH  18  23
ENDBRANCH  16  22
ENDBRANCH  15  16
ENDBRANCH   1  15
TORSDOF 7
