REMARK  Name = DB04313
REMARK                            x       y       z     vdW  Elec       q    Type
REMARK                         _______ _______ _______ _____ _____    ______ ____
ROOT
ATOM      1  CA  LIG    1        1.550  -0.054   0.006  0.00  0.00    +0.049 C 
ENDROOT
BRANCH   1   2
ATOM      2  N   LIG    1        2.043   0.730   1.241  0.00  0.00    +0.388 N 
ATOM      3  H1  LIG    1        1.714   1.684   1.192  0.00  0.00    -0.089 HD
ATOM      4  H2  LIG    1        1.685   0.309   2.086  0.00  0.00    -0.089 HD
ATOM      5  H3  LIG    1        3.053   0.737   1.270  0.00  0.00    -0.089 HD
ENDBRANCH   1   2
BRANCH   1   7
ATOM      6  C   LIG    1       -0.598  -0.671  -1.355  0.00  0.00    +0.018 C 
ATOM      7  C   LIG    1       -0.021  -0.012  -0.075  0.00  0.00    +0.091 C 
BRANCH   7   8
ATOM      8  C   LIG    1       -0.582   1.437   0.036  0.00  0.00    +0.306 C 
ATOM      9  O   LIG    1       -0.168   2.301  -0.773  0.00  0.00    -0.251 OA
BRANCH   8  10
ATOM     10  O   LIG    1       -1.414   1.667   0.943  0.00  0.00    -0.480 OA
ATOM     11  H   LIG    1       -1.774   2.527   1.041  0.00  0.00    +0.295 HD
ENDBRANCH   8  10
ENDBRANCH   7   8
ENDBRANCH   1   7
BRANCH   1  12
ATOM     12  C   LIG    1        2.116  -1.498   0.118  0.00  0.00    +0.291 C 
ATOM     13  OXT LIG    1        2.292  -2.107  -0.961  0.00  0.00    -0.253 OA
BRANCH  12  14
ATOM     14  O   LIG    1        2.355  -1.999   1.243  0.00  0.00    -0.482 OA
ATOM     15  H   LIG    1        2.696  -2.870   1.306  0.00  0.00    +0.295 HD
ENDBRANCH  12  14
ENDBRANCH   1  12
TORSDOF 6
