REMARK  Name = DB04868
REMARK                            x       y       z     vdW  Elec       q    Type
REMARK                         _______ _______ _______ _____ _____    ______ ____
ROOT
ATOM      1  C   LIG    1        1.723  -0.085  -0.017  0.00  0.00    +0.039 A 
ATOM      2  C   LIG    1        2.435   1.104   0.190  0.00  0.00    +0.036 A 
ATOM      3  C   LIG    1        3.810   1.100   0.469  0.00  0.00    +0.037 A 
ATOM      4  C   LIG    1        4.481  -0.131   0.576  0.00  0.00    -0.029 A 
ATOM      5  C   LIG    1        5.971  -0.203   0.893  0.00  0.00    +0.045 C 
ATOM      6  C   LIG    1        3.777  -1.321   0.374  0.00  0.00    +0.006 A 
ATOM      7  C   LIG    1        2.417  -1.301   0.075  0.00  0.00    +0.013 A 
ENDROOT
BRANCH   1  10
ATOM      8  N   LIG    1       -0.457  -1.146  -0.045  0.00  0.00    -0.281 N 
ATOM      9  H   LIG    1        0.077  -1.911   0.338  0.00  0.00    +0.155 HD
ATOM     10  C   LIG    1        0.247  -0.030  -0.348  0.00  0.00    +0.248 C 
ATOM     11  O   LIG    1       -0.232   0.992  -0.841  0.00  0.00    -0.270 OA
BRANCH   8  13
ATOM     12  C   LIG    1       -2.804  -0.484  -0.585  0.00  0.00    +0.049 A 
ATOM     13  C   LIG    1       -1.832  -1.418  -0.190  0.00  0.00    +0.036 A 
ATOM     14  C   LIG    1       -2.228  -2.726   0.103  0.00  0.00    +0.035 A 
ATOM     15  C   LIG    1       -3.568  -3.117   0.002  0.00  0.00    +0.059 A 
ATOM     16  C   LIG    1       -4.524  -2.176  -0.396  0.00  0.00    +0.038 A 
ATOM     17  C   LIG    1       -4.148  -0.860  -0.689  0.00  0.00    +0.050 A 
BRANCH  17  18
ATOM     18  N   LIG    1       -5.120   0.085  -1.080  0.00  0.00    -0.306 N 
ATOM     19  C   LIG    1       -5.139   1.439  -0.841  0.00  0.00    +0.115 A 
ATOM     20  C   LIG    1       -6.294   1.941  -1.427  0.00  0.00    +0.056 A 
ATOM     21  C   LIG    1       -6.806   3.361  -1.462  0.00  0.00    +0.067 C 
ATOM     22  N   LIG    1       -6.974   0.967  -2.009  0.00  0.00    -0.241 NA
ATOM     23  C   LIG    1       -6.275  -0.122  -1.799  0.00  0.00    +0.204 A 
ENDBRANCH  17  18
BRANCH  15  24
ATOM     24  C   LIG    1       -3.979  -4.553   0.325  0.00  0.00    +0.418 C 
ATOM     25  F   LIG    1       -5.085  -4.910  -0.331  0.00  0.00    -0.166 F 
ATOM     26  F   LIG    1       -4.215  -4.650   1.633  0.00  0.00    -0.166 F 
ATOM     27  F   LIG    1       -3.014  -5.417   0.004  0.00  0.00    -0.166 F 
ENDBRANCH  15  24
ENDBRANCH   8  13
ENDBRANCH   1  10
BRANCH   3  28
ATOM     28  N   LIG    1        4.513   2.305   0.668  0.00  0.00    -0.283 N 
ATOM     29  H   LIG    1        5.241   2.256   1.366  0.00  0.00    +0.155 HD
BRANCH  28  30
ATOM     30  C   LIG    1        4.340   3.578   0.103  0.00  0.00    +0.220 A 
ATOM     31  N   LIG    1        3.472   3.739  -0.932  0.00  0.00    -0.214 NA
ATOM     32  C   LIG    1        3.326   4.986  -1.463  0.00  0.00    +0.077 A 
ATOM     33  C   LIG    1        4.065   6.067  -0.955  0.00  0.00    +0.048 A 
ATOM     34  C   LIG    1        4.944   5.808   0.099  0.00  0.00    +0.116 A 
ATOM     35  N   LIG    1        5.095   4.571   0.638  0.00  0.00    -0.223 NA
BRANCH  32  36
ATOM     36  C   LIG    1        2.328   5.127  -2.572  0.00  0.00    +0.019 A 
ATOM     37  C   LIG    1        1.322   4.168  -2.797  0.00  0.00    +0.013 A 
ATOM     38  C   LIG    1        0.405   4.329  -3.836  0.00  0.00    +0.020 A 
ATOM     39  C   LIG    1        0.511   5.458  -4.645  0.00  0.00    +0.111 A 
ATOM     40  N   LIG    1        1.467   6.402  -4.465  0.00  0.00    -0.263 NA
ATOM     41  C   LIG    1        2.348   6.226  -3.447  0.00  0.00    +0.120 A 
ENDBRANCH  32  36
ENDBRANCH  28  30
ENDBRANCH   3  28
TORSDOF 7
