REMARK  Name = DB04892
REMARK                            x       y       z     vdW  Elec       q    Type
REMARK                         _______ _______ _______ _____ _____    ______ ____
ROOT
ATOM      1  C   LIG    1        1.497   0.322  -0.180  0.00  0.00    +0.134 A 
ATOM      2  C   LIG    1        2.218   0.230  -1.374  0.00  0.00    +0.048 A 
ATOM      3  C   LIG    1        3.609   0.129  -1.351  0.00  0.00    +0.027 A 
ATOM      4  C   LIG    1        4.281   0.088  -0.128  0.00  0.00    +0.032 A 
ATOM      5  C   LIG    1        3.571   0.176   1.073  0.00  0.00    -0.017 A 
ATOM      6  C   LIG    1        4.492   0.124   2.274  0.00  0.00    -0.003 C 
ATOM      7  C   LIG    1        4.130  -1.040   3.228  0.00  0.00    +0.016 C 
ATOM      8  C   LIG    1        4.676   1.433   3.054  0.00  0.00    -0.007 C 
ATOM      9  C   LIG    1        6.136   1.457   3.473  0.00  0.00    -0.076 C 
ATOM     10  N   LIG    1        6.861   0.832   2.271  0.00  0.00    +0.391 N 
ATOM     11  H   LIG    1        7.048   1.582   1.620  0.00  0.00    -0.079 HD
ATOM     12  C   LIG    1        8.185   0.156   2.671  0.00  0.00    -0.093 C 
ATOM     13  C   LIG    1        5.852  -0.129   1.596  0.00  0.00    +0.029 C 
ATOM     14  N   LIG    1        5.644   0.078   0.168  0.00  0.00    -0.345 N 
ATOM     15  C   LIG    1        6.648  -0.639  -0.610  0.00  0.00    +0.127 C 
ATOM     16  C   LIG    1        2.178   0.289   1.043  0.00  0.00    +0.052 A 
ENDROOT
BRANCH   1  17
ATOM     17  O   LIG    1        0.123   0.409  -0.221  0.00  0.00    -0.411 OA
BRANCH  17  18
ATOM     18  C   LIG    1       -0.487   1.611  -0.033  0.00  0.00    +0.410 C 
ATOM     19  N   LIG    1       -1.862   1.417  -0.141  0.00  0.00    -0.251 N 
ATOM     20  H   LIG    1       -2.154   0.473  -0.346  0.00  0.00    +0.158 HD
ATOM     21  O   LIG    1        0.101   2.673   0.184  0.00  0.00    -0.226 OA
BRANCH  19  22
ATOM     22  C   LIG    1       -2.911   2.343  -0.015  0.00  0.00    +0.036 A 
ATOM     23  C   LIG    1       -2.745   3.677   0.393  0.00  0.00    +0.023 A 
ATOM     24  C   LIG    1       -3.852   4.517   0.488  0.00  0.00    +0.002 A 
ATOM     25  C   LIG    1       -5.120   4.030   0.179  0.00  0.00    +0.000 A 
ATOM     26  C   LIG    1       -5.294   2.708  -0.221  0.00  0.00    +0.002 A 
ATOM     27  C   LIG    1       -4.189   1.865  -0.316  0.00  0.00    +0.023 A 
ENDBRANCH  19  22
ENDBRANCH  17  18
ENDBRANCH   1  17
TORSDOF 3
