REMARK  Name = DB04090
REMARK                            x       y       z     vdW  Elec       q    Type
REMARK                         _______ _______ _______ _____ _____    ______ ____
ROOT
ATOM      1  C   LIG    1       -4.298   0.554   0.314  0.00  0.00    +0.050 C 
ATOM      2  C   LIG    1       -2.811   0.222   0.101  0.00  0.00    +0.023 C 
ATOM      3  C   LIG    1       -1.985   1.455  -0.015  0.00  0.00    +0.205 C 
ATOM      4  O   LIG    1       -2.493   2.572  -0.178  0.00  0.00    -0.286 OA
ATOM      5  C   LIG    1       -0.515   1.208   0.092  0.00  0.00    +0.087 C 
ATOM      6  C   LIG    1        0.021  -0.052   0.039  0.00  0.00    +0.051 C 
ATOM      7  C   LIG    1       -0.813  -1.282  -0.100  0.00  0.00    +0.207 C 
ATOM      8  O   LIG    1       -0.314  -2.394  -0.318  0.00  0.00    -0.285 OA
ATOM      9  C   LIG    1       -2.278  -1.040   0.067  0.00  0.00    +0.084 C 
ENDROOT
BRANCH   5  10
ATOM     10  N   LIG    1        0.145   2.450   0.220  0.00  0.00    -0.324 N 
ATOM     11  C   LIG    1        1.115   2.794   1.249  0.00  0.00    +0.124 C 
ATOM     12  C   LIG    1        1.485   2.826  -0.207  0.00  0.00    +0.124 C 
ENDBRANCH   5  10
BRANCH   9  13
ATOM     13  N   LIG    1       -2.942  -2.284   0.143  0.00  0.00    -0.324 N 
ATOM     14  C   LIG    1       -3.910  -2.679   1.155  0.00  0.00    +0.124 C 
ATOM     15  C   LIG    1       -4.288  -2.618  -0.299  0.00  0.00    +0.124 C 
ENDBRANCH   9  13
BRANCH   6  16
ATOM     16  C   LIG    1        1.520  -0.382   0.182  0.00  0.00    +0.197 C 
BRANCH  16  17
ATOM     17  O   LIG    1        2.081  -0.594  -1.099  0.00  0.00    -0.390 OA
ATOM     18  H   LIG    1        3.000  -0.849  -0.992  0.00  0.00    +0.210 HD
ENDBRANCH  16  17
ENDBRANCH   6  16
TORSDOF 4
