REMARK  Name = DB04971
REMARK                            x       y       z     vdW  Elec       q    Type
REMARK                         _______ _______ _______ _____ _____    ______ ____
ROOT
ATOM      1  O   LIG    1        1.919   0.466   0.699  0.00  0.00    -0.492 OA
ENDROOT
BRANCH   1   2
ATOM      2  C   LIG    1        3.292   0.535   0.831  0.00  0.00    +0.121 A 
ATOM      3  C   LIG    1        4.205   0.051  -0.120  0.00  0.00    +0.046 A 
ATOM      4  C   LIG    1        5.575   0.162   0.104  0.00  0.00    +0.007 A 
ATOM      5  C   LIG    1        6.047   0.753   1.277  0.00  0.00    -0.046 A 
ATOM      6  C   LIG    1        5.143   1.239   2.224  0.00  0.00    +0.007 A 
ATOM      7  C   LIG    1        3.774   1.127   2.000  0.00  0.00    +0.046 A 
BRANCH   5   8
ATOM      8  C   LIG    1        7.547   0.870   1.528  0.00  0.00    +0.059 C 
BRANCH   8   9
ATOM      9  C   LIG    1        8.072  -0.040   2.676  0.00  0.00    +0.192 C 
ATOM     10  C   LIG    1        8.105  -1.507   2.285  0.00  0.00    +0.343 C 
ATOM     11  O   LIG    1        7.197  -2.202   1.832  0.00  0.00    -0.248 OA
ATOM     12  O   LIG    1        9.329  -1.990   2.472  0.00  0.00    -0.347 OA
ATOM     13  N   LIG    1       10.124  -0.978   3.005  0.00  0.00    -0.144 N 
ATOM     14  H   LIG    1       11.062  -1.341   3.090  0.00  0.00    +0.196 HD
ATOM     15  C   LIG    1        9.541   0.228   2.969  0.00  0.00    +0.259 C 
ATOM     16  O   LIG    1       10.067   1.323   3.159  0.00  0.00    -0.272 OA
ENDBRANCH   8   9
ENDBRANCH   5   8
ENDBRANCH   1   2
BRANCH   1  17
ATOM     17  C   LIG    1        1.355  -0.069  -0.496  0.00  0.00    +0.235 C 
BRANCH  17  18
ATOM     18  C   LIG    1       -0.182   0.002  -0.435  0.00  0.00    +0.100 C 
BRANCH  18  20
ATOM     19  N   LIG    1       -0.604   2.104   0.799  0.00  0.00    -0.214 NA
ATOM     20  C   LIG    1       -0.717   1.419  -0.328  0.00  0.00    +0.086 A 
ATOM     21  C   LIG    1       -1.371   2.193  -1.278  0.00  0.00    +0.126 A 
ATOM     22  C   LIG    1       -1.798   2.000  -2.713  0.00  0.00    +0.088 C 
ATOM     23  O   LIG    1       -1.652   3.386  -0.703  0.00  0.00    -0.440 OA
ATOM     24  C   LIG    1       -1.159   3.270   0.556  0.00  0.00    +0.228 A 
BRANCH  24  25
ATOM     25  C   LIG    1       -1.293   4.428   1.492  0.00  0.00    +0.037 A 
ATOM     26  C   LIG    1       -1.911   5.612   1.071  0.00  0.00    +0.013 A 
ATOM     27  C   LIG    1       -2.033   6.689   1.945  0.00  0.00    +0.001 A 
ATOM     28  C   LIG    1       -1.538   6.585   3.242  0.00  0.00    +0.000 A 
ATOM     29  C   LIG    1       -0.921   5.413   3.673  0.00  0.00    +0.001 A 
ATOM     30  C   LIG    1       -0.799   4.337   2.799  0.00  0.00    +0.013 A 
ENDBRANCH  24  25
ENDBRANCH  18  20
ENDBRANCH  17  18
ENDBRANCH   1  17
TORSDOF 7
