REMARK  Name = DB04908
REMARK                            x       y       z     vdW  Elec       q    Type
REMARK                         _______ _______ _______ _____ _____    ______ ____
ROOT
ATOM      1  N   LIG    1       -2.746   0.516  -0.809  0.00  0.00    -0.327 N 
ATOM      2  C   LIG    1       -2.154  -0.585  -0.024  0.00  0.00    +0.120 C 
ATOM      3  C   LIG    1       -0.637  -0.778  -0.249  0.00  0.00    +0.103 C 
ATOM      4  N   LIG    1        0.089   0.462   0.033  0.00  0.00    -0.298 NA
ATOM      5  C   LIG    1       -0.398   1.472  -0.906  0.00  0.00    +0.103 C 
ATOM      6  C   LIG    1       -1.910   1.729  -0.704  0.00  0.00    +0.120 C 
ENDROOT
BRANCH   1  11
ATOM      7  C   LIG    1       -6.420  -0.042  -0.446  0.00  0.00    +0.057 A 
ATOM      8  C   LIG    1       -6.905   0.865  -1.393  0.00  0.00    +0.012 A 
ATOM      9  C   LIG    1       -6.021   1.641  -2.138  0.00  0.00    +0.002 A 
ATOM     10  C   LIG    1       -4.647   1.522  -1.939  0.00  0.00    +0.023 A 
ATOM     11  C   LIG    1       -4.126   0.630  -0.989  0.00  0.00    +0.030 A 
ATOM     12  C   LIG    1       -5.036  -0.151  -0.255  0.00  0.00    +0.035 A 
BRANCH   7  14
ATOM     13  F   LIG    1       -8.566  -1.031  -0.217  0.00  0.00    -0.166 F 
ATOM     14  C   LIG    1       -7.377  -0.905   0.375  0.00  0.00    +0.417 C 
ATOM     15  F   LIG    1       -6.878  -2.129   0.558  0.00  0.00    -0.166 F 
ATOM     16  F   LIG    1       -7.558  -0.337   1.567  0.00  0.00    -0.166 F 
ENDBRANCH   7  14
ENDBRANCH   1  11
BRANCH   4  17
ATOM     17  C   LIG    1        1.539   0.301  -0.119  0.00  0.00    +0.106 C 
BRANCH  17  18
ATOM     18  C   LIG    1        2.136  -0.617   0.969  0.00  0.00    +0.142 C 
BRANCH  18  19
ATOM     19  N   LIG    1        3.599  -0.597   0.992  0.00  0.00    -0.291 N 
ATOM     20  C   LIG    1        4.349  -1.420   0.211  0.00  0.00    +0.328 A 
ATOM     21  N   LIG    1        5.627  -1.101   0.510  0.00  0.00    -0.306 N 
ATOM     22  H   LIG    1        6.430  -1.547   0.089  0.00  0.00    +0.170 HD
ATOM     23  C   LIG    1        5.694  -0.097   1.444  0.00  0.00    +0.067 A 
ATOM     24  C   LIG    1        6.773   0.550   2.044  0.00  0.00    +0.028 A 
ATOM     25  C   LIG    1        6.505   1.557   2.979  0.00  0.00    +0.002 A 
ATOM     26  C   LIG    1        5.182   1.896   3.295  0.00  0.00    +0.002 A 
ATOM     27  C   LIG    1        4.114   1.232   2.680  0.00  0.00    +0.028 A 
ATOM     28  O   LIG    1        3.968  -2.271  -0.592  0.00  0.00    -0.247 OA
ATOM     29  C   LIG    1        4.403   0.230   1.752  0.00  0.00    +0.070 A 
ENDBRANCH  18  19
ENDBRANCH  17  18
ENDBRANCH   4  17
TORSDOF 5
