REMARK  Name = DB04876
REMARK                            x       y       z     vdW  Elec       q    Type
REMARK                         _______ _______ _______ _____ _____    ______ ____
ROOT
ATOM      1  C   LIG    1       -0.497   3.602   1.300  0.00  0.00    +0.068 C 
ATOM      2  C   LIG    1       -2.035   3.430   1.410  0.00  0.00    +0.038 C 
ATOM      3  C   LIG    1       -2.636   2.762   0.146  0.00  0.00    -0.006 C 
ATOM      4  C   LIG    1       -2.272   3.635  -1.086  0.00  0.00    +0.007 C 
ATOM      5  C   LIG    1       -0.738   3.794  -1.257  0.00  0.00    -0.006 C 
ATOM      6  C   LIG    1       -0.118   2.379  -1.406  0.00  0.00    +0.026 C 
ATOM      7  C   LIG    1       -0.421   1.471  -0.175  0.00  0.00    +0.023 C 
ATOM      8  C   LIG    1       -1.968   1.373  -0.033  0.00  0.00    +0.026 C 
ATOM      9  C   LIG    1       -0.170   4.441   0.034  0.00  0.00    +0.038 C 
ATOM     10  C   LIG    1        0.121   2.188   1.101  0.00  0.00    +0.057 C 
ENDROOT
BRANCH   1  11
ATOM     11  O   LIG    1        0.041   4.197   2.464  0.00  0.00    -0.388 OA
ATOM     12  H   LIG    1       -0.353   5.066   2.570  0.00  0.00    +0.210 HD
ENDBRANCH   1  11
BRANCH   7  13
ATOM     13  N   LIG    1        0.104   0.112  -0.360  0.00  0.00    -0.303 NA
ATOM     14  H   LIG    1       -0.319  -0.309  -1.175  0.00  0.00    +0.123 HD
BRANCH  13  15
ATOM     15  C   LIG    1        1.544  -0.107  -0.354  0.00  0.00    +0.178 C 
BRANCH  15  16
ATOM     16  C   LIG    1        2.060  -0.574   1.031  0.00  0.00    +0.230 C 
ATOM     17  N   LIG    1        3.400  -0.689   1.202  0.00  0.00    -0.285 N 
ATOM     18  C   LIG    1        3.990  -1.137   2.471  0.00  0.00    +0.109 C 
ATOM     19  C   LIG    1        5.456  -1.375   2.109  0.00  0.00    +0.022 C 
ATOM     20  C   LIG    1        5.716  -0.410   0.967  0.00  0.00    +0.039 C 
ATOM     21  C   LIG    1        4.413  -0.433   0.164  0.00  0.00    +0.179 C 
ATOM     22  O   LIG    1        1.268  -0.832   1.943  0.00  0.00    -0.274 OA
BRANCH  21  23
ATOM     23  C   LIG    1        4.422  -1.496  -0.861  0.00  0.00    +0.085 C 
ATOM     24  N   LIG    1        4.430  -2.329  -1.664  0.00  0.00    -0.195 NA
ENDBRANCH  21  23
ENDBRANCH  15  16
ENDBRANCH  13  15
ENDBRANCH   7  13
TORSDOF 5
