REMARK  Name = DB04924
REMARK                            x       y       z     vdW  Elec       q    Type
REMARK                         _______ _______ _______ _____ _____    ______ ____
ROOT
ATOM      1  C   LIG    1        2.497  -0.459  -2.032  0.00  0.00    +0.244 C 
ATOM      2  N   LIG    1        2.023   0.644  -1.419  0.00  0.00    -0.307 N 
ATOM      3  H   LIG    1        1.995   1.505  -1.943  0.00  0.00    +0.149 HD
ATOM      4  O   LIG    1        2.527  -1.565  -1.487  0.00  0.00    -0.270 OA
ENDROOT
BRANCH   1   7
ATOM      5  C   LIG    1        4.361  -1.124  -5.313  0.00  0.00    +0.162 A 
ATOM      6  C   LIG    1        3.852  -1.258  -4.010  0.00  0.00    +0.062 A 
ATOM      7  C   LIG    1        3.034  -0.274  -3.436  0.00  0.00    +0.040 A 
ATOM      8  C   LIG    1        2.725   0.860  -4.200  0.00  0.00    +0.017 A 
ATOM      9  C   LIG    1        3.220   1.004  -5.493  0.00  0.00    +0.050 A 
ATOM     10  C   LIG    1        4.040   0.017  -6.063  0.00  0.00    +0.162 A 
BRANCH   5  11
ATOM     11  O   LIG    1        5.175  -2.065  -5.920  0.00  0.00    -0.491 OA
ATOM     12  C   LIG    1        5.549  -3.238  -5.204  0.00  0.00    +0.277 C 
ENDBRANCH   5  11
BRANCH  10  13
ATOM     13  O   LIG    1        4.563   0.099  -7.342  0.00  0.00    -0.491 OA
ATOM     14  C   LIG    1        4.261   1.230  -8.151  0.00  0.00    +0.277 C 
ENDBRANCH  10  13
ENDBRANCH   1   7
BRANCH   2  15
ATOM     15  C   LIG    1        1.418   0.681  -0.087  0.00  0.00    +0.139 C 
BRANCH  15  16
ATOM     16  C   LIG    1       -0.073   0.369  -0.099  0.00  0.00    -0.030 A 
ATOM     17  C   LIG    1       -0.513  -0.955  -0.032  0.00  0.00    +0.009 A 
ATOM     18  C   LIG    1       -1.877  -1.237  -0.002  0.00  0.00    +0.046 A 
ATOM     19  C   LIG    1       -2.815  -0.193  -0.020  0.00  0.00    +0.120 A 
ATOM     20  C   LIG    1       -2.365   1.127  -0.070  0.00  0.00    +0.046 A 
ATOM     21  C   LIG    1       -1.003   1.410  -0.105  0.00  0.00    +0.009 A 
BRANCH  19  22
ATOM     22  O   LIG    1       -4.184  -0.373   0.017  0.00  0.00    -0.494 OA
BRANCH  22  23
ATOM     23  C   LIG    1       -4.718  -1.696   0.031  0.00  0.00    +0.210 C 
BRANCH  23  24
ATOM     24  C   LIG    1       -6.256  -1.650   0.120  0.00  0.00    -0.038 C 
BRANCH  24  25
ATOM     25  N   LIG    1       -6.873  -0.665  -0.903  0.00  0.00    +0.378 N 
ATOM     26  H   LIG    1       -6.437   0.233  -0.743  0.00  0.00    -0.082 HD
ATOM     27  C   LIG    1       -8.384  -0.479  -0.658  0.00  0.00    -0.096 C 
ATOM     28  C   LIG    1       -6.596  -1.051  -2.370  0.00  0.00    -0.096 C 
ENDBRANCH  24  25
ENDBRANCH  23  24
ENDBRANCH  22  23
ENDBRANCH  19  22
ENDBRANCH  15  16
ENDBRANCH   2  15
TORSDOF 9
