REMARK  Name = DB04838
REMARK                            x       y       z     vdW  Elec       q    Type
REMARK                         _______ _______ _______ _____ _____    ______ ____
ROOT
ATOM      1  C   LIG    1       -0.528   1.366   0.376  0.00  0.00    +0.341 C 
ATOM      2  O   LIG    1        0.065   2.231   1.028  0.00  0.00    -0.248 OA
ENDROOT
BRANCH   1   3
ATOM      3  O   LIG    1        0.060   0.317  -0.247  0.00  0.00    -0.459 OA
BRANCH   3   4
ATOM      4  C   LIG    1        1.470   0.107  -0.222  0.00  0.00    +0.177 C 
ATOM      5  C   LIG    1        1.932  -0.587   1.085  0.00  0.00    +0.048 C 
ATOM      6  C   LIG    1        1.438  -2.051   1.182  0.00  0.00    -0.010 C 
ATOM      7  C   LIG    1        1.905  -2.709   2.492  0.00  0.00    +0.007 C 
ATOM      8  C   LIG    1        1.975  -2.819  -0.052  0.00  0.00    +0.010 C 
ATOM      9  C   LIG    1        1.473  -2.239  -1.409  0.00  0.00    -0.031 C 
ATOM     10  C   LIG    1       -0.057  -2.414  -1.587  0.00  0.00    +0.011 C 
ATOM     11  C   LIG    1        2.249  -2.972  -2.529  0.00  0.00    +0.011 C 
ATOM     12  C   LIG    1        1.904  -0.737  -1.452  0.00  0.00    +0.051 C 
ENDBRANCH   3   4
ENDBRANCH   1   3
BRANCH   1  13
ATOM     13  C   LIG    1       -2.066   1.352   0.201  0.00  0.00    +0.253 C 
BRANCH  13  14
ATOM     14  C   LIG    1       -2.440   1.290  -1.282  0.00  0.00    -0.008 A 
ATOM     15  C   LIG    1       -2.115   2.338  -2.153  0.00  0.00    +0.007 A 
ATOM     16  C   LIG    1       -2.460   2.260  -3.500  0.00  0.00    +0.000 A 
ATOM     17  C   LIG    1       -3.135   1.138  -3.974  0.00  0.00    +0.000 A 
ATOM     18  C   LIG    1       -3.468   0.093  -3.115  0.00  0.00    +0.000 A 
ATOM     19  C   LIG    1       -3.122   0.171  -1.768  0.00  0.00    +0.007 A 
ENDBRANCH  13  14
BRANCH  13  20
ATOM     20  O   LIG    1       -2.639   2.472   0.857  0.00  0.00    -0.376 OA
ATOM     21  H   LIG    1       -2.439   2.413   1.794  0.00  0.00    +0.211 HD
ENDBRANCH  13  20
ENDBRANCH   1  13
TORSDOF 5
