REMARK  Name = DB04572
REMARK                            x       y       z     vdW  Elec       q    Type
REMARK                         _______ _______ _______ _____ _____    ______ ____
ROOT
ATOM      1  S   LIG    1       -0.963   1.950   0.000  0.00  0.00    -0.017 S 
ATOM      2  P   LIG    1       -0.086   0.175   0.000  0.00  0.00    +0.128 P 
ENDROOT
BRANCH   2   3
ATOM      3  N   LIG    1       -0.138  -0.734  -1.437  0.00  0.00    -0.251 NA
ATOM      4  C   LIG    1       -1.315  -0.731  -2.289  0.00  0.00    +0.107 C 
ATOM      5  C   LIG    1       -0.025  -0.096  -2.737  0.00  0.00    +0.107 C 
ENDBRANCH   2   3
BRANCH   2   6
ATOM      6  N   LIG    1       -0.650  -0.987   1.107  0.00  0.00    -0.251 NA
ATOM      7  C   LIG    1       -1.071  -0.611   2.446  0.00  0.00    +0.107 C 
ATOM      8  C   LIG    1       -2.063  -1.103   1.425  0.00  0.00    +0.107 C 
ENDBRANCH   2   6
BRANCH   2   9
ATOM      9  N   LIG    1        1.581   0.114   0.330  0.00  0.00    -0.251 NA
ATOM     10  C   LIG    1        2.484   1.144  -0.157  0.00  0.00    +0.107 C 
ATOM     11  C   LIG    1        2.188   0.996   1.313  0.00  0.00    +0.107 C 
ENDBRANCH   2   9
TORSDOF 3
