REMARK  Name = DB04834
REMARK                            x       y       z     vdW  Elec       q    Type
REMARK                         _______ _______ _______ _____ _____    ______ ____
ROOT
ATOM      1  C   LIG    1       -0.459  -1.170   1.269  0.00  0.00    +0.007 C 
ATOM      2  C   LIG    1        0.714  -2.125   1.671  0.00  0.00    +0.015 C 
ATOM      3  C   LIG    1       -0.871  -0.272   2.462  0.00  0.00    +0.011 C 
ATOM      4  C   LIG    1       -1.440  -1.104   3.638  0.00  0.00    +0.005 C 
ATOM      5  C   LIG    1       -2.618  -2.042   3.216  0.00  0.00    -0.001 C 
ATOM      6  C   LIG    1       -2.295  -2.861   1.910  0.00  0.00    -0.004 C 
ATOM      7  C   LIG    1       -3.552  -3.632   1.432  0.00  0.00    +0.004 C 
ATOM      8  C   LIG    1       -4.160  -4.490   2.557  0.00  0.00    +0.004 C 
ATOM      9  C   LIG    1       -4.486  -3.621   3.796  0.00  0.00    -0.001 C 
ATOM     10  C   LIG    1       -5.269  -4.392   4.891  0.00  0.00    +0.050 C 
ATOM     11  C   LIG    1       -5.681  -3.470   6.062  0.00  0.00    +0.194 C 
ATOM     12  C   LIG    1       -4.417  -2.824   6.732  0.00  0.00    +0.098 C 
ATOM     13  C   LIG    1       -3.664  -2.067   5.584  0.00  0.00    +0.029 C 
ATOM     14  C   LIG    1       -3.186  -2.951   4.378  0.00  0.00    -0.024 C 
ATOM     15  C   LIG    1       -2.117  -3.996   4.834  0.00  0.00    +0.012 C 
ATOM     16  C   LIG    1       -0.112  -0.397  -0.040  0.00  0.00    +0.170 C 
ATOM     17  C   LIG    1       -0.604  -1.300  -1.224  0.00  0.00    -0.023 C 
ATOM     18  C   LIG    1       -1.382  -2.469  -0.568  0.00  0.00    -0.007 C 
ATOM     19  C   LIG    1       -1.737  -1.914   0.815  0.00  0.00    +0.000 C 
ENDROOT
BRANCH  12  20
ATOM     20  N   LIG    1       -3.606  -3.727   7.583  0.00  0.00    -0.296 NA
ATOM     21  C   LIG    1       -4.402  -4.529   8.534  0.00  0.00    +0.085 C 
ATOM     22  C   LIG    1       -3.545  -5.493   9.382  0.00  0.00    +0.015 C 
ATOM     23  C   LIG    1       -2.397  -4.775  10.099  0.00  0.00    +0.002 C 
ATOM     24  C   LIG    1       -1.596  -3.954   9.084  0.00  0.00    +0.015 C 
ATOM     25  C   LIG    1       -2.498  -3.019   8.255  0.00  0.00    +0.085 C 
ENDBRANCH  12  20
BRANCH  17  26
ATOM     26  N   LIG    1        0.261  -1.585  -2.508  0.00  0.00    +0.387 N 
ATOM     27  C   LIG    1        0.764  -0.268  -3.188  0.00  0.00    -0.074 C 
ATOM     28  C   LIG    1       -0.395   0.570  -3.769  0.00  0.00    -0.018 C 
ATOM     29  C   LIG    1       -1.259  -0.244  -4.745  0.00  0.00    -0.004 C 
ATOM     30  C   LIG    1       -1.744  -1.568  -4.134  0.00  0.00    -0.018 C 
ATOM     31  C   LIG    1       -0.582  -2.398  -3.546  0.00  0.00    -0.074 C 
BRANCH  26  32
ATOM     32  C   LIG    1        1.490  -2.469  -2.115  0.00  0.00    -0.047 C 
BRANCH  32  33
ATOM     33  C   LIG    1        2.491  -2.808  -3.213  0.00  0.00    -0.053 C 
ATOM     34  C   LIG    1        3.733  -2.306  -3.292  0.00  0.00    +0.002 C 
ENDBRANCH  32  33
ENDBRANCH  26  32
ENDBRANCH  17  26
BRANCH  11  35
ATOM     35  O   LIG    1       -6.602  -2.481   5.583  0.00  0.00    -0.460 OA
BRANCH  35  36
ATOM     36  C   LIG    1       -7.434  -1.814   6.416  0.00  0.00    +0.304 C 
ATOM     37  C   LIG    1       -8.304  -0.807   5.676  0.00  0.00    +0.136 C 
ATOM     38  O   LIG    1       -7.518  -1.960   7.636  0.00  0.00    -0.251 OA
ENDBRANCH  35  36
ENDBRANCH  11  35
BRANCH  16  39
ATOM     39  O   LIG    1        1.264  -0.009  -0.096  0.00  0.00    -0.462 OA
BRANCH  39  40
ATOM     40  C   LIG    1        1.706   1.175   0.383  0.00  0.00    +0.307 C 
ATOM     41  O   LIG    1        1.010   2.055   0.895  0.00  0.00    -0.251 OA
BRANCH  40  42
ATOM     42  C   LIG    1        3.222   1.319   0.204  0.00  0.00    +0.117 C 
ATOM     43  C   LIG    1        3.794   2.673   0.661  0.00  0.00    +0.015 C 
ENDBRANCH  40  42
ENDBRANCH  39  40
ENDBRANCH  16  39
TORSDOF 9
