REMARK  Name = DB04456
REMARK                            x       y       z     vdW  Elec       q    Type
REMARK                         _______ _______ _______ _____ _____    ______ ____
ROOT
ATOM      1 AS   LIG    1        2.138   0.043  -0.135  0.00  0.00    +0.000 As
ENDROOT
BRANCH   1   2
ATOM      2  O   LIG    1        0.665  -0.001   0.705  0.00  0.00    +0.000 OA
ATOM      3  H   LIG    1        0.025   0.503   0.196  0.00  0.00    +0.000 HD
ENDBRANCH   1   2
BRANCH   1   4
ATOM      4  O   LIG    1        2.220   1.231  -1.344  0.00  0.00    +0.000 OA
ATOM      5  H   LIG    1        2.751   0.879  -2.063  0.00  0.00    +0.000 HD
ENDBRANCH   1   4
BRANCH   1   6
ATOM      6  O   LIG    1        2.725  -1.477  -0.607  0.00  0.00    +0.000 OA
ATOM      7  H   LIG    1        2.701  -2.050   0.164  0.00  0.00    +0.000 HD
ENDBRANCH   1   6
TORSDOF 3
