REMARK  Name = DB04826
REMARK                            x       y       z     vdW  Elec       q    Type
REMARK                         _______ _______ _______ _____ _____    ______ ____
ROOT
ATOM      1  N   LIG    1       -0.009  -0.029  -0.296  0.00  0.00    -0.322 N 
ENDROOT
BRANCH   1   2
ATOM      2  C   LIG    1        1.467  -0.110  -0.278  0.00  0.00    +0.076 C 
ATOM      3  C   LIG    1        2.004  -0.659   1.063  0.00  0.00    +0.038 C 
ATOM      4  C   LIG    1        3.547  -0.657   1.077  0.00  0.00    +0.086 C 
ATOM      5  N   LIG    1        4.111  -1.389  -0.068  0.00  0.00    -0.305 NA
ATOM      6  C   LIG    1        5.569  -1.338  -0.043  0.00  0.00    +0.104 C 
ATOM      7  C   LIG    1        3.597  -0.942  -1.371  0.00  0.00    +0.086 C 
ATOM      8  C   LIG    1        2.055  -0.967  -1.418  0.00  0.00    +0.038 C 
ENDBRANCH   1   2
BRANCH   1   9
ATOM      9  C   LIG    1       -0.760  -1.216  -0.123  0.00  0.00    +0.030 A 
ATOM     10  C   LIG    1       -0.911  -2.107  -1.192  0.00  0.00    +0.023 A 
ATOM     11  C   LIG    1       -1.657  -3.272  -1.041  0.00  0.00    +0.002 A 
ATOM     12  C   LIG    1       -2.265  -3.549   0.181  0.00  0.00    +0.000 A 
ATOM     13  C   LIG    1       -2.134  -2.668   1.251  0.00  0.00    +0.002 A 
ATOM     14  C   LIG    1       -1.388  -1.502   1.097  0.00  0.00    +0.023 A 
ENDBRANCH   1   9
BRANCH   1  15
ATOM     15  C   LIG    1       -0.680   1.228   0.085  0.00  0.00    +0.147 C 
BRANCH  15  20
ATOM     16  S   LIG    1        1.143   2.849   1.584  0.00  0.00    -0.100 S 
ATOM     17  C   LIG    1        0.836   3.125   3.263  0.00  0.00    +0.045 A 
ATOM     18  C   LIG    1       -0.326   2.500   3.675  0.00  0.00    +0.008 A 
ATOM     19  C   LIG    1       -0.954   1.804   2.639  0.00  0.00    +0.013 A 
ATOM     20  C   LIG    1       -0.289   1.860   1.413  0.00  0.00    +0.007 A 
ENDBRANCH  15  20
ENDBRANCH   1  15
TORSDOF 4
