REMARK  Name = DB04224
REMARK                            x       y       z     vdW  Elec       q    Type
REMARK                         _______ _______ _______ _____ _____    ______ ____
ROOT
ATOM      1  C   LIG    1        3.781   0.569   1.385  0.00  0.00    +0.027 C 
ENDROOT
BRANCH   1   3
ATOM      2  C   LIG    1        1.434   0.609   0.418  0.00  0.00    -0.031 C 
ATOM      3  C   LIG    1        2.268   0.506   1.468  0.00  0.00    -0.031 C 
BRANCH   2   4
ATOM      4  C   LIG    1       -0.079   0.541   0.508  0.00  0.00    +0.027 C 
BRANCH   4   5
ATOM      5  C   LIG    1       -0.771   1.849   0.086  0.00  0.00    +0.004 C 
BRANCH   5   6
ATOM      6  C   LIG    1       -2.304   1.774   0.197  0.00  0.00    +0.000 C 
BRANCH   6   7
ATOM      7  C   LIG    1       -3.003   3.085  -0.207  0.00  0.00    +0.000 C 
BRANCH   7   8
ATOM      8  C   LIG    1       -4.535   3.009  -0.078  0.00  0.00    -0.000 C 
BRANCH   8   9
ATOM      9  C   LIG    1       -5.237   4.321  -0.471  0.00  0.00    -0.000 C 
BRANCH   9  11
ATOM     10  C   LIG    1       -7.471   5.552  -0.723  0.00  0.00    +0.004 C 
ATOM     11  C   LIG    1       -6.767   4.249  -0.320  0.00  0.00    -0.003 C 
ENDBRANCH   9  11
ENDBRANCH   8   9
ENDBRANCH   7   8
ENDBRANCH   6   7
ENDBRANCH   5   6
ENDBRANCH   4   5
ENDBRANCH   2   4
ENDBRANCH   1   3
BRANCH   1  12
ATOM     12  C   LIG    1        4.462  -0.732   1.845  0.00  0.00    +0.004 C 
BRANCH  12  13
ATOM     13  C   LIG    1        5.998  -0.654   1.805  0.00  0.00    +0.000 C 
BRANCH  13  14
ATOM     14  C   LIG    1        6.673  -1.961   2.266  0.00  0.00    +0.000 C 
BRANCH  14  15
ATOM     15  C   LIG    1        8.212  -1.948   2.184  0.00  0.00    +0.001 C 
BRANCH  15  16
ATOM     16  C   LIG    1        8.893  -0.968   3.159  0.00  0.00    +0.011 C 
BRANCH  16  17
ATOM     17  C   LIG    1       10.432  -1.064   3.115  0.00  0.00    +0.120 C 
BRANCH  17  18
ATOM     18  C   LIG    1       11.112  -0.068   4.059  0.00  0.00    +0.305 C 
ATOM     19  O   LIG    1       11.700   0.937   3.667  0.00  0.00    -0.251 OA
BRANCH  18  20
ATOM     20  O   LIG    1       10.985  -0.440   5.366  0.00  0.00    -0.481 OA
ATOM     21  H   LIG    1       11.410   0.179   5.963  0.00  0.00    +0.295 HD
ENDBRANCH  18  20
ENDBRANCH  17  18
ENDBRANCH  16  17
ENDBRANCH  15  16
ENDBRANCH  14  15
ENDBRANCH  13  14
ENDBRANCH  12  13
ENDBRANCH   1  12
TORSDOF 16
