REMARK  Name = DB04867
REMARK                            x       y       z     vdW  Elec       q    Type
REMARK                         _______ _______ _______ _____ _____    ______ ____
ROOT
ATOM      1  N   LIG    1        2.046  -1.116   0.156  0.00  0.00    -0.259 N 
ATOM      2  H   LIG    1        1.413  -1.847  -0.132  0.00  0.00    +0.157 HD
ATOM      3  C   LIG    1        1.507   0.090   0.452  0.00  0.00    +0.266 C 
ATOM      4  O   LIG    1        2.151   1.070   0.831  0.00  0.00    -0.268 OA
ENDROOT
BRANCH   3   5
ATOM      5  C   LIG    1        0.069   0.138   0.246  0.00  0.00    +0.106 A 
ATOM      6  C   LIG    1       -0.815  -0.925   0.402  0.00  0.00    +0.041 A 
ATOM      7  C   LIG    1       -2.136  -0.462   0.142  0.00  0.00    +0.001 A 
ATOM      8  C   LIG    1       -3.398  -1.077   0.114  0.00  0.00    +0.010 A 
ATOM      9  C   LIG    1       -4.518  -0.307  -0.188  0.00  0.00    +0.001 A 
ATOM     10  C   LIG    1       -4.401   1.053  -0.457  0.00  0.00    +0.002 A 
ATOM     11  C   LIG    1       -3.167   1.703  -0.433  0.00  0.00    +0.026 A 
ATOM     12  C   LIG    1       -2.034   0.932  -0.127  0.00  0.00    +0.050 A 
ATOM     13  N   LIG    1       -0.690   1.283  -0.016  0.00  0.00    -0.325 N 
BRANCH  13  14
ATOM     14  C   LIG    1       -0.198   2.663  -0.219  0.00  0.00    +0.242 C 
BRANCH  14  15
ATOM     15  C   LIG    1        0.272   2.988  -1.659  0.00  0.00    +0.325 C 
ATOM     16  O   LIG    1        0.666   4.160  -1.850  0.00  0.00    -0.249 OA
BRANCH  15  17
ATOM     17  O   LIG    1        0.241   2.108  -2.551  0.00  0.00    -0.479 OA
ATOM     18  H   LIG    1        0.022   1.224  -2.330  0.00  0.00    +0.295 HD
ENDBRANCH  15  17
ENDBRANCH  14  15
ENDBRANCH  13  14
ENDBRANCH   3   5
BRANCH   1  22
ATOM     19  C   LIG    1        5.563  -1.327   0.512  0.00  0.00    +0.082 A 
ATOM     20  C   LIG    1        5.456  -2.693   0.235  0.00  0.00    +0.077 A 
ATOM     21  S   LIG    1        3.794  -3.125  -0.034  0.00  0.00    -0.060 S 
ATOM     22  C   LIG    1        3.386  -1.467   0.238  0.00  0.00    +0.165 A 
ATOM     23  N   LIG    1        4.408  -0.681   0.495  0.00  0.00    -0.225 NA
BRANCH  19  30
ATOM     24 CL   LIG    1        5.737   0.696   2.952  0.00  0.00    -0.083 Cl
ATOM     25  C   LIG    1        7.003   0.342   1.825  0.00  0.00    +0.050 A 
ATOM     26  C   LIG    1        8.227   0.994   1.992  0.00  0.00    +0.020 A 
ATOM     27  C   LIG    1        9.293   0.728   1.135  0.00  0.00    +0.001 A 
ATOM     28  C   LIG    1        9.142  -0.198   0.106  0.00  0.00    +0.001 A 
ATOM     29  C   LIG    1        7.923  -0.853  -0.068  0.00  0.00    +0.011 A 
ATOM     30  C   LIG    1        6.838  -0.590   0.780  0.00  0.00    +0.019 A 
ENDBRANCH  19  30
ENDBRANCH   1  22
TORSDOF 6
