REMARK  Name = DB04221
REMARK                            x       y       z     vdW  Elec       q    Type
REMARK                         _______ _______ _______ _____ _____    ______ ____
ROOT
ATOM      1  N   LIG    1        1.461  -0.531  -0.070  0.00  0.00    +0.376 N 
ATOM      2  C   LIG    1        2.200  -0.014  -1.333  0.00  0.00    -0.092 C 
ATOM      3  C   LIG    1        1.731  -2.056   0.014  0.00  0.00    -0.092 C 
ENDROOT
BRANCH   1   4
ATOM      4  C   LIG    1       -0.077  -0.323  -0.228  0.00  0.00    -0.076 C 
BRANCH   4   5
ATOM      5  C   LIG    1       -0.517   1.158  -0.231  0.00  0.00    -0.018 C 
BRANCH   5   6
ATOM      6  C   LIG    1       -2.039   1.310  -0.414  0.00  0.00    -0.002 C 
BRANCH   6   7
ATOM      7  C   LIG    1       -2.544   2.765  -0.345  0.00  0.00    -0.000 C 
BRANCH   7   8
ATOM      8  C   LIG    1       -2.065   3.660  -1.504  0.00  0.00    -0.000 C 
BRANCH   8   9
ATOM      9  C   LIG    1       -2.642   5.086  -1.441  0.00  0.00    -0.000 C 
BRANCH   9  10
ATOM     10  C   LIG    1       -2.177   5.971  -2.611  0.00  0.00    -0.000 C 
BRANCH  10  11
ATOM     11  C   LIG    1       -2.740   7.402  -2.547  0.00  0.00    -0.000 C 
BRANCH  11  13
ATOM     12  C   LIG    1       -2.834   9.708  -3.659  0.00  0.00    +0.004 C 
ATOM     13  C   LIG    1       -2.283   8.278  -3.727  0.00  0.00    -0.003 C 
ENDBRANCH  11  13
ENDBRANCH  10  11
ENDBRANCH   9  10
ENDBRANCH   8   9
ENDBRANCH   7   8
ENDBRANCH   6   7
ENDBRANCH   5   6
ENDBRANCH   4   5
ENDBRANCH   1   4
BRANCH   1  14
ATOM     14  C   LIG    1        2.069   0.193   1.171  0.00  0.00    -0.076 C 
BRANCH  14  15
ATOM     15  C   LIG    1        1.413  -0.203   2.516  0.00  0.00    -0.018 C 
BRANCH  15  16
ATOM     16  C   LIG    1        1.985   0.564   3.723  0.00  0.00    -0.002 C 
BRANCH  16  17
ATOM     17  C   LIG    1        1.596   2.055   3.763  0.00  0.00    -0.000 C 
BRANCH  17  18
ATOM     18  C   LIG    1        2.126   2.780   5.013  0.00  0.00    -0.000 C 
BRANCH  18  19
ATOM     19  C   LIG    1        1.691   4.257   5.078  0.00  0.00    -0.000 C 
BRANCH  19  20
ATOM     20  C   LIG    1        2.152   5.001   6.347  0.00  0.00    -0.000 C 
BRANCH  20  21
ATOM     21  C   LIG    1        3.677   5.205   6.442  0.00  0.00    -0.000 C 
BRANCH  21  22
ATOM     22  C   LIG    1        4.097   6.028   7.673  0.00  0.00    -0.003 C 
ATOM     23  C   LIG    1        5.614   6.241   7.759  0.00  0.00    +0.004 C 
ENDBRANCH  21  22
ENDBRANCH  20  21
ENDBRANCH  19  20
ENDBRANCH  18  19
ENDBRANCH  17  18
ENDBRANCH  16  17
ENDBRANCH  15  16
ENDBRANCH  14  15
ENDBRANCH   1  14
TORSDOF 18
