REMARK  Name = DB04846
REMARK                            x       y       z     vdW  Elec       q    Type
REMARK                         _______ _______ _______ _____ _____    ______ ____
ROOT
ATOM      1  C   LIG    1       -0.185  -0.301  -0.096  0.00  0.00    +0.131 A 
ATOM      2  C   LIG    1       -0.946  -1.483  -0.104  0.00  0.00    +0.048 A 
ATOM      3  C   LIG    1       -2.334  -1.447  -0.022  0.00  0.00    +0.027 A 
ATOM      4  C   LIG    1       -3.002  -0.221   0.081  0.00  0.00    +0.036 A 
ATOM      5  C   LIG    1       -2.255   0.958   0.075  0.00  0.00    +0.038 A 
ATOM      6  C   LIG    1       -0.853   0.941  -0.017  0.00  0.00    +0.060 A 
ENDROOT
BRANCH   4   7
ATOM      7  N   LIG    1       -4.401  -0.079   0.155  0.00  0.00    -0.269 N 
ATOM      8  H   LIG    1       -4.739   0.846  -0.064  0.00  0.00    +0.156 HD
ATOM      9  C   LIG    1       -5.340  -0.991   0.507  0.00  0.00    +0.306 C 
ATOM     10  O   LIG    1       -5.064  -2.131   0.887  0.00  0.00    -0.252 OA
ATOM     11  N   LIG    1       -6.629  -0.552   0.419  0.00  0.00    -0.286 N 
BRANCH  11  12
ATOM     12  C   LIG    1       -7.040   0.801  -0.005  0.00  0.00    +0.106 C 
ATOM     13  C   LIG    1       -7.085   0.970  -1.532  0.00  0.00    +0.024 C 
ENDBRANCH  11  12
BRANCH  11  14
ATOM     14  C   LIG    1       -7.756  -1.427   0.781  0.00  0.00    +0.106 C 
ATOM     15  C   LIG    1       -8.122  -1.349   2.271  0.00  0.00    +0.024 C 
ENDBRANCH  11  14
ENDBRANCH   4   7
BRANCH   6  16
ATOM     16  C   LIG    1       -0.100   2.243   0.026  0.00  0.00    +0.164 C 
ATOM     17  O   LIG    1        1.091   2.346   0.322  0.00  0.00    -0.292 OA
ATOM     18  C   LIG    1       -0.825   3.498  -0.464  0.00  0.00    +0.092 C 
ENDBRANCH   6  16
BRANCH   1  19
ATOM     19  O   LIG    1        1.197  -0.314  -0.199  0.00  0.00    -0.489 OA
BRANCH  19  20
ATOM     20  C   LIG    1        1.917  -1.533  -0.017  0.00  0.00    +0.261 C 
BRANCH  20  21
ATOM     21  C   LIG    1        3.430  -1.232   0.009  0.00  0.00    +0.166 C 
BRANCH  21  22
ATOM     22  O   LIG    1        3.717  -0.455   1.156  0.00  0.00    -0.387 OA
ATOM     23  H   LIG    1        3.168   0.332   1.134  0.00  0.00    +0.210 HD
ENDBRANCH  21  22
BRANCH  21  24
ATOM     24  C   LIG    1        4.316  -2.495   0.069  0.00  0.00    +0.116 C 
BRANCH  24  25
ATOM     25  N   LIG    1        4.189  -3.270  -1.166  0.00  0.00    -0.309 NA
ATOM     26  H   LIG    1        3.215  -3.437  -1.372  0.00  0.00    +0.123 HD
BRANCH  25  27
ATOM     27  C   LIG    1        4.942  -4.528  -1.259  0.00  0.00    +0.011 C 
ATOM     28  C   LIG    1        6.462  -4.266  -1.141  0.00  0.00    +0.027 C 
ATOM     29  C   LIG    1        4.468  -5.527  -0.176  0.00  0.00    +0.027 C 
ATOM     30  C   LIG    1        4.626  -5.099  -2.658  0.00  0.00    +0.027 C 
ENDBRANCH  25  27
ENDBRANCH  24  25
ENDBRANCH  21  24
ENDBRANCH  20  21
ENDBRANCH  19  20
ENDBRANCH   1  19
TORSDOF 11
