REMARK  Name = DB04657
REMARK                            x       y       z     vdW  Elec       q    Type
REMARK                         _______ _______ _______ _____ _____    ______ ____
ROOT
ATOM      1  C   LIG    1        1.518  -0.025  -0.263  0.00  0.00    +0.258 C 
ATOM      2  N   LIG    1        2.113   1.162   0.005  0.00  0.00    -0.281 N 
ATOM      3  H   LIG    1        1.492   1.933   0.203  0.00  0.00    +0.155 HD
ATOM      4  O   LIG    1        2.147  -1.016  -0.640  0.00  0.00    -0.269 OA
ENDROOT
BRANCH   1  11
ATOM      5  C   LIG    1       -0.073  -2.552   0.465  0.00  0.00    +0.087 C 
ATOM      6  C   LIG    1       -0.639  -1.176   0.114  0.00  0.00    +0.113 C 
ATOM      7  O   LIG    1       -1.982  -1.273   0.324  0.00  0.00    -0.494 OA
ATOM      8  C   LIG    1       -2.792  -0.297  -0.319  0.00  0.00    +0.239 C 
ATOM      9  C   LIG    1       -2.452   1.088   0.230  0.00  0.00    +0.115 C 
ATOM     10  S   LIG    1       -0.795   1.566  -0.318  0.00  0.00    -0.114 S 
ATOM     11  C   LIG    1        0.058  -0.026  -0.148  0.00  0.00    +0.107 C 
ENDBRANCH   1  11
BRANCH   2  12
ATOM     12  C   LIG    1        3.479   1.500  -0.001  0.00  0.00    +0.034 A 
ATOM     13  C   LIG    1        4.524   0.568   0.115  0.00  0.00    +0.023 A 
ATOM     14  C   LIG    1        5.847   1.004   0.111  0.00  0.00    +0.002 A 
ATOM     15  C   LIG    1        6.128   2.363   0.002  0.00  0.00    +0.000 A 
ATOM     16  C   LIG    1        5.098   3.295  -0.098  0.00  0.00    +0.002 A 
ATOM     17  C   LIG    1        3.774   2.863  -0.095  0.00  0.00    +0.023 A 
ENDBRANCH   2  12
TORSDOF 2
