REMARK  Name = DB04822
REMARK                            x       y       z     vdW  Elec       q    Type
REMARK                         _______ _______ _______ _____ _____    ______ ____
ROOT
ATOM      1  C   LIG    1        2.305  -3.135  -1.057  0.00  0.00    +0.318 C 
ATOM      2  O   LIG    1        3.125  -3.716  -0.339  0.00  0.00    -0.250 OA
ENDROOT
BRANCH   1   3
ATOM      3  O   LIG    1        1.773  -1.920  -0.784  0.00  0.00    -0.462 OA
BRANCH   3   4
ATOM      4  C   LIG    1        2.100  -1.224   0.411  0.00  0.00    +0.260 C 
BRANCH   4   5
ATOM      5  C   LIG    1        1.465   0.170   0.395  0.00  0.00    +0.201 C 
BRANCH   5   6
ATOM      6  O   LIG    1        0.052   0.029   0.343  0.00  0.00    -0.375 OA
BRANCH   6   7
ATOM      7  C   LIG    1       -0.650   1.262   0.266  0.00  0.00    +0.175 C 
BRANCH   7   8
ATOM      8  C   LIG    1       -2.142   0.989  -0.017  0.00  0.00    +0.112 C 
BRANCH   8   9
ATOM      9  N   LIG    1       -2.385   0.259  -1.271  0.00  0.00    -0.301 NA
BRANCH   9  10
ATOM     10  C   LIG    1       -1.967   1.027  -2.457  0.00  0.00    +0.081 C 
ATOM     11  C   LIG    1       -0.747   0.362  -3.110  0.00  0.00    +0.020 C 
ENDBRANCH   9  10
BRANCH   9  12
ATOM     12  C   LIG    1       -3.790  -0.158  -1.343  0.00  0.00    +0.081 C 
ATOM     13  C   LIG    1       -4.037  -1.212  -2.439  0.00  0.00    +0.020 C 
ENDBRANCH   9  12
ENDBRANCH   8   9
ENDBRANCH   7   8
ENDBRANCH   6   7
ENDBRANCH   5   6
ENDBRANCH   4   5
ENDBRANCH   3   4
ENDBRANCH   1   3
BRANCH   1  14
ATOM     14  C   LIG    1        1.750  -3.780  -2.375  0.00  0.00    +0.092 C 
BRANCH  14  15
ATOM     15  C   LIG    1        1.640  -2.744  -3.545  0.00  0.00    -0.031 A 
ATOM     16  C   LIG    1        0.723  -2.959  -4.588  0.00  0.00    +0.005 A 
ATOM     17  C   LIG    1        0.631  -2.076  -5.660  0.00  0.00    +0.000 A 
ATOM     18  C   LIG    1        1.472  -0.970  -5.718  0.00  0.00    +0.000 A 
ATOM     19  C   LIG    1        2.410  -0.748  -4.716  0.00  0.00    +0.000 A 
ATOM     20  C   LIG    1        2.500  -1.633  -3.646  0.00  0.00    +0.005 A 
ENDBRANCH  14  15
BRANCH  14  21
ATOM     21  C   LIG    1        2.676  -4.953  -2.855  0.00  0.00    +0.019 C 
ATOM     22  C   LIG    1        4.113  -4.585  -3.286  0.00  0.00    +0.005 C 
ENDBRANCH  14  21
BRANCH  14  23
ATOM     23  C   LIG    1        0.365  -4.430  -2.005  0.00  0.00    +0.019 C 
ATOM     24  C   LIG    1       -0.790  -3.482  -1.611  0.00  0.00    +0.005 C 
ENDBRANCH  14  23
ENDBRANCH   1  14
TORSDOF 13
