REMARK  Name = DB04936
REMARK                            x       y       z     vdW  Elec       q    Type
REMARK                         _______ _______ _______ _____ _____    ______ ____
ROOT
ATOM      1  C   LIG    1        0.096   0.050  -0.109  0.00  0.00    +0.181 C 
ENDROOT
BRANCH   1   2
ATOM      2  O   LIG    1       -0.257   1.388  -0.426  0.00  0.00    -0.386 OA
ATOM      3  H   LIG    1       -1.214   1.444  -0.482  0.00  0.00    +0.210 HD
ENDBRANCH   1   2
BRANCH   1   4
ATOM      4  C   LIG    1        1.648  -0.084   0.028  0.00  0.00    +0.213 C 
BRANCH   4   5
ATOM      5  C   LIG    1        2.260   0.718   1.206  0.00  0.00    +0.189 C 
ATOM      6  O   LIG    1        2.718   0.156   2.208  0.00  0.00    -0.292 OA
BRANCH   5   7
ATOM      7  C   LIG    1        2.302   2.250   1.055  0.00  0.00    +0.232 C 
BRANCH   7   8
ATOM      8  O   LIG    1        3.027   2.841   2.119  0.00  0.00    -0.387 OA
ATOM      9  H   LIG    1        2.571   2.650   2.943  0.00  0.00    +0.210 HD
ENDBRANCH   7   8
ENDBRANCH   5   7
ENDBRANCH   4   5
BRANCH   4  10
ATOM     10  O   LIG    1        1.983  -1.456   0.192  0.00  0.00    -0.382 OA
ATOM     11  H   LIG    1        2.938  -1.532   0.255  0.00  0.00    +0.210 HD
ENDBRANCH   4  10
ENDBRANCH   1   4
BRANCH   1  12
ATOM     12  C   LIG    1       -0.556  -0.909  -1.157  0.00  0.00    +0.171 C 
BRANCH  12  13
ATOM     13  O   LIG    1        0.067  -0.766  -2.423  0.00  0.00    -0.387 OA
ATOM     14  H   LIG    1        1.006  -0.933  -2.320  0.00  0.00    +0.210 HD
ENDBRANCH  12  13
BRANCH  12  15
ATOM     15  C   LIG    1       -2.082  -0.734  -1.346  0.00  0.00    +0.189 C 
BRANCH  15  16
ATOM     16  O   LIG    1       -2.786  -1.036  -0.158  0.00  0.00    -0.392 OA
ATOM     17  H   LIG    1       -3.727  -0.940  -0.326  0.00  0.00    +0.210 HD
ENDBRANCH  15  16
ENDBRANCH  12  15
ENDBRANCH   1  12
TORSDOF 10
