REMARK  Name = DB04975
REMARK                            x       y       z     vdW  Elec       q    Type
REMARK                         _______ _______ _______ _____ _____    ______ ____
ROOT
ATOM      1  C   LIG    1        1.230   0.148  -0.027  0.00  0.00    +0.039 A 
ATOM      2  C   LIG    1        2.066  -0.990   0.163  0.00  0.00    +0.056 A 
ATOM      3  C   LIG    1        1.484  -2.375   0.411  0.00  0.00    +0.200 C 
ATOM      4  C   LIG    1        2.344  -3.540  -0.020  0.00  0.00    +0.078 A 
ATOM      5  C   LIG    1        3.755  -3.384  -0.073  0.00  0.00    +0.078 A 
ATOM      6  C   LIG    1        4.370  -2.059   0.306  0.00  0.00    +0.200 C 
ATOM      7  O   LIG    1        5.564  -1.971   0.600  0.00  0.00    -0.286 OA
ATOM      8  C   LIG    1        4.552  -4.480  -0.485  0.00  0.00    +0.129 A 
ATOM      9  C   LIG    1        3.965  -5.695  -0.821  0.00  0.00    +0.050 A 
ATOM     10  C   LIG    1        2.589  -5.848  -0.767  0.00  0.00    +0.050 A 
ATOM     11  C   LIG    1        1.778  -4.787  -0.377  0.00  0.00    +0.129 A 
ATOM     12  O   LIG    1        0.324  -2.544   0.790  0.00  0.00    -0.286 OA
ATOM     13  C   LIG    1        3.486  -0.835   0.111  0.00  0.00    +0.056 A 
ATOM     14  C   LIG    1        4.041   0.452  -0.133  0.00  0.00    +0.039 A 
ATOM     15  C   LIG    1        3.189   1.545  -0.296  0.00  0.00    +0.025 A 
ATOM     16  C   LIG    1        1.817   1.396  -0.244  0.00  0.00    +0.025 A 
ENDROOT
BRANCH   1  17
ATOM     17  N   LIG    1       -0.180   0.043  -0.025  0.00  0.00    -0.345 N 
ATOM     18  H   LIG    1       -0.561  -0.829   0.317  0.00  0.00    +0.146 HD
BRANCH  17  19
ATOM     19  C   LIG    1       -1.076   1.194  -0.012  0.00  0.00    +0.088 C 
BRANCH  19  20
ATOM     20  C   LIG    1       -2.562   0.772  -0.027  0.00  0.00    -0.014 C 
BRANCH  20  22
ATOM     21  C   LIG    1       -3.406   2.786   1.204  0.00  0.00    -0.045 C 
ATOM     22  N   LIG    1       -3.503   1.984  -0.087  0.00  0.00    +0.398 N 
ATOM     23  C   LIG    1       -4.927   1.463  -0.199  0.00  0.00    -0.045 C 
BRANCH  22  24
ATOM     24  O   LIG    1       -3.220   2.772  -1.154  0.00  0.00    -0.445 OA
ATOM     25  H   LIG    1       -3.828   3.528  -1.167  0.00  0.00    +0.186 HD
ENDBRANCH  22  24
ENDBRANCH  20  22
ENDBRANCH  19  20
ENDBRANCH  17  19
ENDBRANCH   1  17
BRANCH   8  26
ATOM     26  O   LIG    1        5.920  -4.414  -0.593  0.00  0.00    -0.506 OA
ATOM     27  H   LIG    1        6.314  -5.237  -0.890  0.00  0.00    +0.292 HD
ENDBRANCH   8  26
BRANCH  11  28
ATOM     28  O   LIG    1        0.425  -5.025  -0.378  0.00  0.00    -0.506 OA
ATOM     29  H   LIG    1        0.201  -5.918  -0.648  0.00  0.00    +0.292 HD
ENDBRANCH  11  28
BRANCH  14  30
ATOM     30  N   LIG    1        5.436   0.648  -0.238  0.00  0.00    -0.345 N 
ATOM     31  H   LIG    1        6.026  -0.114   0.067  0.00  0.00    +0.146 HD
BRANCH  30  32
ATOM     32  C   LIG    1        6.074   1.950  -0.402  0.00  0.00    +0.088 C 
BRANCH  32  33
ATOM     33  C   LIG    1        7.617   1.873  -0.515  0.00  0.00    -0.014 C 
BRANCH  33  34
ATOM     34  N   LIG    1        8.101   1.577  -1.945  0.00  0.00    +0.398 N 
ATOM     35  C   LIG    1        9.621   1.612  -1.932  0.00  0.00    -0.045 C 
ATOM     36  C   LIG    1        7.680   0.180  -2.381  0.00  0.00    -0.045 C 
BRANCH  34  37
ATOM     37  O   LIG    1        7.632   2.503  -2.819  0.00  0.00    -0.445 OA
ATOM     38  H   LIG    1        6.663   2.479  -2.827  0.00  0.00    +0.186 HD
ENDBRANCH  34  37
ENDBRANCH  33  34
ENDBRANCH  32  33
ENDBRANCH  30  32
ENDBRANCH  14  30
TORSDOF 12
