REMARK  Name = DB04869
REMARK                            x       y       z     vdW  Elec       q    Type
REMARK                         _______ _______ _______ _____ _____    ______ ____
ROOT
ATOM      1  C   LIG    1       -2.291   1.287  -0.312  0.00  0.00    +0.165 C 
ENDROOT
BRANCH   1   9
ATOM      2  C   LIG    1       -4.100   2.143  -5.816  0.00  0.00    +0.081 C 
ATOM      3  C   LIG    1       -3.005   3.193  -5.454  0.00  0.00    +0.041 C 
ATOM      4  C   LIG    1       -1.643   2.559  -5.072  0.00  0.00    +0.111 C 
ATOM      5  N   LIG    1       -1.898   1.596  -3.990  0.00  0.00    -0.286 N 
ATOM      6  C   LIG    1       -2.688   0.441  -4.457  0.00  0.00    +0.111 C 
ATOM      7  C   LIG    1       -1.862   2.022  -2.696  0.00  0.00    +0.303 C 
ATOM      8  O   LIG    1       -1.377   3.107  -2.365  0.00  0.00    -0.253 OA
ATOM      9  N   LIG    1       -2.273   1.121  -1.779  0.00  0.00    -0.288 N 
ATOM     10  H   LIG    1       -2.655   0.247  -2.110  0.00  0.00    +0.151 HD
ATOM     11  C   LIG    1       -4.101   0.950  -4.813  0.00  0.00    +0.041 C 
BRANCH   2  23
ATOM     12  C   LIG    1       -5.508   3.425  -7.369  0.00  0.00    +0.307 C 
ATOM     13  O   LIG    1       -4.595   3.585  -8.180  0.00  0.00    -0.252 OA
ATOM     14  N   LIG    1       -6.715   3.982  -7.617  0.00  0.00    -0.269 N 
ATOM     15  H   LIG    1       -6.734   4.565  -8.441  0.00  0.00    +0.156 HD
ATOM     16  C   LIG    1       -7.906   3.818  -6.920  0.00  0.00    +0.039 A 
ATOM     17  C   LIG    1       -9.055   4.508  -7.311  0.00  0.00    +0.023 A 
ATOM     18  C   LIG    1      -10.249   4.308  -6.618  0.00  0.00    +0.002 A 
ATOM     19  C   LIG    1      -10.291   3.417  -5.546  0.00  0.00    +0.000 A 
ATOM     20  C   LIG    1       -9.138   2.728  -5.167  0.00  0.00    +0.007 A 
ATOM     21  C   LIG    1       -7.933   2.929  -5.847  0.00  0.00    -0.009 A 
ATOM     22  C   LIG    1       -6.640   2.212  -5.481  0.00  0.00    +0.146 C 
ATOM     23  N   LIG    1       -5.424   2.696  -6.202  0.00  0.00    -0.278 N 
ENDBRANCH   2  23
ENDBRANCH   1   9
BRANCH   1  24
ATOM     24  C   LIG    1       -0.909   1.093   0.370  0.00  0.00    +0.234 C 
ATOM     25  O   LIG    1       -0.804   1.326   1.576  0.00  0.00    -0.274 OA
ATOM     26  N   LIG    1        0.112   0.640  -0.381  0.00  0.00    -0.302 N 
ATOM     27  H   LIG    1       -0.047   0.469  -1.364  0.00  0.00    +0.150 HD
BRANCH  26  28
ATOM     28  C   LIG    1        1.496   0.446   0.069  0.00  0.00    +0.159 C 
BRANCH  28  29
ATOM     29  C   LIG    1        2.502   0.916  -1.019  0.00  0.00    +0.236 C 
ATOM     30  O   LIG    1        2.114   0.939  -2.192  0.00  0.00    -0.274 OA
ATOM     31  N   LIG    1        3.772   1.260  -0.661  0.00  0.00    -0.298 N 
ATOM     32  C   LIG    1        4.733   1.725  -1.668  0.00  0.00    +0.123 C 
ATOM     33  C   LIG    1        5.957   0.784  -1.669  0.00  0.00    +0.104 C 
ATOM     34  N   LIG    1        6.566   0.503  -0.354  0.00  0.00    -0.291 NA
ATOM     35  C   LIG    1        5.553   0.246   0.690  0.00  0.00    +0.104 C 
ATOM     36  C   LIG    1        4.315   1.173   0.700  0.00  0.00    +0.123 C 
BRANCH  34  37
ATOM     37  C   LIG    1        7.855  -0.035  -0.247  0.00  0.00    +0.050 C 
ATOM     38  C   LIG    1        8.596  -0.423  -1.384  0.00  0.00    +0.036 C 
ATOM     39  C   LIG    1        9.889  -0.937  -1.251  0.00  0.00    +0.076 C 
ATOM     40  N   LIG    1       10.431  -1.049  -0.026  0.00  0.00    -0.307 NA
ATOM     41  H   LIG    1       11.368  -1.419   0.055  0.00  0.00    +0.123 HD
ATOM     42  C   LIG    1        9.786  -0.684   1.096  0.00  0.00    +0.076 C 
ATOM     43  C   LIG    1        8.491  -0.168   1.005  0.00  0.00    +0.036 C 
ENDBRANCH  34  37
ENDBRANCH  28  29
BRANCH  28  44
ATOM     44  C   LIG    1        1.722  -1.045   0.443  0.00  0.00    +0.032 C 
BRANCH  44  45
ATOM     45  C   LIG    1        1.017  -1.486   1.741  0.00  0.00    +0.000 C 
BRANCH  45  46
ATOM     46  C   LIG    1        1.348  -2.927   2.180  0.00  0.00    -0.019 C 
BRANCH  46  47
ATOM     47  C   LIG    1        2.790  -3.161   2.674  0.00  0.00    -0.086 C 
BRANCH  47  48
ATOM     48  N   LIG    1        3.089  -2.431   3.921  0.00  0.00    +0.378 N 
ATOM     49  H   LIG    1        2.988  -1.438   3.765  0.00  0.00    -0.090 HD
ATOM     50  H   LIG    1        2.447  -2.722   4.644  0.00  0.00    -0.090 HD
ATOM     51  H   LIG    1        4.035  -2.631   4.213  0.00  0.00    -0.090 HD
ENDBRANCH  47  48
ENDBRANCH  46  47
ENDBRANCH  45  46
ENDBRANCH  44  45
ENDBRANCH  28  44
ENDBRANCH  26  28
ENDBRANCH   1  24
BRANCH   1  52
ATOM     52  C   LIG    1       -3.002   2.586   0.188  0.00  0.00    +0.067 C 
BRANCH  52  53
ATOM     53  C   LIG    1       -4.287   2.948  -0.558  0.00  0.00    -0.043 A 
ATOM     54  C   LIG    1       -5.303   2.005  -0.749  0.00  0.00    +0.022 A 
ATOM     55  C   LIG    1       -6.470   2.350  -1.432  0.00  0.00    +0.061 A 
ATOM     56 BR   LIG    1       -7.820   1.028  -1.687  0.00  0.00    -0.046 Br
ATOM     57  C   LIG    1       -6.634   3.651  -1.924  0.00  0.00    +0.145 A 
ATOM     58  C   LIG    1       -5.615   4.592  -1.749  0.00  0.00    +0.061 A 
ATOM     59 BR   LIG    1       -5.782   6.361  -2.442  0.00  0.00    -0.046 Br
ATOM     60  C   LIG    1       -4.453   4.241  -1.064  0.00  0.00    +0.022 A 
BRANCH  57  61
ATOM     61  O   LIG    1       -7.789   4.003  -2.573  0.00  0.00    -0.505 OA
ATOM     62  H   LIG    1       -8.337   3.248  -2.798  0.00  0.00    +0.292 HD
ENDBRANCH  57  61
ENDBRANCH  52  53
ENDBRANCH   1  52
TORSDOF 14
