REMARK  Name = DB04005
REMARK                            x       y       z     vdW  Elec       q    Type
REMARK                         _______ _______ _______ _____ _____    ______ ____
ROOT
ATOM      1  C   LIG    1       -0.639   0.641  -1.547  0.00  0.00    +0.206 C 
ENDROOT
BRANCH   1   2
ATOM      2  C   LIG    1       -0.475   2.161  -1.337  0.00  0.00    +0.178 C 
ATOM      3  O   LIG    1       -1.780   2.692  -1.103  0.00  0.00    -0.346 OA
ATOM      4  C   LIG    1       -1.895   3.206   0.193  0.00  0.00    +0.255 C 
ATOM      5  C   LIG    1       -0.724   2.636   0.997  0.00  0.00    +0.195 C 
ATOM      6  C   LIG    1        0.335   2.591  -0.102  0.00  0.00    +0.178 C 
BRANCH   4   7
ATOM      7  N   LIG    1       -3.246   3.013   0.712  0.00  0.00    -0.271 N 
ATOM      8  C   LIG    1       -3.689   1.736   0.974  0.00  0.00    +0.098 A 
ATOM      9  C   LIG    1       -4.932   1.454   1.411  0.00  0.00    +0.088 A 
ATOM     10  C   LIG    1       -5.874   2.538   1.621  0.00  0.00    +0.254 A 
ATOM     11  O   LIG    1       -7.023   2.386   2.029  0.00  0.00    -0.268 OA
ATOM     12  N   LIG    1       -5.350   3.761   1.310  0.00  0.00    -0.275 N 
ATOM     13  H   LIG    1       -5.982   4.538   1.432  0.00  0.00    +0.173 HD
ATOM     14  C   LIG    1       -4.100   4.095   0.850  0.00  0.00    +0.331 A 
ATOM     15  O   LIG    1       -3.841   5.275   0.606  0.00  0.00    -0.246 OA
ENDBRANCH   4   7
BRANCH   5  16
ATOM     16  O   LIG    1       -0.461   3.422   2.146  0.00  0.00    -0.385 OA
ATOM     17  H   LIG    1        0.270   3.019   2.622  0.00  0.00    +0.210 HD
ENDBRANCH   5  16
BRANCH   6  18
ATOM     18  O   LIG    1        1.002   3.827  -0.310  0.00  0.00    -0.386 OA
ATOM     19  H   LIG    1        1.736   3.672  -0.912  0.00  0.00    +0.210 HD
ENDBRANCH   6  18
ENDBRANCH   1   2
BRANCH   1  20
ATOM     20  O   LIG    1        0.623  -0.001  -1.626  0.00  0.00    -0.284 OA
BRANCH  20  21
ATOM     21  P   LIG    1        1.053  -1.125  -0.382  0.00  0.00    +0.483 P 
ATOM     22  O   LIG    1        0.399  -0.712   0.921  0.00  0.00    -0.227 OA
BRANCH  21  23
ATOM     23  O   LIG    1        0.930  -2.522  -0.948  0.00  0.00    -0.302 OA
ATOM     24  H   LIG    1       -0.007  -2.770  -0.997  0.00  0.00    +0.222 HD
ENDBRANCH  21  23
BRANCH  21  25
ATOM     25  O   LIG    1        2.707  -0.699  -0.301  0.00  0.00    -0.186 OA
BRANCH  25  26
ATOM     26  P   LIG    1        4.194  -0.815  -1.139  0.00  0.00    +0.492 P 
ATOM     27  O   LIG    1        4.180  -2.092  -1.953  0.00  0.00    -0.226 OA
BRANCH  26  28
ATOM     28  O   LIG    1        5.308  -0.472  -0.174  0.00  0.00    -0.302 OA
ATOM     29  H   LIG    1        5.455  -1.218   0.429  0.00  0.00    +0.222 HD
ENDBRANCH  26  28
BRANCH  26  30
ATOM     30  O   LIG    1        3.945   0.509  -2.197  0.00  0.00    -0.186 OA
BRANCH  30  31
ATOM     31  P   LIG    1        3.916   2.256  -2.107  0.00  0.00    +0.481 P 
ATOM     32  O   LIG    1        2.637   2.692  -2.846  0.00  0.00    -0.227 OA
BRANCH  31  33
ATOM     33  O   LIG    1        5.199   2.736  -2.811  0.00  0.00    -0.302 OA
ATOM     34  H   LIG    1        5.974   2.437  -2.309  0.00  0.00    +0.222 HD
ENDBRANCH  31  33
BRANCH  31  35
ATOM     35  O   LIG    1        3.885   2.615  -0.611  0.00  0.00    -0.302 OA
ATOM     36  H   LIG    1        3.059   2.292  -0.218  0.00  0.00    +0.222 HD
ENDBRANCH  31  35
ENDBRANCH  30  31
ENDBRANCH  26  30
ENDBRANCH  25  26
ENDBRANCH  21  25
ENDBRANCH  20  21
ENDBRANCH   1  20
TORSDOF 14
