REMARK  Name = DB04574
REMARK                            x       y       z     vdW  Elec       q    Type
REMARK                         _______ _______ _______ _____ _____    ______ ____
ROOT
ATOM      1  C   LIG    1        4.599  -6.298   5.795  0.00  0.00    +0.012 C 
ATOM      2  C   LIG    1        5.053  -6.510   7.248  0.00  0.00    +0.075 C 
ATOM      3  C   LIG    1        4.888  -5.145   7.941  0.00  0.00    +0.139 C 
ATOM      4  O   LIG    1        5.305  -4.851   9.060  0.00  0.00    -0.297 OA
ATOM      5  C   LIG    1        4.136  -4.215   6.969  0.00  0.00    +0.029 C 
ATOM      6  C   LIG    1        2.620  -4.429   7.279  0.00  0.00    +0.019 C 
ATOM      7  C   LIG    1        4.512  -2.713   7.000  0.00  0.00    +0.015 C 
ATOM      8  C   LIG    1        3.814  -1.948   5.845  0.00  0.00    +0.009 C 
ATOM      9  C   LIG    1        4.074  -2.594   4.445  0.00  0.00    +0.023 C 
ATOM     10  C   LIG    1        3.854  -4.140   4.425  0.00  0.00    +0.001 C 
ATOM     11  C   LIG    1        4.298  -4.671   3.052  0.00  0.00    +0.009 C 
ATOM     12  C   LIG    1        3.353  -4.150   1.960  0.00  0.00    +0.036 C 
ATOM     13  C   LIG    1        3.121  -2.638   2.051  0.00  0.00    -0.040 A 
ATOM     14  C   LIG    1        2.586  -1.968   0.945  0.00  0.00    +0.052 A 
ATOM     15  C   LIG    1        2.277  -0.612   0.994  0.00  0.00    +0.159 A 
ATOM     16  C   LIG    1        2.515   0.100   2.164  0.00  0.00    +0.049 A 
ATOM     17  C   LIG    1        3.061  -0.545   3.269  0.00  0.00    +0.008 A 
ATOM     18  C   LIG    1        3.388  -1.911   3.241  0.00  0.00    -0.041 A 
ATOM     19  C   LIG    1        4.611  -4.784   5.615  0.00  0.00    +0.006 C 
ENDROOT
BRANCH  15  20
ATOM     20  O   LIG    1        1.756   0.020  -0.103  0.00  0.00    -0.325 OA
BRANCH  20  21
ATOM     21  S   LIG    1        0.097  -0.004  -0.305  0.00  0.00    +0.251 S 
ATOM     22  O   LIG    1       -0.221   0.810  -1.482  0.00  0.00    -0.108 OA
ATOM     23  O   LIG    1       -0.380  -1.387  -0.183  0.00  0.00    -0.108 OA
BRANCH  21  24
ATOM     24  O   LIG    1       -0.380   0.837   1.047  0.00  0.00    -0.222 OA
ATOM     25  H   LIG    1       -0.817   0.243   1.688  0.00  0.00    +0.248 HD
ENDBRANCH  21  24
ENDBRANCH  20  21
ENDBRANCH  15  20
TORSDOF 3
