REMARK  Name = DB04842
REMARK                            x       y       z     vdW  Elec       q    Type
REMARK                         _______ _______ _______ _____ _____    ______ ____
ROOT
ATOM      1  C   LIG    1       -0.606   1.469  -1.072  0.00  0.00    +0.084 C 
ENDROOT
BRANCH   1   2
ATOM      2  N   LIG    1       -2.074   1.578  -1.055  0.00  0.00    -0.302 NA
ATOM      3  C   LIG    1       -2.626   1.709   0.305  0.00  0.00    +0.087 C 
ATOM      4  C   LIG    1       -2.211   3.035   0.995  0.00  0.00    +0.051 C 
ATOM      5  C   LIG    1       -2.559   4.336   0.194  0.00  0.00    +0.115 C 
ATOM      6  C   LIG    1       -4.090   4.608   0.219  0.00  0.00    +0.238 C 
ATOM      7  N   LIG    1       -4.205   5.938   0.180  0.00  0.00    -0.298 N 
ATOM      8  H   LIG    1       -5.080   6.439   0.214  0.00  0.00    +0.150 HD
ATOM      9  C   LIG    1       -2.919   6.595   0.216  0.00  0.00    +0.214 C 
ATOM     10  O   LIG    1       -5.000   3.792   0.357  0.00  0.00    -0.273 OA
ATOM     11  C   LIG    1       -2.083   4.086  -1.274  0.00  0.00    +0.051 C 
ATOM     12  N   LIG    1       -1.974   5.594   0.701  0.00  0.00    -0.300 N 
ATOM     13  C   LIG    1       -2.516   2.721  -1.870  0.00  0.00    +0.087 C 
BRANCH  12  14
ATOM     14  C   LIG    1       -1.388   5.699   1.973  0.00  0.00    +0.032 A 
ATOM     15  C   LIG    1       -0.068   5.270   2.148  0.00  0.00    +0.023 A 
ATOM     16  C   LIG    1        0.511   5.258   3.415  0.00  0.00    +0.002 A 
ATOM     17  C   LIG    1       -0.243   5.646   4.519  0.00  0.00    +0.000 A 
ATOM     18  C   LIG    1       -1.573   6.032   4.368  0.00  0.00    +0.002 A 
ATOM     19  C   LIG    1       -2.148   6.042   3.100  0.00  0.00    +0.023 A 
ENDBRANCH  12  14
ENDBRANCH   1   2
BRANCH   1  20
ATOM     20  C   LIG    1       -0.082   0.110  -0.562  0.00  0.00    +0.016 C 
BRANCH  20  21
ATOM     21  C   LIG    1        1.440   0.119  -0.312  0.00  0.00    +0.014 C 
BRANCH  21  22
ATOM     22  C   LIG    1        2.020  -1.250   0.138  0.00  0.00    +0.049 C 
BRANCH  22  27
ATOM     23  F   LIG    1       -0.387  -3.374   4.818  0.00  0.00    -0.205 F 
ATOM     24  C   LIG    1        0.192  -2.864   3.707  0.00  0.00    +0.123 A 
ATOM     25  C   LIG    1        0.575  -1.526   3.680  0.00  0.00    +0.038 A 
ATOM     26  C   LIG    1        1.171  -1.001   2.536  0.00  0.00    +0.007 A 
ATOM     27  C   LIG    1        1.387  -1.815   1.417  0.00  0.00    -0.040 A 
ATOM     28  C   LIG    1        0.993  -3.157   1.454  0.00  0.00    +0.007 A 
ATOM     29  C   LIG    1        0.398  -3.682   2.599  0.00  0.00    +0.038 A 
ENDBRANCH  22  27
BRANCH  22  30
ATOM     30  C   LIG    1        3.550  -1.246   0.219  0.00  0.00    -0.040 A 
ATOM     31  C   LIG    1        4.285  -2.200  -0.494  0.00  0.00    +0.007 A 
ATOM     32  C   LIG    1        5.676  -2.201  -0.433  0.00  0.00    +0.038 A 
ATOM     33  C   LIG    1        6.335  -1.248   0.340  0.00  0.00    +0.123 A 
ATOM     34  C   LIG    1        5.614  -0.290   1.048  0.00  0.00    +0.038 A 
ATOM     35  F   LIG    1        7.686  -1.251   0.401  0.00  0.00    -0.205 F 
ATOM     36  C   LIG    1        4.223  -0.288   0.987  0.00  0.00    +0.007 A 
ENDBRANCH  22  30
ENDBRANCH  21  22
ENDBRANCH  20  21
ENDBRANCH   1  20
TORSDOF 7
