REMARK  Name = DB04983
REMARK                            x       y       z     vdW  Elec       q    Type
REMARK                         _______ _______ _______ _____ _____    ______ ____
ROOT
ATOM      1  P   LIG    1        0.382  -1.366  -1.072  0.00  0.00    +0.492 P 
ATOM      2  O   LIG    1        0.513  -2.820  -1.468  0.00  0.00    -0.226 OA
ENDROOT
BRANCH   1   3
ATOM      3  O   LIG    1       -0.949  -0.722  -0.759  0.00  0.00    -0.302 OA
ATOM      4  H   LIG    1       -0.811   0.210  -0.530  0.00  0.00    +0.222 HD
ENDBRANCH   1   3
BRANCH   1   5
ATOM      5  O   LIG    1        1.175  -0.408  -2.244  0.00  0.00    -0.186 OA
BRANCH   5   6
ATOM      6  P   LIG    1        1.554   1.212  -2.638  0.00  0.00    +0.483 P 
ATOM      7  O   LIG    1        1.954   1.935  -1.373  0.00  0.00    -0.227 OA
BRANCH   6   8
ATOM      8  O   LIG    1        2.414   1.201  -3.884  0.00  0.00    -0.302 OA
ATOM      9  H   LIG    1        1.974   0.683  -4.576  0.00  0.00    +0.222 HD
ENDBRANCH   6   8
BRANCH   6  10
ATOM     10  O   LIG    1       -0.036   1.726  -3.081  0.00  0.00    -0.284 OA
BRANCH  10  11
ATOM     11  C   LIG    1       -0.158   2.930  -3.827  0.00  0.00    +0.206 C 
BRANCH  11  12
ATOM     12  C   LIG    1       -0.948   4.013  -3.063  0.00  0.00    +0.178 C 
ATOM     13  C   LIG    1       -0.412   4.386  -1.670  0.00  0.00    +0.178 C 
ATOM     14  C   LIG    1       -1.263   3.535  -0.727  0.00  0.00    +0.195 C 
ATOM     15  C   LIG    1       -2.595   3.594  -1.471  0.00  0.00    +0.255 C 
ATOM     16  O   LIG    1       -2.269   3.529  -2.829  0.00  0.00    -0.346 OA
BRANCH  15  17
ATOM     17  N   LIG    1       -3.592   2.588  -1.126  0.00  0.00    -0.271 N 
ATOM     18  C   LIG    1       -3.339   1.270  -1.423  0.00  0.00    +0.098 A 
ATOM     19  C   LIG    1       -4.201   0.268  -1.160  0.00  0.00    +0.088 A 
ATOM     20  C   LIG    1       -5.473   0.575  -0.533  0.00  0.00    +0.254 A 
ATOM     21  N   LIG    1       -5.635   1.910  -0.290  0.00  0.00    -0.275 N 
ATOM     22  H   LIG    1       -6.511   2.159   0.146  0.00  0.00    +0.173 HD
ATOM     23  O   LIG    1       -6.324  -0.265  -0.246  0.00  0.00    -0.268 OA
ATOM     24  C   LIG    1       -4.792   2.963  -0.546  0.00  0.00    +0.331 A 
ATOM     25  O   LIG    1       -5.138   4.108  -0.251  0.00  0.00    -0.246 OA
ENDBRANCH  15  17
BRANCH  14  26
ATOM     26  O   LIG    1       -1.413   3.982   0.608  0.00  0.00    -0.385 OA
ATOM     27  H   LIG    1       -0.588   3.822   1.073  0.00  0.00    +0.210 HD
ENDBRANCH  14  26
BRANCH  13  28
ATOM     28  O   LIG    1       -0.504   5.782  -1.423  0.00  0.00    -0.386 OA
ATOM     29  H   LIG    1        0.101   6.237  -2.012  0.00  0.00    +0.210 HD
ENDBRANCH  13  28
ENDBRANCH  11  12
ENDBRANCH  10  11
ENDBRANCH   6  10
ENDBRANCH   5   6
ENDBRANCH   1   5
BRANCH   1  30
ATOM     30  O   LIG    1        1.449  -1.047   0.226  0.00  0.00    -0.186 OA
BRANCH  30  31
ATOM     31  P   LIG    1        2.821  -1.643   1.053  0.00  0.00    +0.492 P 
ATOM     32  O   LIG    1        3.462  -2.720   0.205  0.00  0.00    -0.226 OA
BRANCH  31  33
ATOM     33  O   LIG    1        3.593  -0.459   1.592  0.00  0.00    -0.302 OA
ATOM     34  H   LIG    1        2.998   0.108   2.107  0.00  0.00    +0.222 HD
ENDBRANCH  31  33
BRANCH  31  35
ATOM     35  O   LIG    1        2.023  -2.387   2.375  0.00  0.00    -0.186 OA
BRANCH  35  36
ATOM     36  P   LIG    1        0.972  -3.658   2.837  0.00  0.00    +0.483 P 
ATOM     37  O   LIG    1        1.588  -4.359   4.027  0.00  0.00    -0.227 OA
BRANCH  36  38
ATOM     38  O   LIG    1        0.515  -4.390   1.594  0.00  0.00    -0.302 OA
ATOM     39  H   LIG    1        0.152  -3.753   0.959  0.00  0.00    +0.222 HD
ENDBRANCH  36  38
BRANCH  36  40
ATOM     40  O   LIG    1       -0.339  -2.702   3.434  0.00  0.00    -0.284 OA
BRANCH  40  41
ATOM     41  C   LIG    1       -1.156  -2.032   2.491  0.00  0.00    +0.206 C 
BRANCH  41  42
ATOM     42  C   LIG    1       -2.094  -1.074   3.248  0.00  0.00    +0.175 C 
ATOM     43  C   LIG    1       -3.142  -0.366   2.378  0.00  0.00    +0.150 C 
ATOM     44  C   LIG    1       -2.458   0.930   1.976  0.00  0.00    +0.088 C 
ATOM     45  C   LIG    1       -1.652   1.225   3.238  0.00  0.00    +0.226 C 
ATOM     46  O   LIG    1       -1.303  -0.014   3.784  0.00  0.00    -0.348 OA
BRANCH  45  47
ATOM     47  N   LIG    1       -0.464   2.064   3.083  0.00  0.00    -0.273 N 
ATOM     48  C   LIG    1       -0.294   3.231   3.820  0.00  0.00    +0.352 A 
ATOM     49  N   LIG    1        0.873   3.980   3.540  0.00  0.00    -0.178 NA
ATOM     50  C   LIG    1        1.774   3.585   2.707  0.00  0.00    +0.123 A 
ATOM     51  C   LIG    1        1.635   2.353   1.992  0.00  0.00    +0.061 A 
ATOM     52  O   LIG    1       -1.138   3.562   4.655  0.00  0.00    -0.244 OA
ATOM     53  C   LIG    1        0.518   1.647   2.215  0.00  0.00    +0.096 A 
BRANCH  50  54
ATOM     54  N   LIG    1        2.873   4.314   2.471  0.00  0.00    -0.343 N 
ATOM     55  H   LIG    1        3.017   5.192   2.948  0.00  0.00    +0.144 HD
ATOM     56  H   LIG    1        3.567   3.989   1.813  0.00  0.00    +0.144 HD
ENDBRANCH  50  54
ENDBRANCH  45  47
BRANCH  43  57
ATOM     57  O   LIG    1       -4.355  -0.129   3.071  0.00  0.00    -0.389 OA
ATOM     58  H   LIG    1       -4.159   0.411   3.840  0.00  0.00    +0.210 HD
ENDBRANCH  43  57
ENDBRANCH  41  42
ENDBRANCH  40  41
ENDBRANCH  36  40
ENDBRANCH  35  36
ENDBRANCH  31  35
ENDBRANCH  30  31
ENDBRANCH   1  30
TORSDOF 22
