REMARK  Name = DB04160
REMARK                            x       y       z     vdW  Elec       q    Type
REMARK                         _______ _______ _______ _____ _____    ______ ____
ROOT
ATOM      1  O   LIG    1        1.578   0.127   0.221  0.00  0.00    -0.186 OA
ENDROOT
BRANCH   1   2
ATOM      2  P   LIG    1       -0.031  -0.048   0.093  0.00  0.00    +0.481 P 
ATOM      3  O   LIG    1       -0.825   1.207   0.193  0.00  0.00    -0.227 OA
BRANCH   2   4
ATOM      4  O   LIG    1       -0.367  -1.172   1.215  0.00  0.00    -0.302 OA
ATOM      5  H   LIG    1       -1.010  -0.909   1.902  0.00  0.00    +0.222 HD
ENDBRANCH   2   4
BRANCH   2   6
ATOM      6  O   LIG    1       -0.198  -0.862  -1.302  0.00  0.00    -0.302 OA
ATOM      7  H   LIG    1       -0.784  -0.450  -1.966  0.00  0.00    +0.222 HD
ENDBRANCH   2   6
ENDBRANCH   1   2
BRANCH   1   8
ATOM      8  P   LIG    1        2.438   0.891   1.367  0.00  0.00    +0.481 P 
ATOM      9  O   LIG    1        2.125   0.504   2.770  0.00  0.00    -0.227 OA
BRANCH   8  10
ATOM     10  O   LIG    1        2.207   2.458   1.013  0.00  0.00    -0.302 OA
ATOM     11  H   LIG    1        1.822   3.003   1.726  0.00  0.00    +0.222 HD
ENDBRANCH   8  10
BRANCH   8  12
ATOM     12  O   LIG    1        3.972   0.632   0.903  0.00  0.00    -0.302 OA
ATOM     13  H   LIG    1        4.554   0.222   1.572  0.00  0.00    +0.222 HD
ENDBRANCH   8  12
ENDBRANCH   1   8
TORSDOF 6
