REMARK  Name = DB04891
REMARK                            x       y       z     vdW  Elec       q    Type
REMARK                         _______ _______ _______ _____ _____    ______ ____
ROOT
ATOM      1  C   LIG    1       -0.626  -0.020   2.615  0.00  0.00    +0.008 C 
ATOM      2  C   LIG    1       -0.435  -0.879   1.331  0.00  0.00    -0.022 C 
ATOM      3  C   LIG    1        0.443  -2.142   1.606  0.00  0.00    +0.012 C 
ATOM      4  C   LIG    1        0.080  -0.088   0.077  0.00  0.00    -0.002 C 
ATOM      5  C   LIG    1       -0.564  -0.827  -1.133  0.00  0.00    +0.005 C 
ATOM      6  C   LIG    1       -1.682  -1.726  -0.592  0.00  0.00    +0.009 C 
ATOM      7  C   LIG    1       -1.866  -1.245   0.849  0.00  0.00    +0.021 C 
ATOM      8  C   LIG    1       -2.608  -2.103   1.888  0.00  0.00    -0.066 C 
ATOM      9  C   LIG    1       -3.059  -3.354   1.640  0.00  0.00    -0.001 C 
ATOM     10  C   LIG    1       -2.751  -1.344   3.220  0.00  0.00    +0.031 C 
ATOM     11  C   LIG    1       -1.389  -0.794   3.712  0.00  0.00    +0.005 C 
ENDROOT
BRANCH   9  12
ATOM     12  C   LIG    1       -3.763  -4.218   2.580  0.00  0.00    -0.001 C 
ATOM     13  C   LIG    1       -4.153  -5.492   2.353  0.00  0.00    -0.064 C 
ATOM     14  C   LIG    1       -3.930  -6.296   1.065  0.00  0.00    +0.066 C 
ATOM     15  C   LIG    1       -3.123  -7.587   1.353  0.00  0.00    +0.146 C 
ATOM     16  C   LIG    1       -3.828  -8.409   2.434  0.00  0.00    -0.020 C 
ATOM     17  C   LIG    1       -4.209  -9.685   2.227  0.00  0.00    +0.013 C 
ATOM     18  C   LIG    1       -4.073  -7.612   3.728  0.00  0.00    +0.146 C 
ATOM     19  C   LIG    1       -4.871  -6.323   3.415  0.00  0.00    +0.066 C 
BRANCH  15  20
ATOM     20  O   LIG    1       -1.792  -7.293   1.734  0.00  0.00    -0.387 OA
ATOM     21  H   LIG    1       -1.287  -8.109   1.731  0.00  0.00    +0.210 HD
ENDBRANCH  15  20
BRANCH  18  22
ATOM     22  O   LIG    1       -4.729  -8.370   4.728  0.00  0.00    -0.387 OA
ATOM     23  H   LIG    1       -5.614  -8.576   4.420  0.00  0.00    +0.210 HD
ENDBRANCH  18  22
ENDBRANCH   9  12
BRANCH   4  24
ATOM     24  C   LIG    1        1.622   0.145  -0.097  0.00  0.00    -0.011 C 
ATOM     25  C   LIG    1        1.914   0.927  -1.403  0.00  0.00    +0.008 C 
BRANCH  24  26
ATOM     26  C   LIG    1        2.289   0.839   1.122  0.00  0.00    +0.000 C 
ATOM     27  C   LIG    1        3.792   1.135   0.982  0.00  0.00    +0.004 C 
ENDBRANCH  24  26
ENDBRANCH   4  24
TORSDOF 5
