REMARK  Name = DB04865
REMARK                            x       y       z     vdW  Elec       q    Type
REMARK                         _______ _______ _______ _____ _____    ______ ____
ROOT
ATOM      1  C   LIG    1        2.775   0.723   3.281  0.00  0.00    +0.250 C 
ATOM      2  C   LIG    1        1.966   0.256   4.514  0.00  0.00    +0.092 C 
ATOM      3  C   LIG    1        2.929  -0.454   5.519  0.00  0.00    +0.054 C 
ATOM      4  N   LIG    1        2.620  -1.843   5.915  0.00  0.00    -0.292 NA
ATOM      5  C   LIG    1        2.597  -2.866   4.874  0.00  0.00    +0.090 C 
ATOM      6  C   LIG    1        1.757  -2.615   3.610  0.00  0.00    +0.051 C 
ATOM      7  C   LIG    1        0.505  -1.757   3.777  0.00  0.00    -0.039 A 
ATOM      8  C   LIG    1       -0.755  -2.321   3.505  0.00  0.00    +0.053 A 
ATOM      9  C   LIG    1       -1.887  -1.546   3.702  0.00  0.00    +0.167 A 
ATOM     10  O   LIG    1       -3.191  -1.867   3.492  0.00  0.00    -0.453 OA
ATOM     11  C   LIG    1       -3.923  -0.816   4.061  0.00  0.00    +0.466 C 
ATOM     12  O   LIG    1       -3.053   0.273   4.209  0.00  0.00    -0.453 OA
ATOM     13  C   LIG    1       -1.804  -0.259   4.136  0.00  0.00    +0.167 A 
ATOM     14  C   LIG    1       -0.582   0.342   4.402  0.00  0.00    +0.054 A 
ATOM     15  C   LIG    1        2.830  -2.054   7.343  0.00  0.00    +0.085 C 
ATOM     16  C   LIG    1        3.492  -0.787   7.863  0.00  0.00    +0.017 C 
ATOM     17  C   LIG    1        4.265  -0.388   4.786  0.00  0.00    +0.041 C 
ATOM     18  C   LIG    1        2.990   0.261   6.889  0.00  0.00    +0.028 C 
ATOM     19  C   LIG    1        0.598  -0.410   4.235  0.00  0.00    -0.031 A 
ATOM     20  C   LIG    1        4.169   0.233   3.595  0.00  0.00    +0.136 C 
ENDROOT
BRANCH  20  21
ATOM     21  O   LIG    1        5.127   0.483   2.664  0.00  0.00    -0.496 OA
ATOM     22  C   LIG    1        6.443   0.015   2.939  0.00  0.00    +0.276 C 
ENDBRANCH  20  21
BRANCH   1  23
ATOM     23  O   LIG    1        2.270   0.171   2.065  0.00  0.00    -0.451 OA
BRANCH  23  24
ATOM     24  C   LIG    1        2.417   0.787   0.866  0.00  0.00    +0.340 C 
ATOM     25  O   LIG    1        3.005   1.859   0.690  0.00  0.00    -0.248 OA
BRANCH  24  26
ATOM     26  C   LIG    1        1.720   0.023  -0.293  0.00  0.00    +0.172 C 
BRANCH  26  27
ATOM     27  O   LIG    1        2.317  -1.267  -0.328  0.00  0.00    -0.377 OA
ATOM     28  H   LIG    1        3.236  -1.171  -0.587  0.00  0.00    +0.211 HD
ENDBRANCH  26  27
BRANCH  26  29
ATOM     29  C   LIG    1        0.202  -0.194   0.016  0.00  0.00    +0.047 C 
BRANCH  29  30
ATOM     30  C   LIG    1       -0.635   1.095   0.180  0.00  0.00    +0.006 C 
BRANCH  30  31
ATOM     31  C   LIG    1       -2.143   0.816   0.368  0.00  0.00    +0.034 C 
BRANCH  31  33
ATOM     32  C   LIG    1       -2.908   3.142  -0.441  0.00  0.00    +0.041 C 
ATOM     33  C   LIG    1       -3.039   2.053   0.646  0.00  0.00    +0.061 C 
ATOM     34  C   LIG    1       -4.512   1.641   0.833  0.00  0.00    +0.041 C 
BRANCH  33  35
ATOM     35  O   LIG    1       -2.609   2.655   1.854  0.00  0.00    -0.389 OA
ATOM     36  H   LIG    1       -1.687   2.905   1.757  0.00  0.00    +0.210 HD
ENDBRANCH  33  35
ENDBRANCH  31  33
ENDBRANCH  30  31
ENDBRANCH  29  30
ENDBRANCH  26  29
BRANCH  26  37
ATOM     37  C   LIG    1        1.980   0.729  -1.667  0.00  0.00    +0.166 C 
BRANCH  37  38
ATOM     38  C   LIG    1        1.390   0.096  -2.940  0.00  0.00    +0.310 C 
ATOM     39  O   LIG    1        1.044  -1.086  -2.998  0.00  0.00    -0.251 OA
BRANCH  38  40
ATOM     40  O   LIG    1        1.302   0.991  -3.945  0.00  0.00    -0.468 OA
ATOM     41  C   LIG    1        0.775   0.612  -5.207  0.00  0.00    +0.280 C 
ENDBRANCH  38  40
ENDBRANCH  37  38
ENDBRANCH  26  37
ENDBRANCH  24  26
ENDBRANCH  23  24
ENDBRANCH   1  23
TORSDOF 13
