REMARK  Name = DB04843
REMARK                            x       y       z     vdW  Elec       q    Type
REMARK                         _______ _______ _______ _____ _____    ______ ____
ROOT
ATOM      1  C   LIG    1        1.547   0.039   0.104  0.00  0.00    +0.213 C 
ENDROOT
BRANCH   1   2
ATOM      2  C   LIG    1        2.121   1.483   0.047  0.00  0.00    -0.001 A 
ATOM      3  C   LIG    1        2.329   2.122  -1.187  0.00  0.00    +0.007 A 
ATOM      4  C   LIG    1        2.827   3.421  -1.243  0.00  0.00    +0.000 A 
ATOM      5  C   LIG    1        3.116   4.101  -0.064  0.00  0.00    +0.000 A 
ATOM      6  C   LIG    1        2.903   3.494   1.170  0.00  0.00    +0.000 A 
ATOM      7  C   LIG    1        2.404   2.196   1.225  0.00  0.00    +0.007 A 
ENDBRANCH   1   2
BRANCH   1   8
ATOM      8  C   LIG    1        2.102  -0.745   1.333  0.00  0.00    -0.001 A 
ATOM      9  C   LIG    1        3.395  -1.287   1.251  0.00  0.00    +0.007 A 
ATOM     10  C   LIG    1        3.955  -1.975   2.323  0.00  0.00    +0.000 A 
ATOM     11  C   LIG    1        3.231  -2.122   3.502  0.00  0.00    +0.000 A 
ATOM     12  C   LIG    1        1.954  -1.582   3.616  0.00  0.00    +0.000 A 
ATOM     13  C   LIG    1        1.396  -0.892   2.543  0.00  0.00    +0.007 A 
ENDBRANCH   1   8
BRANCH   1  14
ATOM     14  C   LIG    1       -0.016   0.142   0.163  0.00  0.00    +0.349 C 
ATOM     15  O   LIG    1       -0.594   1.135   0.617  0.00  0.00    -0.247 OA
BRANCH  14  16
ATOM     16  O   LIG    1       -0.652  -0.999  -0.236  0.00  0.00    -0.461 OA
BRANCH  16  17
ATOM     17  C   LIG    1       -2.072  -1.123  -0.207  0.00  0.00    +0.161 C 
ATOM     18  C   LIG    1       -2.515  -2.029  -1.369  0.00  0.00    +0.041 C 
ATOM     19  C   LIG    1       -4.039  -2.222  -1.364  0.00  0.00    -0.015 C 
ATOM     20  C   LIG    1       -4.546  -2.788  -0.020  0.00  0.00    -0.076 C 
ATOM     21  N   LIG    1       -4.079  -1.915   1.182  0.00  0.00    +0.379 N 
ATOM     22  C   LIG    1       -4.419  -2.682   2.483  0.00  0.00    -0.092 C 
ATOM     23  C   LIG    1       -4.841  -0.565   1.191  0.00  0.00    -0.092 C 
ATOM     24  C   LIG    1       -2.544  -1.659   1.167  0.00  0.00    -0.031 C 
ENDBRANCH  16  17
ENDBRANCH  14  16
ENDBRANCH   1  14
BRANCH   1  25
ATOM     25  O   LIG    1        1.851  -0.681  -1.091  0.00  0.00    -0.370 OA
ATOM     26  H   LIG    1        1.260  -1.436  -1.150  0.00  0.00    +0.212 HD
ENDBRANCH   1  25
TORSDOF 6
