REMARK  Name = DB04954
REMARK                            x       y       z     vdW  Elec       q    Type
REMARK                         _______ _______ _______ _____ _____    ______ ____
ROOT
ATOM      1  N   LIG    1       -0.057  -0.143   0.416  0.00  0.00    -0.286 N 
ATOM      2  C   LIG    1       -0.947  -1.147   0.755  0.00  0.00    +0.203 A 
ATOM      3  N   LIG    1       -2.212  -0.811   0.712  0.00  0.00    -0.231 NA
ATOM      4  C   LIG    1       -2.191   0.485   0.272  0.00  0.00    +0.147 A 
ATOM      5  C   LIG    1       -3.216   1.412  -0.000  0.00  0.00    +0.150 A 
ATOM      6  N   LIG    1       -2.898   2.658  -0.453  0.00  0.00    -0.219 NA
ATOM      7  C   LIG    1       -1.581   2.948  -0.622  0.00  0.00    +0.225 A 
ATOM      8  N   LIG    1       -0.512   2.140  -0.389  0.00  0.00    -0.216 NA
ATOM      9  C   LIG    1       -0.861   0.925   0.058  0.00  0.00    +0.167 A 
ENDROOT
BRANCH   1  14
ATOM     10  O4* LIG    1        1.730  -0.778  -0.921  0.00  0.00    -0.346 OA
ATOM     11  C4* LIG    1        3.011  -1.410  -0.856  0.00  0.00    +0.177 C 
ATOM     12  C3* LIG    1        3.436  -1.250   0.617  0.00  0.00    +0.178 C 
ATOM     13  C2* LIG    1        2.109  -1.057   1.350  0.00  0.00    +0.195 C 
ATOM     14  C1* LIG    1        1.387  -0.211   0.305  0.00  0.00    +0.253 C 
BRANCH  13  15
ATOM     15  O2* LIG    1        2.157  -0.390   2.600  0.00  0.00    -0.385 OA
ATOM     16  H2* LIG    1        1.286  -0.427   3.001  0.00  0.00    +0.210 HD
ENDBRANCH  13  15
BRANCH  12  17
ATOM     17  O3* LIG    1        4.351  -0.179   0.792  0.00  0.00    -0.386 OA
ATOM     18  H3* LIG    1        4.410   0.018   1.730  0.00  0.00    +0.210 HD
ENDBRANCH  12  17
BRANCH  11  19
ATOM     19  C5* LIG    1        2.859  -2.877  -1.308  0.00  0.00    +0.190 C 
BRANCH  19  20
ATOM     20  O5* LIG    1        2.528  -2.953  -2.680  0.00  0.00    -0.392 OA
ATOM     21  H5* LIG    1        2.474  -3.877  -2.932  0.00  0.00    +0.210 HD
ENDBRANCH  19  20
ENDBRANCH  11  19
ENDBRANCH   1  14
BRANCH   5  22
ATOM     22  N   LIG    1       -4.561   1.047   0.189  0.00  0.00    -0.322 N 
ATOM     23  H   LIG    1       -4.773   0.125   0.541  0.00  0.00    +0.148 HD
BRANCH  22  24
ATOM     24  C   LIG    1       -5.666   1.984  -0.017  0.00  0.00    +0.100 C 
ATOM     25  C   LIG    1       -7.017   1.268   0.017  0.00  0.00    +0.182 C 
ATOM     26  O   LIG    1       -7.376   1.270   1.393  0.00  0.00    -0.378 OA
ATOM     27  C   LIG    1       -6.972   2.510   1.965  0.00  0.00    +0.162 C 
ATOM     28  C   LIG    1       -5.799   3.003   1.111  0.00  0.00    +0.052 C 
ENDBRANCH  22  24
ENDBRANCH   5  22
TORSDOF 7
