REMARK  Name = DB04870
REMARK                            x       y       z     vdW  Elec       q    Type
REMARK                         _______ _______ _______ _____ _____    ______ ____
ROOT
ATOM      1  O   LIG    1       -6.835   4.152   0.927  0.00  0.00    -0.426 OA
ENDROOT
BRANCH   1  12
ATOM      2  O   LIG    1      -17.684   4.636   0.090  0.00  0.00    -0.297 OA
ATOM      3  C   LIG    1      -16.676   4.236  -0.489  0.00  0.00    +0.139 C 
ATOM      4  C   LIG    1      -16.648   3.292  -1.705  0.00  0.00    +0.075 C 
ATOM      5  C   LIG    1      -15.176   2.878  -1.878  0.00  0.00    +0.012 C 
ATOM      6  C   LIG    1      -14.534   3.244  -0.546  0.00  0.00    +0.006 C 
ATOM      7  C   LIG    1      -12.994   3.312  -0.409  0.00  0.00    +0.001 C 
ATOM      8  C   LIG    1      -12.229   2.092  -0.993  0.00  0.00    +0.009 C 
ATOM      9  C   LIG    1      -10.987   1.670  -0.172  0.00  0.00    +0.036 C 
ATOM     10  C   LIG    1      -10.259   2.871   0.423  0.00  0.00    -0.040 A 
ATOM     11  C   LIG    1       -8.866   2.981   0.376  0.00  0.00    +0.050 A 
ATOM     12  C   LIG    1       -8.209   4.070   0.952  0.00  0.00    +0.132 A 
ATOM     13  C   LIG    1       -8.955   5.050   1.604  0.00  0.00    +0.046 A 
ATOM     14  C   LIG    1      -10.343   4.955   1.648  0.00  0.00    +0.008 A 
ATOM     15  C   LIG    1      -11.018   3.878   1.055  0.00  0.00    -0.041 A 
ATOM     16  C   LIG    1      -12.548   3.742   1.027  0.00  0.00    +0.023 C 
ATOM     17  C   LIG    1      -13.365   4.947   1.594  0.00  0.00    +0.009 C 
ATOM     18  C   LIG    1      -14.895   4.786   1.383  0.00  0.00    +0.015 C 
ATOM     19  C   LIG    1      -15.215   4.561  -0.117  0.00  0.00    +0.029 C 
ATOM     20  C   LIG    1      -14.838   5.811  -0.979  0.00  0.00    +0.019 C 
ENDBRANCH   1  12
BRANCH   1  21
ATOM     21  C   LIG    1       -6.215   4.633  -0.185  0.00  0.00    +0.312 C 
ATOM     22  O   LIG    1       -6.756   5.080  -1.198  0.00  0.00    -0.250 OA
BRANCH  21  23
ATOM     23  C   LIG    1       -4.691   4.562  -0.072  0.00  0.00    +0.121 C 
BRANCH  23  24
ATOM     24  C   LIG    1       -4.158   3.121  -0.192  0.00  0.00    +0.011 C 
BRANCH  24  25
ATOM     25  C   LIG    1       -2.624   3.047  -0.114  0.00  0.00    +0.001 C 
BRANCH  25  26
ATOM     26  C   LIG    1       -2.092   1.608  -0.232  0.00  0.00    +0.000 C 
BRANCH  26  27
ATOM     27  C   LIG    1       -0.558   1.521  -0.162  0.00  0.00    +0.000 C 
BRANCH  27  28
ATOM     28  C   LIG    1       -0.039   0.075  -0.287  0.00  0.00    +0.004 C 
BRANCH  28  29
ATOM     29  C   LIG    1        1.492  -0.055  -0.176  0.00  0.00    +0.027 C 
BRANCH  29  30
ATOM     30  C   LIG    1        2.273   0.536  -1.339  0.00  0.00    -0.031 C 
ATOM     31  C   LIG    1        3.598   0.411  -1.546  0.00  0.00    -0.031 C 
BRANCH  31  32
ATOM     32  C   LIG    1        4.585  -0.338  -0.666  0.00  0.00    +0.027 C 
BRANCH  32  33
ATOM     33  C   LIG    1        5.669   0.577  -0.065  0.00  0.00    +0.004 C 
BRANCH  33  34
ATOM     34  C   LIG    1        6.628  -0.132   0.912  0.00  0.00    +0.000 C 
BRANCH  34  35
ATOM     35  C   LIG    1        7.503  -1.225   0.267  0.00  0.00    +0.000 C 
BRANCH  35  36
ATOM     36  C   LIG    1        8.509  -1.845   1.253  0.00  0.00    -0.000 C 
BRANCH  36  37
ATOM     37  C   LIG    1        9.382  -2.938   0.612  0.00  0.00    -0.000 C 
BRANCH  37  38
ATOM     38  C   LIG    1       10.399  -3.546   1.594  0.00  0.00    -0.003 C 
ATOM     39  C   LIG    1       11.278  -4.627   0.951  0.00  0.00    +0.004 C 
ENDBRANCH  37  38
ENDBRANCH  36  37
ENDBRANCH  35  36
ENDBRANCH  34  35
ENDBRANCH  33  34
ENDBRANCH  32  33
ENDBRANCH  31  32
ENDBRANCH  29  30
ENDBRANCH  28  29
ENDBRANCH  27  28
ENDBRANCH  26  27
ENDBRANCH  25  26
ENDBRANCH  24  25
ENDBRANCH  23  24
ENDBRANCH  21  23
ENDBRANCH   1  21
TORSDOF 17
