REMARK  Name = DB04725
REMARK                            x       y       z     vdW  Elec       q    Type
REMARK                         _______ _______ _______ _____ _____    ______ ____
ROOT
ATOM      1  C   LIG    1       -0.948  -1.085  -0.029  0.00  0.00    +0.011 A 
ATOM      2  C   LIG    1       -2.244  -0.507   0.024  0.00  0.00    +0.011 A 
ATOM      3  C   LIG    1       -2.054   0.868   0.018  0.00  0.00    +0.028 A 
ATOM      4  C   LIG    1       -2.799   2.186  -0.003  0.00  0.00    +0.062 C 
ATOM      5  C   LIG    1       -1.700   3.190  -0.428  0.00  0.00    -0.012 C 
ATOM      6  C   LIG    1       -1.614   3.297  -1.972  0.00  0.00    +0.013 C 
ATOM      7  C   LIG    1       -1.946   4.590   0.175  0.00  0.00    +0.013 C 
ATOM      8  C   LIG    1       -0.425   2.543   0.150  0.00  0.00    +0.128 C 
ATOM      9  N   LIG    1       -0.716   1.133  -0.017  0.00  0.00    -0.345 N 
ATOM     10  C   LIG    1       -0.008  -0.044  -0.027  0.00  0.00    +0.038 A 
ENDROOT
BRANCH   1  15
ATOM     11 CL   LIG    1        0.323  -6.950  -0.196  0.00  0.00    -0.084 Cl
ATOM     12  C   LIG    1       -0.039  -5.263  -0.149  0.00  0.00    +0.041 A 
ATOM     13  C   LIG    1       -0.951  -4.726  -1.056  0.00  0.00    +0.020 A 
ATOM     14  C   LIG    1       -1.243  -3.365  -1.017  0.00  0.00    +0.010 A 
ATOM     15  C   LIG    1       -0.625  -2.542  -0.071  0.00  0.00    -0.015 A 
ATOM     16  C   LIG    1        0.290  -3.087   0.834  0.00  0.00    +0.010 A 
ATOM     17  C   LIG    1        0.583  -4.448   0.795  0.00  0.00    +0.020 A 
ENDBRANCH   1  15
BRANCH   2  18
ATOM     18  C   LIG    1       -3.565  -1.200   0.074  0.00  0.00    -0.016 A 
ATOM     19  C   LIG    1       -3.759  -2.281   0.940  0.00  0.00    +0.008 A 
ATOM     20  C   LIG    1       -4.992  -2.926   0.988  0.00  0.00    +0.001 A 
ATOM     21  C   LIG    1       -6.032  -2.489   0.171  0.00  0.00    +0.000 A 
ATOM     22  C   LIG    1       -5.849  -1.412  -0.693  0.00  0.00    +0.001 A 
ATOM     23  C   LIG    1       -4.616  -0.766  -0.740  0.00  0.00    +0.008 A 
ENDBRANCH   2  18
BRANCH  10  24
ATOM     24  C   LIG    1        1.521  -0.045  -0.040  0.00  0.00    +0.174 C 
BRANCH  24  25
ATOM     25  C   LIG    1        2.194   0.345   1.299  0.00  0.00    +0.311 C 
ATOM     26  O   LIG    1        3.407   0.644   1.239  0.00  0.00    -0.251 OA
BRANCH  25  27
ATOM     27  O   LIG    1        1.529   0.334   2.362  0.00  0.00    -0.480 OA
ATOM     28  H   LIG    1        0.874  -0.323   2.498  0.00  0.00    +0.295 HD
ENDBRANCH  25  27
ENDBRANCH  24  25
ENDBRANCH  10  24
TORSDOF 5
