REMARK  Name = DB04874
REMARK                            x       y       z     vdW  Elec       q    Type
REMARK                         _______ _______ _______ _____ _____    ______ ____
ROOT
ATOM      1  N   LIG    1       -0.625   1.194   0.000  0.00  0.00    -0.260 NA
ATOM      2  C   LIG    1       -1.983   1.218   0.000  0.00  0.00    +0.111 A 
ATOM      3  C   LIG    1       -2.763   0.059   0.000  0.00  0.00    +0.020 A 
ATOM      4  C   LIG    1       -2.116  -1.178   0.000  0.00  0.00    +0.003 A 
ATOM      5  C   LIG    1       -0.720  -1.226   0.000  0.00  0.00    +0.023 A 
ATOM      6  C   LIG    1       -0.012  -0.019   0.000  0.00  0.00    +0.038 A 
ATOM      7  C   LIG    1        1.505   0.009   0.000  0.00  0.00    +0.065 C 
ENDROOT
TORSDOF 0
