REMARK  Name = DB04571
REMARK                            x       y       z     vdW  Elec       q    Type
REMARK                         _______ _______ _______ _____ _____    ______ ____
ROOT
ATOM      1  C   LIG    1       -0.051  -0.073   0.000  0.00  0.00    +0.045 C 
ATOM      2  C   LIG    1        1.476  -0.020   0.000  0.00  0.00    -0.033 A 
ATOM      3  C   LIG    1        2.205   1.280   0.000  0.00  0.00    +0.022 A 
ATOM      4  C   LIG    1        1.565   2.531   0.000  0.00  0.00    +0.023 A 
ATOM      5  C   LIG    1        2.340   3.698   0.000  0.00  0.00    +0.021 A 
ATOM      6  C   LIG    1        3.745   3.588   0.000  0.00  0.00    +0.142 A 
ATOM      7  C   LIG    1        4.424   2.362   0.000  0.00  0.00    +0.035 A 
ATOM      8  C   LIG    1        5.943   2.256   0.000  0.00  0.00    +0.051 C 
ATOM      9  O   LIG    1        4.327   4.825   0.000  0.00  0.00    -0.460 OA
ATOM     10  C   LIG    1        3.312   5.735   0.000  0.00  0.00    +0.103 A 
ATOM     11  C   LIG    1        3.728   7.185   0.000  0.00  0.00    +0.086 C 
ATOM     12  C   LIG    1        2.078   5.103   0.000  0.00  0.00    +0.053 A 
ATOM     13  C   LIG    1        3.616   1.212   0.000  0.00  0.00    +0.146 A 
ATOM     14  O   LIG    1        4.286  -0.008   0.000  0.00  0.00    -0.422 OA
ATOM     15  C   LIG    1        3.631  -1.222   0.000  0.00  0.00    +0.337 A 
ATOM     16  O   LIG    1        4.341  -2.225   0.000  0.00  0.00    -0.245 OA
ATOM     17  C   LIG    1        2.169  -1.177   0.000  0.00  0.00    +0.096 A 
ENDROOT
TORSDOF 0
