REMARK  Name = DB04796
REMARK                            x       y       z     vdW  Elec       q    Type
REMARK                         _______ _______ _______ _____ _____    ______ ____
ROOT
ATOM      1  C   LIG    1       -2.385  -0.768  -1.226  0.00  0.00    -0.022 C 
ATOM      2  C   LIG    1       -3.005  -1.026   0.183  0.00  0.00    +0.012 C 
ATOM      3  C   LIG    1       -3.156   0.442  -1.859  0.00  0.00    +0.008 C 
ATOM      4  C   LIG    1       -3.168   0.523  -3.393  0.00  0.00    +0.005 C 
ATOM      5  C   LIG    1       -3.513  -0.825  -4.031  0.00  0.00    +0.031 C 
ATOM      6  C   LIG    1       -2.434  -1.815  -3.606  0.00  0.00    -0.066 C 
ATOM      7  C   LIG    1       -1.534  -2.379  -4.450  0.00  0.00    -0.001 C 
ATOM      8  C   LIG    1       -0.826  -0.585  -1.139  0.00  0.00    -0.001 C 
ATOM      9  C   LIG    1       -0.263  -2.035  -1.142  0.00  0.00    +0.005 C 
ATOM     10  C   LIG    1       -1.414  -2.983  -1.485  0.00  0.00    +0.009 C 
ATOM     11  C   LIG    1       -2.508  -2.083  -2.083  0.00  0.00    +0.021 C 
ENDROOT
BRANCH   7  12
ATOM     12  C   LIG    1       -1.424  -2.138  -5.884  0.00  0.00    -0.001 C 
ATOM     13  C   LIG    1       -0.652  -2.831  -6.751  0.00  0.00    -0.065 C 
ATOM     14  C   LIG    1        0.251  -4.023  -6.409  0.00  0.00    +0.062 C 
ATOM     15  C   LIG    1        1.710  -3.725  -6.828  0.00  0.00    +0.121 C 
ATOM     16  C   LIG    1        1.820  -3.310  -8.311  0.00  0.00    +0.063 C 
ATOM     17  C   LIG    1        0.852  -2.163  -8.672  0.00  0.00    +0.121 C 
ATOM     18  C   LIG    1       -0.599  -2.485  -8.242  0.00  0.00    +0.062 C 
BRANCH  15  19
ATOM     19  O   LIG    1        2.540  -4.837  -6.559  0.00  0.00    -0.391 OA
ATOM     20  H   LIG    1        3.188  -4.580  -5.899  0.00  0.00    +0.210 HD
ENDBRANCH  15  19
BRANCH  17  21
ATOM     21  O   LIG    1        1.280  -0.937  -8.108  0.00  0.00    -0.391 OA
ATOM     22  H   LIG    1        1.442  -0.314  -8.820  0.00  0.00    +0.210 HD
ENDBRANCH  17  21
ENDBRANCH   7  12
BRANCH   8  23
ATOM     23  C   LIG    1       -0.210   0.287   0.014  0.00  0.00    +0.001 C 
ATOM     24  C   LIG    1       -0.803   1.713   0.119  0.00  0.00    +0.009 C 
BRANCH  23  25
ATOM     25  C   LIG    1        1.343   0.359  -0.106  0.00  0.00    +0.092 C 
BRANCH  25  26
ATOM     26  C   LIG    1        2.055   0.881   1.077  0.00  0.00    -0.099 C 
ATOM     27  C   LIG    1        2.624   1.308   2.070  0.00  0.00    -0.068 C 
BRANCH  27  28
ATOM     28  C   LIG    1        3.289   1.820   3.285  0.00  0.00    +0.121 C 
ATOM     29  C   LIG    1        3.213   0.783   4.427  0.00  0.00    +0.055 C 
ATOM     30  C   LIG    1        2.668   3.164   3.724  0.00  0.00    +0.055 C 
BRANCH  28  31
ATOM     31  O   LIG    1        4.661   2.064   3.048  0.00  0.00    -0.377 OA
ATOM     32  H   LIG    1        5.054   2.398   3.857  0.00  0.00    +0.211 HD
ENDBRANCH  28  31
ENDBRANCH  27  28
ENDBRANCH  25  26
ENDBRANCH  23  25
ENDBRANCH   8  23
TORSDOF 8
