REMARK  Name = DB04540
REMARK                            x       y       z     vdW  Elec       q    Type
REMARK                         _______ _______ _______ _____ _____    ______ ____
ROOT
ATOM      1  C   LIG    1        8.667  -3.359   1.257  0.00  0.00    +0.014 C 
ATOM      2  C   LIG    1       10.086  -3.936   1.111  0.00  0.00    +0.032 C 
ATOM      3  C   LIG    1       10.088  -5.180   0.209  0.00  0.00    +0.119 C 
ATOM      4  C   LIG    1        9.450  -4.892  -1.162  0.00  0.00    +0.062 C 
ATOM      5  C   LIG    1        8.045  -4.297  -1.005  0.00  0.00    -0.065 C 
ATOM      6  C   LIG    1        6.993  -4.826  -1.665  0.00  0.00    -0.027 C 
ATOM      7  C   LIG    1        5.573  -4.289  -1.664  0.00  0.00    +0.031 C 
ATOM      8  C   LIG    1        5.487  -2.880  -1.031  0.00  0.00    +0.000 C 
ATOM      9  C   LIG    1        6.403  -2.762   0.229  0.00  0.00    +0.003 C 
ATOM     10  C   LIG    1        6.150  -1.441   1.030  0.00  0.00    +0.005 C 
ATOM     11  C   LIG    1        4.651  -1.135   1.260  0.00  0.00    +0.007 C 
ATOM     12  C   LIG    1        3.852  -1.105  -0.074  0.00  0.00    -0.026 C 
ATOM     13  C   LIG    1        4.358   0.028  -1.026  0.00  0.00    +0.012 C 
ATOM     14  C   LIG    1        2.292  -1.053   0.070  0.00  0.00    -0.002 C 
ATOM     15  C   LIG    1        1.783  -1.791  -1.202  0.00  0.00    +0.004 C 
ATOM     16  C   LIG    1        2.942  -2.635  -1.751  0.00  0.00    +0.004 C 
ATOM     17  C   LIG    1        4.016  -2.527  -0.669  0.00  0.00    -0.001 C 
ATOM     18  C   LIG    1        7.925  -3.050  -0.084  0.00  0.00    -0.008 C 
ATOM     19  C   LIG    1        8.600  -1.850  -0.806  0.00  0.00    +0.016 C 
ENDROOT
BRANCH   3  20
ATOM     20  O   LIG    1       11.398  -5.687   0.054  0.00  0.00    -0.391 OA
ATOM     21  H   LIG    1       11.410  -6.597   0.362  0.00  0.00    +0.210 HD
ENDBRANCH   3  20
BRANCH  14  22
ATOM     22  C   LIG    1        1.599   0.338   0.291  0.00  0.00    -0.010 C 
ATOM     23  C   LIG    1        2.155   1.108   1.511  0.00  0.00    +0.008 C 
BRANCH  22  24
ATOM     24  C   LIG    1        0.053   0.195   0.400  0.00  0.00    +0.003 C 
BRANCH  24  25
ATOM     25  C   LIG    1       -0.736   1.513   0.244  0.00  0.00    +0.001 C 
BRANCH  25  26
ATOM     26  C   LIG    1       -2.263   1.296   0.198  0.00  0.00    +0.003 C 
BRANCH  26  27
ATOM     27  C   LIG    1       -3.090   2.578  -0.065  0.00  0.00    -0.017 C 
ATOM     28  C   LIG    1       -4.568   2.236  -0.326  0.00  0.00    +0.007 C 
ATOM     29  C   LIG    1       -2.962   3.617   1.066  0.00  0.00    +0.007 C 
ENDBRANCH  26  27
ENDBRANCH  25  26
ENDBRANCH  24  25
ENDBRANCH  22  24
ENDBRANCH  14  22
TORSDOF 6
