REMARK  Name = DB04837
REMARK                            x       y       z     vdW  Elec       q    Type
REMARK                         _______ _______ _______ _____ _____    ______ ____
ROOT
ATOM      1  C   LIG    1       -0.058  -0.135  -0.025  0.00  0.00    +0.118 C 
ENDROOT
BRANCH   1   8
ATOM      2 CL   LIG    1       -3.177  -0.416  -0.472  0.00  0.00    -0.083 Cl
ATOM      3  C   LIG    1       -1.962  -0.908  -1.606  0.00  0.00    +0.047 A 
ATOM      4  C   LIG    1       -2.412  -1.468  -2.804  0.00  0.00    +0.020 A 
ATOM      5  C   LIG    1       -1.507  -1.889  -3.773  0.00  0.00    +0.001 A 
ATOM      6  C   LIG    1       -0.143  -1.753  -3.546  0.00  0.00    +0.000 A 
ATOM      7  C   LIG    1        0.315  -1.198  -2.353  0.00  0.00    +0.008 A 
ATOM      8  C   LIG    1       -0.577  -0.761  -1.354  0.00  0.00    +0.007 A 
ENDBRANCH   1   8
BRANCH   1   9
ATOM      9  C   LIG    1       -0.486   1.351   0.060  0.00  0.00    -0.012 A 
ATOM     10  C   LIG    1       -0.128   2.227  -0.976  0.00  0.00    +0.007 A 
ATOM     11  C   LIG    1       -0.483   3.571  -0.922  0.00  0.00    +0.000 A 
ATOM     12  C   LIG    1       -1.196   4.053   0.172  0.00  0.00    +0.000 A 
ATOM     13  C   LIG    1       -1.554   3.201   1.212  0.00  0.00    +0.000 A 
ATOM     14  C   LIG    1       -1.199   1.856   1.159  0.00  0.00    +0.007 A 
ENDBRANCH   1   9
BRANCH   1  15
ATOM     15  O   LIG    1       -0.536  -0.916   1.065  0.00  0.00    -0.379 OA
ATOM     16  H   LIG    1       -0.090  -0.628   1.864  0.00  0.00    +0.211 HD
ENDBRANCH   1  15
BRANCH   1  17
ATOM     17  C   LIG    1        1.500  -0.199   0.130  0.00  0.00    +0.060 C 
BRANCH  17  18
ATOM     18  C   LIG    1        2.067   0.277   1.496  0.00  0.00    +0.087 C 
BRANCH  18  19
ATOM     19  N   LIG    1        3.504   0.569   1.462  0.00  0.00    -0.308 NA
ATOM     20  C   LIG    1        4.021   0.671   2.824  0.00  0.00    +0.104 C 
ATOM     21  C   LIG    1        3.782   1.825   0.764  0.00  0.00    +0.104 C 
ENDBRANCH  18  19
ENDBRANCH  17  18
ENDBRANCH   1  17
TORSDOF 6
