REMARK  Name = DB04853
REMARK                            x       y       z     vdW  Elec       q    Type
REMARK                         _______ _______ _______ _____ _____    ______ ____
ROOT
ATOM      1  N   LIG    1       -0.083  -0.192  -0.019  0.00  0.00    -0.285 N 
ATOM      2  C   LIG    1       -0.815  -1.226   0.443  0.00  0.00    +0.203 A 
ATOM      3  N   LIG    1       -2.093  -0.963   0.557  0.00  0.00    -0.231 NA
ATOM      4  C   LIG    1       -2.195   0.331   0.215  0.00  0.00    +0.147 A 
ATOM      5  C   LIG    1       -3.306   1.202   0.167  0.00  0.00    +0.149 A 
ATOM      6  N   LIG    1       -3.093   2.494  -0.198  0.00  0.00    -0.196 NA
ATOM      7  C   LIG    1       -1.837   2.890  -0.485  0.00  0.00    +0.239 A 
ATOM      8  N   LIG    1       -0.725   2.137  -0.492  0.00  0.00    -0.193 NA
ATOM      9  C   LIG    1       -0.962   0.853  -0.129  0.00  0.00    +0.169 A 
ENDROOT
BRANCH   1  14
ATOM     10  O4* LIG    1        1.968   0.616   0.869  0.00  0.00    -0.346 OA
ATOM     11  C4* LIG    1        3.088   1.373   0.441  0.00  0.00    +0.177 C 
ATOM     12  C3* LIG    1        2.644   1.756  -0.966  0.00  0.00    +0.178 C 
ATOM     13  C2* LIG    1        1.948   0.492  -1.482  0.00  0.00    +0.195 C 
ATOM     14  C1* LIG    1        1.426  -0.141  -0.175  0.00  0.00    +0.253 C 
BRANCH  13  15
ATOM     15  O2* LIG    1        2.803  -0.434  -2.134  0.00  0.00    -0.385 OA
ATOM     16  H2* LIG    1        3.026  -0.083  -3.000  0.00  0.00    +0.210 HD
ENDBRANCH  13  15
BRANCH  12  17
ATOM     17  O3* LIG    1        3.707   2.218  -1.780  0.00  0.00    -0.386 OA
ATOM     18  H3* LIG    1        4.365   1.522  -1.845  0.00  0.00    +0.210 HD
ENDBRANCH  12  17
BRANCH  11  19
ATOM     19  C5* LIG    1        3.310   2.564   1.393  0.00  0.00    +0.190 C 
BRANCH  19  20
ATOM     20  O5* LIG    1        3.595   2.116   2.702  0.00  0.00    -0.392 OA
ATOM     21  H5* LIG    1        3.689   2.882   3.273  0.00  0.00    +0.210 HD
ENDBRANCH  19  20
ENDBRANCH  11  19
ENDBRANCH   1  14
BRANCH   5  22
ATOM     22  N   LIG    1       -4.603   0.802   0.484  0.00  0.00    -0.341 N 
ATOM     23  H   LIG    1       -5.352   1.476   0.440  0.00  0.00    +0.144 HD
ATOM     24  H   LIG    1       -4.770  -0.151   0.774  0.00  0.00    +0.144 HD
ENDBRANCH   5  22
BRANCH   7  25
ATOM     25  N   LIG    1       -1.614   4.217  -0.882  0.00  0.00    -0.205 N 
ATOM     26  H   LIG    1       -0.745   4.625  -1.193  0.00  0.00    +0.177 HD
BRANCH  25  27
ATOM     27  N   LIG    1       -2.526   5.217  -0.512  0.00  0.00    -0.192 NA
ATOM     28  C   LIG    1       -2.148   6.413  -0.688  0.00  0.00    +0.106 C 
BRANCH  28  29
ATOM     29  C   LIG    1       -3.018   7.612  -0.321  0.00  0.00    +0.032 C 
ATOM     30  C   LIG    1       -2.434   8.354   0.901  0.00  0.00    +0.009 C 
ATOM     31  C   LIG    1       -3.375   9.500   1.327  0.00  0.00    +0.001 C 
ATOM     32  C   LIG    1       -3.634  10.479   0.155  0.00  0.00    +0.000 C 
ATOM     33  C   LIG    1       -4.066   9.763  -1.149  0.00  0.00    +0.001 C 
ATOM     34  C   LIG    1       -3.104   8.608  -1.499  0.00  0.00    +0.009 C 
ENDBRANCH  28  29
ENDBRANCH  25  27
ENDBRANCH   7  25
TORSDOF 9
