REMARK  Name = DB04786
REMARK                            x       y       z     vdW  Elec       q    Type
REMARK                         _______ _______ _______ _____ _____    ______ ____
ROOT
ATOM      1  N   LIG    1        0.255   0.475   0.336  0.00  0.00    -0.269 N 
ATOM      2  H   LIG    1       -0.183  -0.416   0.516  0.00  0.00    +0.156 HD
ATOM      3  C   LIG    1       -0.558   1.551   0.324  0.00  0.00    +0.308 C 
ATOM      4  N   LIG    1       -1.844   1.151   0.408  0.00  0.00    -0.269 N 
ATOM      5  H   LIG    1       -2.009   0.157   0.355  0.00  0.00    +0.156 HD
ATOM      6  O   LIG    1       -0.184   2.721   0.246  0.00  0.00    -0.252 OA
ENDROOT
BRANCH   1  11
ATOM      7  C   LIG    1        3.837   1.289  -0.481  0.00  0.00    +0.039 A 
ATOM      8  C   LIG    1        4.426   0.092  -0.041  0.00  0.00    +0.013 A 
ATOM      9  C   LIG    1        3.645  -0.930   0.494  0.00  0.00    +0.003 A 
ATOM     10  C   LIG    1        2.266  -0.770   0.607  0.00  0.00    +0.023 A 
ATOM     11  C   LIG    1        1.655   0.416   0.197  0.00  0.00    +0.035 A 
ATOM     12  C   LIG    1        2.447   1.440  -0.353  0.00  0.00    +0.036 A 
BRANCH   7  15
ATOM     13  N   LIG    1        5.836   2.023  -1.642  0.00  0.00    -0.281 N 
ATOM     14  H   LIG    1        6.011   1.030  -1.676  0.00  0.00    +0.155 HD
ATOM     15  C   LIG    1        4.667   2.406  -1.078  0.00  0.00    +0.248 C 
ATOM     16  O   LIG    1        4.244   3.563  -1.071  0.00  0.00    -0.270 OA
BRANCH  13  22
ATOM     17  C   LIG    1        7.986   4.931  -2.655  0.00  0.00    +0.039 A 
ATOM     18  C   LIG    1        8.783   4.294  -3.614  0.00  0.00    +0.013 A 
ATOM     19  C   LIG    1        8.613   2.942  -3.901  0.00  0.00    +0.006 A 
ATOM     20  C   LIG    1        7.636   2.191  -3.244  0.00  0.00    -0.029 A 
ATOM     21  C   LIG    1        7.490   0.714  -3.594  0.00  0.00    +0.045 C 
ATOM     22  C   LIG    1        6.812   2.811  -2.288  0.00  0.00    +0.037 A 
ATOM     23  C   LIG    1        7.008   4.172  -1.994  0.00  0.00    +0.036 A 
BRANCH  17  26
ATOM     24  N   LIG    1        8.648   7.210  -3.277  0.00  0.00    -0.281 N 
ATOM     25  H   LIG    1        9.057   6.773  -4.091  0.00  0.00    +0.155 HD
ATOM     26  C   LIG    1        8.161   6.394  -2.306  0.00  0.00    +0.248 C 
ATOM     27  O   LIG    1        7.828   6.793  -1.186  0.00  0.00    -0.270 OA
BRANCH  24  36
ATOM     28  C   LIG    1       10.980   8.828  -4.516  0.00  0.00    +0.128 A 
ATOM     29  C   LIG    1       11.996   9.681  -4.956  0.00  0.00    +0.059 A 
ATOM     30  C   LIG    1       11.934  11.052  -4.797  0.00  0.00    +0.119 A 
ATOM     31  C   LIG    1       10.836  11.616  -4.174  0.00  0.00    +0.040 A 
ATOM     32  C   LIG    1        9.761  10.826  -3.684  0.00  0.00    +0.015 A 
ATOM     33  C   LIG    1        8.633  11.457  -3.055  0.00  0.00    +0.125 A 
ATOM     34  C   LIG    1        7.587  10.673  -2.590  0.00  0.00    +0.032 A 
ATOM     35  C   LIG    1        7.626   9.302  -2.692  0.00  0.00    +0.026 A 
ATOM     36  C   LIG    1        8.713   8.623  -3.255  0.00  0.00    +0.043 A 
ATOM     37  C   LIG    1        9.817   9.383  -3.827  0.00  0.00    +0.033 A 
BRANCH  28  38
ATOM     38  S   LIG    1       11.242   7.071  -4.901  0.00  0.00    +0.110 S 
ATOM     39  O   LIG    1       11.376   6.468  -3.570  0.00  0.00    -0.142 OA
ATOM     40  O   LIG    1       10.031   6.722  -5.653  0.00  0.00    -0.142 OA
BRANCH  38  41
ATOM     41  O   LIG    1       12.469   7.014  -5.705  0.00  0.00    -0.250 OA
ATOM     42  H   LIG    1       12.659   6.092  -5.941  0.00  0.00    +0.245 HD
ENDBRANCH  38  41
ENDBRANCH  28  38
BRANCH  33  43
ATOM     43  S   LIG    1        8.499  13.257  -2.848  0.00  0.00    +0.110 S 
ATOM     44  O   LIG    1        9.676  13.578  -2.031  0.00  0.00    -0.142 OA
ATOM     45  O   LIG    1        8.539  13.745  -4.231  0.00  0.00    -0.142 OA
BRANCH  43  46
ATOM     46  O   LIG    1        7.215  13.466  -2.167  0.00  0.00    -0.250 OA
ATOM     47  H   LIG    1        7.076  14.415  -2.022  0.00  0.00    +0.245 HD
ENDBRANCH  43  46
ENDBRANCH  33  43
BRANCH  30  48
ATOM     48  S   LIG    1       13.294  12.069  -5.389  0.00  0.00    +0.110 S 
ATOM     49  O   LIG    1       13.587  11.492  -6.706  0.00  0.00    -0.142 OA
ATOM     50  O   LIG    1       12.742  13.428  -5.421  0.00  0.00    -0.142 OA
BRANCH  48  51
ATOM     51  O   LIG    1       14.320  11.838  -4.367  0.00  0.00    -0.250 OA
ATOM     52  H   LIG    1       15.116  12.347  -4.587  0.00  0.00    +0.245 HD
ENDBRANCH  48  51
ENDBRANCH  30  48
ENDBRANCH  24  36
ENDBRANCH  17  26
ENDBRANCH  13  22
ENDBRANCH   7  15
ENDBRANCH   1  11
BRANCH   4  53
ATOM     53  C   LIG    1       -3.014   1.931   0.481  0.00  0.00    +0.035 A 
ATOM     54  C   LIG    1       -4.210   1.283   0.165  0.00  0.00    +0.023 A 
ATOM     55  C   LIG    1       -5.420   1.969   0.220  0.00  0.00    +0.003 A 
ATOM     56  C   LIG    1       -5.448   3.309   0.598  0.00  0.00    +0.013 A 
ATOM     57  C   LIG    1       -4.263   3.986   0.932  0.00  0.00    +0.039 A 
ATOM     58  C   LIG    1       -3.050   3.280   0.876  0.00  0.00    +0.036 A 
BRANCH  57  59
ATOM     59  C   LIG    1       -4.275   5.437   1.363  0.00  0.00    +0.248 C 
ATOM     60  N   LIG    1       -5.336   6.162   0.938  0.00  0.00    -0.281 N 
ATOM     61  H   LIG    1       -5.975   5.694   0.313  0.00  0.00    +0.155 HD
ATOM     62  O   LIG    1       -3.338   5.895   2.020  0.00  0.00    -0.270 OA
BRANCH  60  63
ATOM     63  C   LIG    1       -5.638   7.521   1.170  0.00  0.00    +0.037 A 
ATOM     64  C   LIG    1       -6.473   8.180   0.250  0.00  0.00    -0.029 A 
ATOM     65  C   LIG    1       -7.035   7.468  -0.977  0.00  0.00    +0.045 C 
ATOM     66  C   LIG    1       -6.796   9.524   0.453  0.00  0.00    +0.006 A 
ATOM     67  C   LIG    1       -6.304  10.214   1.557  0.00  0.00    +0.013 A 
ATOM     68  C   LIG    1       -5.482   9.578   2.495  0.00  0.00    +0.039 A 
ATOM     69  C   LIG    1       -5.165   8.226   2.291  0.00  0.00    +0.036 A 
BRANCH  68  70
ATOM     70  C   LIG    1       -4.942  10.298   3.713  0.00  0.00    +0.248 C 
ATOM     71  N   LIG    1       -4.799  11.646   3.624  0.00  0.00    -0.281 N 
ATOM     72  H   LIG    1       -5.247  12.115   2.849  0.00  0.00    +0.155 HD
ATOM     73  O   LIG    1       -4.622   9.646   4.711  0.00  0.00    -0.270 OA
BRANCH  71  74
ATOM     74  C   LIG    1       -4.137  12.493   4.542  0.00  0.00    +0.043 A 
ATOM     75  C   LIG    1       -2.932  12.027   5.079  0.00  0.00    +0.026 A 
ATOM     76  C   LIG    1       -2.213  12.747   6.006  0.00  0.00    +0.032 A 
ATOM     77  C   LIG    1       -2.656  13.983   6.454  0.00  0.00    +0.125 A 
ATOM     78  C   LIG    1       -3.868  14.535   5.913  0.00  0.00    +0.015 A 
ATOM     79  C   LIG    1       -4.337  15.800   6.362  0.00  0.00    +0.040 A 
ATOM     80  C   LIG    1       -5.497  16.367   5.868  0.00  0.00    +0.119 A 
ATOM     81  C   LIG    1       -6.207  15.714   4.879  0.00  0.00    +0.059 A 
ATOM     82  C   LIG    1       -5.811  14.475   4.365  0.00  0.00    +0.128 A 
ATOM     83  C   LIG    1       -4.625  13.815   4.907  0.00  0.00    +0.033 A 
BRANCH  82  84
ATOM     84  S   LIG    1       -6.846  13.843   3.011  0.00  0.00    +0.110 S 
ATOM     85  O   LIG    1       -5.870  13.602   1.942  0.00  0.00    -0.142 OA
ATOM     86  O   LIG    1       -7.462  12.652   3.606  0.00  0.00    -0.142 OA
BRANCH  84  87
ATOM     87  O   LIG    1       -7.800  14.915   2.703  0.00  0.00    -0.250 OA
ATOM     88  H   LIG    1       -8.383  14.632   1.981  0.00  0.00    +0.245 HD
ENDBRANCH  84  87
ENDBRANCH  82  84
BRANCH  80  89
ATOM     89  S   LIG    1       -6.065  17.968   6.456  0.00  0.00    +0.110 S 
ATOM     90  O   LIG    1       -5.409  18.124   7.760  0.00  0.00    -0.142 OA
ATOM     91  O   LIG    1       -5.584  18.871   5.405  0.00  0.00    -0.142 OA
BRANCH  89  92
ATOM     92  O   LIG    1       -7.523  17.805   6.518  0.00  0.00    -0.250 OA
ATOM     93  H   LIG    1       -7.927  18.630   6.830  0.00  0.00    +0.245 HD
ENDBRANCH  89  92
ENDBRANCH  80  89
BRANCH  77  94
ATOM     94  S   LIG    1       -1.653  14.841   7.702  0.00  0.00    +0.110 S 
ATOM     95  O   LIG    1       -1.290  16.090   7.022  0.00  0.00    -0.142 OA
ATOM     96  O   LIG    1       -2.586  14.983   8.826  0.00  0.00    -0.142 OA
BRANCH  94  97
ATOM     97  O   LIG    1       -0.523  13.941   7.963  0.00  0.00    -0.250 OA
ATOM     98  H   LIG    1        0.061  14.340   8.628  0.00  0.00    +0.245 HD
ENDBRANCH  94  97
ENDBRANCH  77  94
ENDBRANCH  71  74
ENDBRANCH  68  70
ENDBRANCH  60  63
ENDBRANCH  57  59
ENDBRANCH   4  53
TORSDOF 22
