REMARK  Name = DB04815
REMARK                            x       y       z     vdW  Elec       q    Type
REMARK                         _______ _______ _______ _____ _____    ______ ____
ROOT
ATOM      1  I   LIG    1        1.100  -3.051   0.000  0.00  0.00    -0.040 I 
ATOM      2  C   LIG    1        2.075  -1.194   0.000  0.00  0.00    +0.058 A 
ATOM      3  C   LIG    1        3.466  -1.183   0.000  0.00  0.00    +0.038 A 
ATOM      4  C   LIG    1        4.180   0.011   0.000  0.00  0.00    +0.051 A 
ATOM      5  C   LIG    1        3.482   1.251   0.000  0.00  0.00    +0.022 A 
ATOM      6  C   LIG    1        4.138   2.514   0.000  0.00  0.00    +0.013 A 
ATOM      7  C   LIG    1        3.387   3.685   0.000  0.00  0.00    +0.020 A 
ATOM      8  C   LIG    1        2.001   3.590   0.000  0.00  0.00    +0.111 A 
ATOM      9  N   LIG    1        1.333   2.412   0.000  0.00  0.00    -0.251 NA
ATOM     10  C   LIG    1        2.050   1.247   0.000  0.00  0.00    +0.115 A 
ATOM     11 CL   LIG    1        5.910  -0.062   0.000  0.00  0.00    -0.083 Cl
ATOM     12  C   LIG    1        1.355   0.003   0.000  0.00  0.00    +0.156 A 
ENDROOT
BRANCH  12  13
ATOM     13  O   LIG    1       -0.019  -0.032   0.000  0.00  0.00    -0.504 OA
ATOM     14  H   LIG    1       -0.409   0.846   0.000  0.00  0.00    +0.292 HD
ENDBRANCH  12  13
TORSDOF 1
