REMARK  Name = DB04575
REMARK                            x       y       z     vdW  Elec       q    Type
REMARK                         _______ _______ _______ _____ _____    ______ ____
ROOT
ATOM      1  C   LIG    1        9.976   0.184  -1.607  0.00  0.00    +0.132 C 
ATOM      2  C   LIG    1        9.905   1.555  -2.348  0.00  0.00    +0.049 C 
ATOM      3  C   LIG    1        8.533   2.189  -2.036  0.00  0.00    +0.008 C 
ATOM      4  C   LIG    1        7.863   1.206  -1.069  0.00  0.00    +0.002 C 
ATOM      5  C   LIG    1        6.320   1.191  -0.930  0.00  0.00    +0.000 C 
ATOM      6  C   LIG    1        5.664   2.590  -0.768  0.00  0.00    +0.009 C 
ATOM      7  C   LIG    1        4.433   2.610   0.171  0.00  0.00    +0.036 C 
ATOM      8  C   LIG    1        3.608   1.331   0.064  0.00  0.00    -0.040 A 
ATOM      9  C   LIG    1        2.212   1.362  -0.019  0.00  0.00    +0.049 A 
ATOM     10  C   LIG    1        1.458   0.182  -0.082  0.00  0.00    +0.121 A 
ATOM     11  C   LIG    1        2.129  -1.038  -0.049  0.00  0.00    +0.046 A 
ATOM     12  C   LIG    1        3.518  -1.083   0.025  0.00  0.00    +0.008 A 
ATOM     13  C   LIG    1        4.280   0.092   0.068  0.00  0.00    -0.041 A 
ATOM     14  C   LIG    1        5.817   0.110   0.082  0.00  0.00    +0.023 C 
ATOM     15  C   LIG    1        6.530  -1.270  -0.074  0.00  0.00    +0.009 C 
ATOM     16  C   LIG    1        8.066  -1.127  -0.238  0.00  0.00    +0.011 C 
ATOM     17  C   LIG    1        8.450  -0.187  -1.425  0.00  0.00    +0.011 C 
ATOM     18  C   LIG    1        7.891  -0.773  -2.768  0.00  0.00    +0.015 C 
ENDROOT
BRANCH   1  19
ATOM     19  O   LIG    1       10.704  -0.759  -2.376  0.00  0.00    -0.376 OA
ATOM     20  H   LIG    1       10.629  -1.617  -1.953  0.00  0.00    +0.211 HD
ENDBRANCH   1  19
BRANCH   1  21
ATOM     21  C   LIG    1       10.745   0.321  -0.342  0.00  0.00    -0.070 C 
ATOM     22  C   LIG    1       11.373   0.451   0.699  0.00  0.00    +0.007 C 
ENDBRANCH   1  21
BRANCH  10  23
ATOM     23  O   LIG    1        0.079   0.129  -0.175  0.00  0.00    -0.489 OA
BRANCH  23  24
ATOM     24  C   LIG    1       -0.688   1.335  -0.231  0.00  0.00    +0.173 C 
ATOM     25  C   LIG    1       -0.592   1.975  -1.638  0.00  0.00    +0.044 C 
ATOM     26  C   LIG    1       -2.014   2.003  -2.209  0.00  0.00    +0.004 C 
ATOM     27  C   LIG    1       -2.739   0.876  -1.480  0.00  0.00    +0.004 C 
ATOM     28  C   LIG    1       -2.167   0.938  -0.063  0.00  0.00    +0.044 C 
ENDBRANCH  23  24
ENDBRANCH  10  23
TORSDOF 4
