REMARK  Name = DB04875
REMARK                            x       y       z     vdW  Elec       q    Type
REMARK                         _______ _______ _______ _____ _____    ______ ____
ROOT
ATOM      1  C   LIG    1       -1.883   0.651   0.391  0.00  0.00    +0.183 C 
ATOM      2  C   LIG    1       -2.527   0.454  -1.011  0.00  0.00    +0.035 C 
ATOM      3  C   LIG    1       -2.684   1.779  -1.769  0.00  0.00    +0.023 C 
ATOM      4  C   LIG    1       -3.454   2.797  -0.909  0.00  0.00    +0.131 C 
ATOM      5  N   LIG    1       -2.733   2.958   0.373  0.00  0.00    -0.217 N 
ATOM      6  C   LIG    1       -2.192   4.136   0.804  0.00  0.00    +0.232 C 
ATOM      7  C   LIG    1       -1.861   4.167   2.313  0.00  0.00    +0.100 C 
ATOM      8  C   LIG    1       -3.019   3.844   3.295  0.00  0.00    +0.041 C 
ATOM      9  C   LIG    1       -4.046   2.773   2.835  0.00  0.00    +0.161 C 
ATOM     10  C   LIG    1       -3.380   1.488   2.241  0.00  0.00    +0.253 C 
ATOM     11  O   LIG    1       -3.427   0.393   2.809  0.00  0.00    -0.272 OA
ATOM     12  O   LIG    1       -2.134   5.163   0.128  0.00  0.00    -0.274 OA
ATOM     13  N   LIG    1       -2.641   1.723   1.115  0.00  0.00    -0.204 N 
ENDROOT
BRANCH   1  16
ATOM     14  N   LIG    1        0.367  -0.020  -0.339  0.00  0.00    -0.304 N 
ATOM     15  H   LIG    1       -0.118  -0.823  -0.713  0.00  0.00    +0.149 HD
ATOM     16  C   LIG    1       -0.354   0.917   0.302  0.00  0.00    +0.236 C 
ATOM     17  O   LIG    1        0.157   1.924   0.793  0.00  0.00    -0.274 OA
BRANCH  14  21
ATOM     18  O   LIG    1        2.288  -1.035  -2.648  0.00  0.00    -0.433 OA
ATOM     19  C   LIG    1        2.446  -1.963  -1.695  0.00  0.00    +0.311 C 
ATOM     20  C   LIG    1        2.481  -1.290  -0.336  0.00  0.00    +0.149 C 
ATOM     21  C   LIG    1        1.809   0.048  -0.614  0.00  0.00    +0.152 C 
ATOM     22  O   LIG    1        2.547  -3.159  -1.954  0.00  0.00    -0.251 OA
ATOM     23  C   LIG    1        2.145   0.243  -2.099  0.00  0.00    +0.331 C 
BRANCH  23  24
ATOM     24  O   LIG    1        1.130   0.965  -2.732  0.00  0.00    -0.340 OA
BRANCH  24  25
ATOM     25  C   LIG    1        1.422   1.381  -4.059  0.00  0.00    +0.161 C 
ATOM     26  C   LIG    1        0.229   2.181  -4.589  0.00  0.00    +0.034 C 
ENDBRANCH  24  25
ENDBRANCH  23  24
ENDBRANCH  14  21
ENDBRANCH   1  16
BRANCH   9  27
ATOM     27  N   LIG    1       -4.969   2.458   3.944  0.00  0.00    -0.299 N 
ATOM     28  H   LIG    1       -4.915   3.088   4.731  0.00  0.00    +0.150 HD
ATOM     29  C   LIG    1       -6.080   1.685   3.898  0.00  0.00    +0.264 C 
ATOM     30  O   LIG    1       -6.458   1.129   2.865  0.00  0.00    -0.268 OA
BRANCH  29  31
ATOM     31  C   LIG    1       -6.853   1.543   5.197  0.00  0.00    +0.133 A 
ATOM     32  C   LIG    1       -7.575   0.345   5.547  0.00  0.00    +0.013 A 
ATOM     33  C   LIG    1       -7.588  -0.868   4.793  0.00  0.00    +0.011 A 
ATOM     34  C   LIG    1       -8.323  -1.970   5.221  0.00  0.00    +0.001 A 
ATOM     35  C   LIG    1       -9.057  -1.917   6.399  0.00  0.00    +0.001 A 
ATOM     36  C   LIG    1       -9.061  -0.764   7.174  0.00  0.00    +0.008 A 
ATOM     37  C   LIG    1       -8.322   0.376   6.771  0.00  0.00    -0.014 A 
ATOM     38  C   LIG    1       -8.304   1.549   7.564  0.00  0.00    +0.028 A 
ATOM     39  C   LIG    1       -7.554   2.638   7.139  0.00  0.00    +0.112 A 
ATOM     40  N   LIG    1       -6.844   2.650   5.991  0.00  0.00    -0.250 NA
ENDBRANCH  29  31
ENDBRANCH   9  27
TORSDOF 6
