REMARK  Name = DB04872
REMARK                            x       y       z     vdW  Elec       q    Type
REMARK                         _______ _______ _______ _____ _____    ______ ____
ROOT
ATOM      1  C   LIG    1        4.315  -3.033   0.135  0.00  0.00    +0.012 C 
ATOM      2  C   LIG    1        3.830  -3.725  -1.193  0.00  0.00    +0.119 C 
ATOM      3  N   LIG    1        4.349  -2.989  -2.368  0.00  0.00    -0.297 N 
ATOM      4  C   LIG    1        3.500  -2.369  -3.237  0.00  0.00    +0.247 C 
ATOM      5  O   LIG    1        2.273  -2.433  -3.132  0.00  0.00    -0.270 OA
ATOM      6  C   LIG    1        5.815  -3.039  -2.507  0.00  0.00    +0.108 C 
ATOM      7  C   LIG    1        6.411  -2.349  -1.262  0.00  0.00    +0.020 C 
ATOM      8  C   LIG    1        5.875  -2.975   0.043  0.00  0.00    +0.014 C 
ENDROOT
BRANCH   1  14
ATOM      9 CL   LIG    1        1.880  -7.189   2.317  0.00  0.00    -0.082 Cl
ATOM     10  C   LIG    1        2.816  -5.742   2.474  0.00  0.00    +0.060 A 
ATOM     11  C   LIG    1        3.228  -5.276   3.728  0.00  0.00    +0.059 A 
ATOM     12  C   LIG    1        3.978  -4.105   3.814  0.00  0.00    +0.022 A 
ATOM     13  C   LIG    1        4.317  -3.402   2.659  0.00  0.00    +0.006 A 
ATOM     14  C   LIG    1        3.919  -3.852   1.391  0.00  0.00    -0.038 A 
ATOM     15 CL   LIG    1        2.825  -6.121   5.182  0.00  0.00    -0.082 Cl
ATOM     16  C   LIG    1        3.160  -5.034   1.321  0.00  0.00    +0.025 A 
ENDBRANCH   1  14
BRANCH   4  17
ATOM     17  C   LIG    1        4.067  -1.572  -4.387  0.00  0.00    +0.037 A 
ATOM     18  C   LIG    1        3.650  -1.854  -5.693  0.00  0.00    +0.013 A 
ATOM     19  C   LIG    1        4.149  -1.117  -6.763  0.00  0.00    +0.001 A 
ATOM     20  C   LIG    1        5.056  -0.086  -6.528  0.00  0.00    +0.000 A 
ATOM     21  C   LIG    1        5.460   0.220  -5.231  0.00  0.00    +0.001 A 
ATOM     22  C   LIG    1        4.962  -0.517  -4.160  0.00  0.00    +0.013 A 
ENDBRANCH   4  17
BRANCH   1  23
ATOM     23  C   LIG    1        3.710  -1.589   0.210  0.00  0.00    +0.011 C 
BRANCH  23  24
ATOM     24  C   LIG    1        2.172  -1.520   0.339  0.00  0.00    -0.018 C 
BRANCH  24  25
ATOM     25  C   LIG    1        1.651  -0.073   0.393  0.00  0.00    -0.079 C 
BRANCH  25  26
ATOM     26  N   LIG    1        0.110  -0.023   0.251  0.00  0.00    +0.380 N 
ATOM     27  H   LIG    1       -0.154  -0.546  -0.572  0.00  0.00    -0.082 HD
ATOM     28  C   LIG    1       -0.344   1.439   0.046  0.00  0.00    -0.076 C 
ATOM     29  C   LIG    1       -1.885   1.523  -0.098  0.00  0.00    +0.012 C 
ATOM     30  C   LIG    1       -2.738   0.827   1.023  0.00  0.00    +0.059 C 
ATOM     31  C   LIG    1       -2.123  -0.614   1.179  0.00  0.00    +0.012 C 
ATOM     32  C   LIG    1       -0.612  -0.642   1.468  0.00  0.00    -0.076 C 
BRANCH  30  33
ATOM     33  C   LIG    1       -2.601   1.504   2.430  0.00  0.00    -0.024 A 
ATOM     34  C   LIG    1       -1.950   2.736   2.619  0.00  0.00    +0.006 A 
ATOM     35  C   LIG    1       -1.845   3.302   3.886  0.00  0.00    +0.000 A 
ATOM     36  C   LIG    1       -2.394   2.648   4.984  0.00  0.00    +0.000 A 
ATOM     37  C   LIG    1       -3.057   1.437   4.823  0.00  0.00    +0.000 A 
ATOM     38  C   LIG    1       -3.162   0.873   3.555  0.00  0.00    +0.006 A 
ENDBRANCH  30  33
BRANCH  30  39
ATOM     39  N   LIG    1       -4.206   0.926   0.653  0.00  0.00    -0.295 N 
ATOM     40  C   LIG    1       -5.018   0.010   0.034  0.00  0.00    +0.213 C 
ATOM     41  C   LIG    1       -4.471  -1.235  -0.663  0.00  0.00    +0.109 C 
ATOM     42  O   LIG    1       -6.241   0.152  -0.041  0.00  0.00    -0.276 OA
ATOM     43  C   LIG    1       -4.817   2.259   0.901  0.00  0.00    +0.133 C 
ENDBRANCH  30  39
ENDBRANCH  25  26
ENDBRANCH  24  25
ENDBRANCH  23  24
ENDBRANCH   1  23
TORSDOF 8
