REMARK  Name = DB04573
REMARK                            x       y       z     vdW  Elec       q    Type
REMARK                         _______ _______ _______ _____ _____    ______ ____
ROOT
ATOM      1  C   LIG    1        1.413   0.012   0.016  0.00  0.00    +0.149 C 
ATOM      2  C   LIG    1        1.963  -0.771   1.234  0.00  0.00    +0.144 C 
ATOM      3  C   LIG    1        3.267  -1.441   0.746  0.00  0.00    +0.038 C 
ATOM      4  C   LIG    1        3.333  -1.097  -0.751  0.00  0.00    +0.004 C 
ATOM      5  C   LIG    1        4.089  -2.007  -1.750  0.00  0.00    +0.001 C 
ATOM      6  C   LIG    1        5.466  -2.528  -1.253  0.00  0.00    +0.009 C 
ATOM      7  C   LIG    1        6.563  -2.563  -2.345  0.00  0.00    +0.036 C 
ATOM      8  C   LIG    1        6.002  -2.963  -3.706  0.00  0.00    -0.040 A 
ATOM      9  C   LIG    1        6.660  -3.884  -4.529  0.00  0.00    +0.049 A 
ATOM     10  C   LIG    1        6.156  -4.206  -5.786  0.00  0.00    +0.117 A 
ATOM     11  C   LIG    1        4.982  -3.608  -6.234  0.00  0.00    +0.046 A 
ATOM     12  C   LIG    1        4.315  -2.695  -5.420  0.00  0.00    +0.008 A 
ATOM     13  C   LIG    1        4.805  -2.363  -4.148  0.00  0.00    -0.041 A 
ATOM     14  C   LIG    1        4.096  -1.394  -3.189  0.00  0.00    +0.023 C 
ATOM     15  C   LIG    1        2.702  -0.853  -3.644  0.00  0.00    +0.009 C 
ATOM     16  C   LIG    1        1.990  -0.024  -2.540  0.00  0.00    +0.010 C 
ATOM     17  C   LIG    1        1.880  -0.815  -1.208  0.00  0.00    -0.000 C 
ATOM     18  C   LIG    1        0.978  -2.078  -1.387  0.00  0.00    +0.014 C 
ENDROOT
BRANCH   1  19
ATOM     19  O   LIG    1        0.036   0.336   0.087  0.00  0.00    -0.389 OA
ATOM     20  H   LIG    1       -0.148   1.029  -0.551  0.00  0.00    +0.210 HD
ENDBRANCH   1  19
BRANCH  10  21
ATOM     21  O   LIG    1        6.817  -5.104  -6.582  0.00  0.00    -0.507 OA
ATOM     22  H   LIG    1        6.384  -5.244  -7.427  0.00  0.00    +0.292 HD
ENDBRANCH  10  21
BRANCH   2  23
ATOM     23  O   LIG    1        2.087  -0.006   2.416  0.00  0.00    -0.389 OA
ATOM     24  H   LIG    1        2.185  -0.606   3.159  0.00  0.00    +0.210 HD
ENDBRANCH   2  23
TORSDOF 3
