REMARK  Name = DB04856
REMARK                            x       y       z     vdW  Elec       q    Type
REMARK                         _______ _______ _______ _____ _____    ______ ____
ROOT
ATOM      1  C   LIG    1        0.025  -0.238  -0.247  0.00  0.00    +0.160 C 
ENDROOT
BRANCH   1   3
ATOM      2  C   LIG    1       -0.292  -1.903   1.639  0.00  0.00    +0.245 C 
ATOM      3  N   LIG    1       -0.561  -0.741   1.007  0.00  0.00    -0.300 N 
ATOM      4  H   LIG    1       -1.249  -0.130   1.421  0.00  0.00    +0.150 HD
ATOM      5  O   LIG    1        0.509  -2.736   1.211  0.00  0.00    -0.270 OA
BRANCH   2  11
ATOM      6 CL   LIG    1       -1.890  -5.348   5.211  0.00  0.00    -0.082 Cl
ATOM      7  C   LIG    1       -1.826  -3.721   4.624  0.00  0.00    +0.060 A 
ATOM      8  C   LIG    1       -2.451  -2.674   5.313  0.00  0.00    +0.059 A 
ATOM      9  C   LIG    1       -2.376  -1.376   4.809  0.00  0.00    +0.022 A 
ATOM     10  C   LIG    1       -1.685  -1.118   3.626  0.00  0.00    +0.014 A 
ATOM     11  C   LIG    1       -1.055  -2.158   2.921  0.00  0.00    +0.038 A 
ATOM     12 CL   LIG    1       -3.316  -2.952   6.784  0.00  0.00    -0.082 Cl
ATOM     13  C   LIG    1       -1.135  -3.459   3.440  0.00  0.00    +0.034 A 
ENDBRANCH   2  11
ENDBRANCH   1   3
BRANCH   1  14
ATOM     14  C   LIG    1        1.567  -0.057  -0.141  0.00  0.00    +0.236 C 
ATOM     15  N   LIG    1        2.075   0.967   0.602  0.00  0.00    -0.300 N 
ATOM     16  O   LIG    1        2.285  -0.878  -0.720  0.00  0.00    -0.274 OA
BRANCH  15  17
ATOM     17  C   LIG    1        3.530   1.163   0.727  0.00  0.00    +0.110 C 
BRANCH  17  18
ATOM     18  C   LIG    1        4.216   1.728  -0.536  0.00  0.00    +0.047 C 
BRANCH  18  19
ATOM     19  C   LIG    1        5.727   1.933  -0.352  0.00  0.00    +0.161 C 
BRANCH  19  20
ATOM     20  O   LIG    1        6.351   0.683  -0.094  0.00  0.00    -0.383 OA
ATOM     21  C   LIG    1        7.754   0.778   0.092  0.00  0.00    +0.193 C 
ENDBRANCH  19  20
ENDBRANCH  18  19
ENDBRANCH  17  18
ENDBRANCH  15  17
BRANCH  15  22
ATOM     22  C   LIG    1        1.260   2.006   1.251  0.00  0.00    +0.108 C 
BRANCH  22  23
ATOM     23  C   LIG    1        0.979   3.229   0.358  0.00  0.00    +0.019 C 
BRANCH  23  24
ATOM     24  C   LIG    1        0.047   4.247   1.039  0.00  0.00    +0.001 C 
BRANCH  24  25
ATOM     25  C   LIG    1       -0.326   5.454   0.157  0.00  0.00    -0.003 C 
ATOM     26  C   LIG    1        0.858   6.366  -0.200  0.00  0.00    +0.004 C 
ENDBRANCH  24  25
ENDBRANCH  23  24
ENDBRANCH  22  23
ENDBRANCH  15  22
ENDBRANCH   1  14
BRANCH   1  27
ATOM     27  C   LIG    1       -0.426  -1.101  -1.462  0.00  0.00    +0.043 C 
BRANCH  27  28
ATOM     28  C   LIG    1       -1.963  -1.178  -1.642  0.00  0.00    +0.123 C 
BRANCH  28  29
ATOM     29  C   LIG    1       -2.458  -1.982  -2.858  0.00  0.00    +0.305 C 
ATOM     30  O   LIG    1       -3.698  -2.049  -3.006  0.00  0.00    -0.251 OA
BRANCH  29  31
ATOM     31  O   LIG    1       -1.623  -2.518  -3.621  0.00  0.00    -0.481 OA
ATOM     32  H   LIG    1       -1.575  -2.257  -4.520  0.00  0.00    +0.295 HD
ENDBRANCH  29  31
ENDBRANCH  28  29
ENDBRANCH  27  28
ENDBRANCH   1  27
TORSDOF 15
