REMARK  Name = DB04886
REMARK                            x       y       z     vdW  Elec       q    Type
REMARK                         _______ _______ _______ _____ _____    ______ ____
ROOT
ATOM      1  O   LIG    1       -2.874   4.826   0.143  0.00  0.00    -0.488 OA
ATOM      2  C   LIG    1       -2.222   3.604   0.217  0.00  0.00    +0.141 A 
ATOM      3  C   LIG    1       -0.841   3.663   0.421  0.00  0.00    +0.059 A 
ATOM      4  C   LIG    1       -0.125   4.935   0.609  0.00  0.00    +0.015 C 
ATOM      5  C   LIG    1        1.208   4.995   0.479  0.00  0.00    +0.020 C 
ATOM      6  C   LIG    1        1.980   3.743   0.062  0.00  0.00    +0.124 C 
ATOM      7  C   LIG    1        2.034   3.650  -1.480  0.00  0.00    +0.060 C 
ATOM      8  C   LIG    1        3.362   3.755   0.737  0.00  0.00    +0.060 C 
ATOM      9  O   LIG    1        1.296   2.580   0.588  0.00  0.00    -0.481 OA
ATOM     10  C   LIG    1       -0.073   2.489   0.366  0.00  0.00    +0.143 A 
ATOM     11  C   LIG    1       -0.675   1.236   0.139  0.00  0.00    +0.064 A 
ATOM     12  C   LIG    1        0.034  -0.084   0.068  0.00  0.00    -0.026 A 
ATOM     13  C   LIG    1       -0.689  -1.209  -0.143  0.00  0.00    +0.096 A 
ATOM     14  C   LIG    1       -2.140  -1.204  -0.307  0.00  0.00    +0.337 A 
ATOM     15  O   LIG    1       -2.868  -2.175  -0.499  0.00  0.00    -0.245 OA
ATOM     16  O   LIG    1       -2.763   0.018  -0.238  0.00  0.00    -0.422 OA
ATOM     17  C   LIG    1       -2.075   1.210  -0.041  0.00  0.00    +0.152 A 
ATOM     18  C   LIG    1       -2.863   2.374  -0.025  0.00  0.00    +0.067 A 
ATOM     19  C   LIG    1       -4.393   2.323  -0.105  0.00  0.00    +0.158 C 
ATOM     20  C   LIG    1       -4.966   3.699  -0.520  0.00  0.00    +0.060 C 
ATOM     21  C   LIG    1       -4.845   3.939  -2.041  0.00  0.00    +0.014 C 
ATOM     22  C   LIG    1       -4.296   4.835   0.297  0.00  0.00    +0.176 C 
ATOM     23  C   LIG    1       -4.676   4.880   1.790  0.00  0.00    +0.052 C 
ENDROOT
BRANCH  19  24
ATOM     24  O   LIG    1       -4.981   1.863   1.097  0.00  0.00    -0.387 OA
ATOM     25  H   LIG    1       -4.776   0.930   1.196  0.00  0.00    +0.210 HD
ENDBRANCH  19  24
BRANCH  12  26
ATOM     26  C   LIG    1        1.562  -0.131   0.231  0.00  0.00    +0.036 C 
BRANCH  26  27
ATOM     27  C   LIG    1        2.266  -1.500   0.113  0.00  0.00    +0.001 C 
ATOM     28  C   LIG    1        3.789  -1.398   0.274  0.00  0.00    +0.004 C 
ENDBRANCH  26  27
ENDBRANCH  12  26
TORSDOF 3
