REMARK  Name = DB04844
REMARK                            x       y       z     vdW  Elec       q    Type
REMARK                         _______ _______ _______ _____ _____    ______ ____
ROOT
ATOM      1  O   LIG    1        0.151  -1.477   1.919  0.00  0.00    -0.297 OA
ATOM      2  C   LIG    1       -0.544  -0.798   1.162  0.00  0.00    +0.139 C 
ATOM      3  C   LIG    1       -2.043  -0.611   1.402  0.00  0.00    +0.098 C 
ATOM      4  C   LIG    1       -2.469   0.880   1.362  0.00  0.00    +0.094 C 
ATOM      5  C   LIG    1       -3.956   1.091   1.727  0.00  0.00    -0.023 A 
ATOM      6  C   LIG    1       -4.540   0.426   2.814  0.00  0.00    +0.054 A 
ATOM      7  C   LIG    1       -5.867   0.655   3.209  0.00  0.00    +0.162 A 
ATOM      8  C   LIG    1       -6.633   1.593   2.511  0.00  0.00    +0.162 A 
ATOM      9  C   LIG    1       -6.053   2.276   1.432  0.00  0.00    +0.053 A 
ATOM     10  C   LIG    1       -4.736   2.037   1.033  0.00  0.00    -0.038 A 
ATOM     11  C   LIG    1       -4.149   2.782  -0.160  0.00  0.00    +0.051 C 
ATOM     12  C   LIG    1       -2.612   2.800  -0.132  0.00  0.00    +0.089 C 
ATOM     13  N   LIG    1       -2.099   1.442   0.047  0.00  0.00    -0.294 NA
ATOM     14  C   LIG    1       -0.663   1.363  -0.250  0.00  0.00    +0.096 C 
ATOM     15  C   LIG    1        0.004  -0.030  -0.061  0.00  0.00    +0.070 C 
ENDROOT
BRANCH   8  16
ATOM     16  O   LIG    1       -7.934   1.793   2.937  0.00  0.00    -0.491 OA
ATOM     17  C   LIG    1       -8.756   2.740   2.262  0.00  0.00    +0.277 C 
ENDBRANCH   8  16
BRANCH   7  18
ATOM     18  O   LIG    1       -6.477   0.007   4.269  0.00  0.00    -0.491 OA
ATOM     19  C   LIG    1       -5.755  -0.978   5.001  0.00  0.00    +0.277 C 
ENDBRANCH   7  18
BRANCH  15  20
ATOM     20  C   LIG    1        1.558   0.059  -0.015  0.00  0.00    +0.015 C 
BRANCH  20  21
ATOM     21  C   LIG    1        2.234   0.666  -1.271  0.00  0.00    -0.016 C 
ATOM     22  C   LIG    1        3.753   0.811  -1.063  0.00  0.00    +0.007 C 
ATOM     23  C   LIG    1        1.935  -0.132  -2.555  0.00  0.00    +0.007 C 
ENDBRANCH  20  21
ENDBRANCH  15  20
TORSDOF 4
