REMARK  Name = DB04038
REMARK                            x       y       z     vdW  Elec       q    Type
REMARK                         _______ _______ _______ _____ _____    ______ ____
ROOT
ATOM      1  C   LIG    1        2.175  -1.191   0.351  0.00  0.00    +0.002 C 
ATOM      2  C   LIG    1        3.739  -1.244   0.281  0.00  0.00    -0.022 C 
ATOM      3  C   LIG    1        3.924  -2.443  -0.677  0.00  0.00    +0.021 C 
ATOM      4  C   LIG    1        5.403  -2.714  -0.989  0.00  0.00    -0.062 C 
ATOM      5  C   LIG    1        6.329  -2.862   0.249  0.00  0.00    +0.025 C 
ATOM      6  C   LIG    1        7.899  -2.943  -0.077  0.00  0.00    -0.004 C 
ATOM      7  C   LIG    1        8.187  -3.385  -1.542  0.00  0.00    -0.061 C 
ATOM      8  C   LIG    1        9.623  -3.806  -1.876  0.00  0.00    +0.062 C 
ATOM      9  C   LIG    1       10.150  -4.847  -0.870  0.00  0.00    +0.119 C 
ATOM     10  C   LIG    1       10.000  -4.369   0.582  0.00  0.00    +0.032 C 
ATOM     11  C   LIG    1        7.231  -3.338  -2.487  0.00  0.00    -0.000 C 
ATOM     12  C   LIG    1        8.540  -3.990   0.889  0.00  0.00    +0.014 C 
ATOM     13  C   LIG    1        8.595  -1.563   0.104  0.00  0.00    +0.016 C 
ATOM     14  C   LIG    1        5.947  -1.861   1.394  0.00  0.00    +0.009 C 
ATOM     15  C   LIG    1        5.875  -2.934  -2.227  0.00  0.00    -0.000 C 
ATOM     16  C   LIG    1        2.911  -2.213  -1.800  0.00  0.00    +0.009 C 
ATOM     17  C   LIG    1        4.431  -1.672   1.602  0.00  0.00    +0.008 C 
ATOM     18  C   LIG    1        4.324   0.085  -0.293  0.00  0.00    +0.012 C 
ATOM     19  C   LIG    1        1.710  -1.581  -1.082  0.00  0.00    +0.005 C 
ENDROOT
BRANCH   1  20
ATOM     20  C   LIG    1        1.495   0.116   0.877  0.00  0.00    +0.012 C 
ATOM     21  C   LIG    1        1.930   0.513   2.301  0.00  0.00    +0.012 C 
BRANCH  20  23
ATOM     22  C   LIG    1       -0.822   0.808   0.084  0.00  0.00    -0.027 C 
ATOM     23  C   LIG    1       -0.023   0.013   0.819  0.00  0.00    -0.027 C 
BRANCH  22  24
ATOM     24  C   LIG    1       -2.341   0.706   0.027  0.00  0.00    +0.011 C 
ATOM     25  C   LIG    1       -2.780   0.298  -1.395  0.00  0.00    +0.012 C 
BRANCH  24  27
ATOM     26  C   LIG    1       -2.591   2.397   1.962  0.00  0.00    +0.008 C 
ATOM     27  C   LIG    1       -3.044   2.002   0.538  0.00  0.00    -0.011 C 
ATOM     28  C   LIG    1       -4.585   1.914   0.498  0.00  0.00    +0.008 C 
ENDBRANCH  24  27
ENDBRANCH  22  24
ENDBRANCH  20  23
ENDBRANCH   1  20
BRANCH   9  29
ATOM     29  O   LIG    1       11.493  -5.183  -1.150  0.00  0.00    -0.391 OA
ATOM     30  H   LIG    1       11.546  -6.130  -1.298  0.00  0.00    +0.210 HD
ENDBRANCH   9  29
TORSDOF 5
