REMARK  Name = DB04857
REMARK                            x       y       z     vdW  Elec       q    Type
REMARK                         _______ _______ _______ _____ _____    ______ ____
ROOT
ATOM      1  C   LIG    1       -0.646  -0.696   1.421  0.00  0.00    +0.024 C 
ATOM      2  C   LIG    1       -2.147  -1.015   1.148  0.00  0.00    -0.007 C 
ATOM      3  C   LIG    1       -2.401  -1.593  -0.271  0.00  0.00    -0.068 C 
ATOM      4  C   LIG    1       -1.557  -2.838  -0.606  0.00  0.00    -0.017 C 
ATOM      5  C   LIG    1       -0.239  -2.303  -1.189  0.00  0.00    -0.016 C 
ATOM      6  C   LIG    1       -0.359  -0.759  -1.161  0.00  0.00    -0.060 C 
ATOM      7  N   LIG    1       -1.882  -0.543  -1.273  0.00  0.00    +0.382 N 
ATOM      8  H   LIG    1       -2.107   0.379  -0.926  0.00  0.00    -0.081 HD
ATOM      9  C   LIG    1       -2.455  -0.669  -2.700  0.00  0.00    -0.095 C 
ATOM     10  C   LIG    1        0.065  -0.069   0.174  0.00  0.00    +0.027 C 
ENDROOT
BRANCH   1  16
ATOM     11 CL   LIG    1        1.252  -0.517   6.299  0.00  0.00    -0.082 Cl
ATOM     12  C   LIG    1        0.413   0.237   4.988  0.00  0.00    +0.060 A 
ATOM     13  C   LIG    1       -0.075   1.547   5.093  0.00  0.00    +0.059 A 
ATOM     14  C   LIG    1       -0.746   2.123   4.014  0.00  0.00    +0.022 A 
ATOM     15  C   LIG    1       -0.932   1.402   2.835  0.00  0.00    +0.005 A 
ATOM     16  C   LIG    1       -0.449   0.093   2.720  0.00  0.00    -0.042 A 
ATOM     17 CL   LIG    1        0.136   2.474   6.538  0.00  0.00    -0.082 Cl
ATOM     18  C   LIG    1        0.224  -0.481   3.806  0.00  0.00    +0.025 A 
ENDBRANCH   1  16
BRANCH  10  19
ATOM     19  C   LIG    1        1.590  -0.110   0.307  0.00  0.00    +0.128 C 
ATOM     20  N   LIG    1        2.301   0.938   0.303  0.00  0.00    -0.098 NA
BRANCH  20  21
ATOM     21  O   LIG    1        3.649   0.576   0.454  0.00  0.00    -0.397 OA
ATOM     22  C   LIG    1        4.440   1.753   0.483  0.00  0.00    +0.313 C 
ENDBRANCH  20  21
ENDBRANCH  10  19
TORSDOF 3
