REMARK  Name = DB04253
REMARK                            x       y       z     vdW  Elec       q    Type
REMARK                         _______ _______ _______ _____ _____    ______ ____
ROOT
ATOM      1  C   LIG    1       -0.535  -1.344   0.099  0.00  0.00    +0.067 A 
ATOM      2  C   LIG    1       -1.932  -1.343   0.136  0.00  0.00    +0.145 A 
ATOM      3  C   LIG    1       -2.621  -0.117   0.070  0.00  0.00    +0.061 A 
ATOM      4  C   LIG    1       -1.884   1.065  -0.077  0.00  0.00    +0.040 A 
ATOM      5  C   LIG    1       -0.480   1.074  -0.121  0.00  0.00    +0.068 A 
ATOM      6  C   LIG    1        0.199  -0.163  -0.035  0.00  0.00    +0.136 A 
ENDROOT
BRANCH   5   7
ATOM      7  C   LIG    1        0.255   2.399  -0.218  0.00  0.00    +0.244 C 
ATOM      8  O   LIG    1        1.368   2.564   0.278  0.00  0.00    -0.270 OA
ATOM      9  N   LIG    1       -0.361   3.387  -0.878  0.00  0.00    -0.325 N 
ATOM     10  H   LIG    1        0.087   4.287  -0.973  0.00  0.00    +0.145 HD
ATOM     11  H   LIG    1       -1.268   3.236  -1.295  0.00  0.00    +0.145 HD
ENDBRANCH   5   7
BRANCH   3  12
ATOM     12  N   LIG    1       -4.024  -0.056   0.114  0.00  0.00    -0.325 N 
ATOM     13  C   LIG    1       -4.826  -0.417   1.266  0.00  0.00    +0.124 C 
ATOM     14  C   LIG    1       -4.813   0.998   0.726  0.00  0.00    +0.124 C 
ENDBRANCH   3  12
BRANCH   2  15
ATOM     15  N   LIG    1       -2.636  -2.638   0.246  0.00  0.00    +0.008 N 
ATOM     16  O   LIG    1       -2.241  -3.433   1.093  0.00  0.00    -0.130 OA
BRANCH  15  17
ATOM     17  O   LIG    1       -3.561  -2.868  -0.528  0.00  0.00    -0.396 OA
ATOM     18  H   LIG    1       -3.819  -2.221  -1.155  0.00  0.00    +0.329 HD
ENDBRANCH  15  17
ENDBRANCH   2  15
BRANCH   6  19
ATOM     19  N   LIG    1        1.668  -0.280  -0.117  0.00  0.00    +0.007 N 
ATOM     20  O   LIG    1        2.220   0.105  -1.143  0.00  0.00    -0.130 OA
BRANCH  19  21
ATOM     21  O   LIG    1        2.252  -0.790   0.833  0.00  0.00    -0.396 OA
ATOM     22  H   LIG    1        1.769  -1.063   1.588  0.00  0.00    +0.329 HD
ENDBRANCH  19  21
ENDBRANCH   6  19
TORSDOF 6
