REMARK  Name = DB04890
REMARK                            x       y       z     vdW  Elec       q    Type
REMARK                         _______ _______ _______ _____ _____    ______ ____
ROOT
ATOM      1  C   LIG    1       -0.744   1.148  -0.126  0.00  0.00    +0.197 C 
ENDROOT
BRANCH   1   6
ATOM      2 CL   LIG    1       -6.667   0.592   0.950  0.00  0.00    -0.084 Cl
ATOM      3  C   LIG    1       -4.976   0.743   0.637  0.00  0.00    +0.041 A 
ATOM      4  C   LIG    1       -4.323  -0.229  -0.119  0.00  0.00    +0.020 A 
ATOM      5  C   LIG    1       -2.959  -0.107  -0.372  0.00  0.00    +0.008 A 
ATOM      6  C   LIG    1       -2.246   0.991   0.126  0.00  0.00    -0.013 A 
ATOM      7  C   LIG    1       -2.911   1.957   0.889  0.00  0.00    +0.008 A 
ATOM      8  C   LIG    1       -4.274   1.835   1.142  0.00  0.00    +0.020 A 
ENDBRANCH   1   6
BRANCH   1   9
ATOM      9  C   LIG    1       -0.444   2.212  -1.185  0.00  0.00    +0.074 A 
ATOM     10  C   LIG    1        0.186   3.414  -0.841  0.00  0.00    +0.026 A 
ATOM     11  C   LIG    1        0.446   4.344  -1.849  0.00  0.00    +0.003 A 
ATOM     12  C   LIG    1        0.074   4.057  -3.164  0.00  0.00    +0.020 A 
ATOM     13  C   LIG    1       -0.550   2.837  -3.428  0.00  0.00    +0.111 A 
ATOM     14  N   LIG    1       -0.811   1.918  -2.463  0.00  0.00    -0.257 NA
ENDBRANCH   1   9
BRANCH   1  15
ATOM     15  O   LIG    1       -0.167  -0.115  -0.487  0.00  0.00    -0.363 OA
BRANCH  15  16
ATOM     16  C   LIG    1        1.256  -0.205  -0.579  0.00  0.00    +0.122 C 
ATOM     17  C   LIG    1        1.967  -0.133   0.786  0.00  0.00    +0.047 C 
ATOM     18  C   LIG    1        3.493  -0.304   0.621  0.00  0.00    +0.087 C 
ATOM     19  N   LIG    1        3.843  -1.547  -0.086  0.00  0.00    -0.302 NA
ATOM     20  C   LIG    1        3.164  -1.666  -1.388  0.00  0.00    +0.087 C 
ATOM     21  C   LIG    1        1.632  -1.532  -1.254  0.00  0.00    +0.047 C 
BRANCH  19  22
ATOM     22  C   LIG    1        5.299  -1.706  -0.199  0.00  0.00    +0.085 C 
BRANCH  22  23
ATOM     23  C   LIG    1        5.766  -3.139   0.136  0.00  0.00    +0.026 C 
BRANCH  23  24
ATOM     24  C   LIG    1        5.242  -4.255  -0.798  0.00  0.00    +0.121 C 
BRANCH  24  25
ATOM     25  C   LIG    1        5.906  -5.621  -0.579  0.00  0.00    +0.305 C 
ATOM     26  O   LIG    1        6.744  -5.853   0.291  0.00  0.00    -0.251 OA
BRANCH  25  27
ATOM     27  O   LIG    1        5.442  -6.541  -1.472  0.00  0.00    -0.481 OA
ATOM     28  H   LIG    1        5.846  -7.403  -1.350  0.00  0.00    +0.295 HD
ENDBRANCH  25  27
ENDBRANCH  24  25
ENDBRANCH  23  24
ENDBRANCH  22  23
ENDBRANCH  19  22
ENDBRANCH  15  16
ENDBRANCH   1  15
TORSDOF 9
