REMARK  Name = DB04961
REMARK                            x       y       z     vdW  Elec       q    Type
REMARK                         _______ _______ _______ _____ _____    ______ ____
ROOT
ATOM      1  N   LIG    1       -0.039   0.053  -0.074  0.00  0.00    -0.270 N 
ATOM      2  C   LIG    1       -0.812  -1.088  -0.050  0.00  0.00    +0.096 A 
ATOM      3  C   LIG    1       -2.151  -1.051   0.009  0.00  0.00    +0.061 A 
ATOM      4  C   LIG    1       -2.764   0.244   0.046  0.00  0.00    +0.123 A 
ATOM      5  N   LIG    1       -2.054   1.319   0.025  0.00  0.00    -0.178 NA
ATOM      6  C   LIG    1       -0.641   1.305  -0.022  0.00  0.00    +0.352 A 
ATOM      7  O   LIG    1        0.065   2.315  -0.015  0.00  0.00    -0.244 OA
ENDROOT
BRANCH   1   8
ATOM      8  C   LIG    1        1.423  -0.023  -0.143  0.00  0.00    +0.252 C 
ATOM      9  C   LIG    1        2.111   0.554  -1.379  0.00  0.00    +0.217 C 
ATOM     10  O   LIG    1        3.088  -0.418  -1.706  0.00  0.00    -0.345 OA
ATOM     11  C   LIG    1        3.205  -1.252  -0.608  0.00  0.00    +0.278 C 
ATOM     12  O   LIG    1        1.911  -1.321  -0.119  0.00  0.00    -0.323 OA
BRANCH  11  13
ATOM     13  C   LIG    1        3.671  -2.630  -1.056  0.00  0.00    +0.217 C 
BRANCH  13  14
ATOM     14  O   LIG    1        3.878  -3.479   0.054  0.00  0.00    -0.390 OA
ATOM     15  H   LIG    1        4.174  -4.334  -0.266  0.00  0.00    +0.210 HD
ENDBRANCH  13  14
ENDBRANCH  11  13
ENDBRANCH   1   8
BRANCH   4  16
ATOM     16  N   LIG    1       -4.102   0.298   0.101  0.00  0.00    -0.343 N 
ATOM     17  H   LIG    1       -4.575   1.190   0.127  0.00  0.00    +0.144 HD
ATOM     18  H   LIG    1       -4.651  -0.549   0.117  0.00  0.00    +0.144 HD
ENDBRANCH   4  16
TORSDOF 4
