REMARK  Name = DB04864
REMARK                            x       y       z     vdW  Elec       q    Type
REMARK                         _______ _______ _______ _____ _____    ______ ____
ROOT
ATOM      1  C   LIG    1        4.984  -3.755   3.427  0.00  0.00    +0.249 A 
ATOM      2  C   LIG    1        5.908  -2.844   2.769  0.00  0.00    +0.070 A 
ATOM      3  C   LIG    1        5.540  -2.063   1.728  0.00  0.00    +0.013 A 
ATOM      4  C   LIG    1        4.173  -2.098   1.195  0.00  0.00    -0.004 A 
ATOM      5  C   LIG    1        3.722  -1.200   0.010  0.00  0.00    +0.069 C 
ATOM      6  C   LIG    1        4.176  -1.851  -1.333  0.00  0.00    +0.061 C 
ATOM      7  C   LIG    1        3.376  -3.099  -1.708  0.00  0.00    -0.074 C 
ATOM      8  C   LIG    1        3.912  -3.941  -2.851  0.00  0.00    +0.039 C 
ATOM      9  C   LIG    1        2.201  -3.379  -1.104  0.00  0.00    -0.020 C 
ATOM     10  C   LIG    1        1.572  -2.551   0.019  0.00  0.00    +0.045 C 
ATOM     11  C   LIG    1        1.876  -3.168   1.403  0.00  0.00    +0.065 C 
ATOM     12  C   LIG    1        2.171  -1.136  -0.005  0.00  0.00    -0.042 C 
ATOM     13  C   LIG    1        1.437   0.004  -0.047  0.00  0.00    -0.028 C 
ATOM     14  C   LIG    1       -0.075   0.143  -0.036  0.00  0.00    +0.035 C 
ATOM     15  C   LIG    1        3.339  -2.987   1.816  0.00  0.00    +0.025 A 
ATOM     16  N   LIG    1        3.736  -3.763   2.882  0.00  0.00    -0.326 N 
ATOM     17  H   LIG    1        3.080  -4.394   3.318  0.00  0.00    +0.169 HD
ATOM     18  O   LIG    1        5.285  -4.456   4.390  0.00  0.00    -0.268 OA
ENDROOT
BRANCH   5  19
ATOM     19  N   LIG    1        4.330   0.119   0.142  0.00  0.00    -0.317 NA
ATOM     20  H   LIG    1        3.959   0.582   0.959  0.00  0.00    +0.119 HD
ATOM     21  H   LIG    1        4.084   0.686  -0.657  0.00  0.00    +0.119 HD
ENDBRANCH   5  19
TORSDOF 1
