REMARK  Name = DB04398
REMARK                            x       y       z     vdW  Elec       q    Type
REMARK                         _______ _______ _______ _____ _____    ______ ____
ROOT
ATOM      1  C   LIG    1       -0.007   0.038   0.037  0.00  0.00    +0.049 C 
ATOM      2  C   LIG    1        1.531  -0.037  -0.009  0.00  0.00    +0.219 C 
ENDROOT
BRANCH   2   3
ATOM      3  O   LIG    1        1.910  -1.401  -0.067  0.00  0.00    -0.381 OA
ATOM      4  H   LIG    1        2.869  -1.453  -0.037  0.00  0.00    +0.210 HD
ENDBRANCH   2   3
BRANCH   2   5
ATOM      5  C   LIG    1        2.117   0.719  -1.219  0.00  0.00    +0.333 C 
ATOM      6  O   LIG    1        2.696   0.182  -2.164  0.00  0.00    -0.248 OA
BRANCH   5   7
ATOM      7  O   LIG    1        1.925   2.065  -1.101  0.00  0.00    -0.479 OA
ATOM      8  H   LIG    1        2.287   2.551  -1.845  0.00  0.00    +0.295 HD
ENDBRANCH   5   7
ENDBRANCH   2   5
TORSDOF 3
