REMARK  Name = DB04953
REMARK                            x       y       z     vdW  Elec       q    Type
REMARK                         _______ _______ _______ _____ _____    ______ ____
ROOT
ATOM      1  C   LIG    1        1.420  -0.005   0.085  0.00  0.00    +0.029 A 
ATOM      2  C   LIG    1        2.069  -1.240   0.115  0.00  0.00    +0.025 A 
ATOM      3  C   LIG    1        3.461  -1.312   0.113  0.00  0.00    +0.027 A 
ATOM      4  C   LIG    1        4.236  -0.143   0.071  0.00  0.00    +0.057 A 
ATOM      5  C   LIG    1        3.586   1.105   0.057  0.00  0.00    +0.048 A 
ATOM      6  C   LIG    1        2.190   1.166   0.062  0.00  0.00    +0.047 A 
ENDROOT
BRANCH   4   7
ATOM      7  N   LIG    1        5.644  -0.189   0.083  0.00  0.00    -0.249 N 
ATOM      8  H   LIG    1        6.105   0.628   0.457  0.00  0.00    +0.158 HD
ATOM      9  C   LIG    1        6.473  -1.168  -0.456  0.00  0.00    +0.405 C 
ATOM     10  O   LIG    1        6.122  -2.186  -1.057  0.00  0.00    -0.226 OA
BRANCH   9  11
ATOM     11  O   LIG    1        7.755  -0.815  -0.232  0.00  0.00    -0.450 OA
BRANCH  11  12
ATOM     12  C   LIG    1        8.826  -1.632  -0.687  0.00  0.00    +0.230 C 
ATOM     13  C   LIG    1       10.161  -0.976  -0.320  0.00  0.00    +0.048 C 
ENDBRANCH  11  12
ENDBRANCH   9  11
ENDBRANCH   4   7
BRANCH   5  14
ATOM     14  N   LIG    1        4.296   2.311   0.034  0.00  0.00    -0.356 N 
ATOM     15  H   LIG    1        5.158   2.304  -0.492  0.00  0.00    +0.142 HD
ATOM     16  H   LIG    1        3.736   3.151   0.015  0.00  0.00    +0.142 HD
ENDBRANCH   5  14
BRANCH   1  17
ATOM     17  N   LIG    1        0.014  -0.004   0.083  0.00  0.00    -0.340 N 
ATOM     18  H   LIG    1       -0.441  -0.868  -0.173  0.00  0.00    +0.146 HD
BRANCH  17  19
ATOM     19  C   LIG    1       -0.742   1.227  -0.133  0.00  0.00    +0.137 C 
BRANCH  19  24
ATOM     20  F   LIG    1       -6.341   0.433   0.127  0.00  0.00    -0.205 F 
ATOM     21  C   LIG    1       -5.003   0.617   0.069  0.00  0.00    +0.123 A 
ATOM     22  C   LIG    1       -4.189   0.093   1.070  0.00  0.00    +0.038 A 
ATOM     23  C   LIG    1       -2.811   0.282   1.010  0.00  0.00    +0.008 A 
ATOM     24  C   LIG    1       -2.246   0.993  -0.056  0.00  0.00    -0.030 A 
ATOM     25  C   LIG    1       -3.071   1.523  -1.052  0.00  0.00    +0.008 A 
ATOM     26  C   LIG    1       -4.450   1.333  -0.991  0.00  0.00    +0.038 A 
ENDBRANCH  19  24
ENDBRANCH  17  19
ENDBRANCH   1  17
TORSDOF 7
