REMARK  Name = DB04946
REMARK                            x       y       z     vdW  Elec       q    Type
REMARK                         _______ _______ _______ _____ _____    ______ ____
ROOT
ATOM      1  C   LIG    1        5.680  -5.161  -0.369  0.00  0.00    +0.044 C 
ATOM      2  C   LIG    1        4.216  -5.006  -0.845  0.00  0.00    +0.025 C 
ATOM      3  C   LIG    1        3.787  -3.528  -0.961  0.00  0.00    +0.085 C 
ATOM      4  N   LIG    1        4.015  -2.782   0.286  0.00  0.00    -0.302 NA
ATOM      5  C   LIG    1        5.416  -2.854   0.720  0.00  0.00    +0.085 C 
ATOM      6  C   LIG    1        5.905  -4.308   0.896  0.00  0.00    +0.025 C 
ENDROOT
BRANCH   1  15
ATOM      7  F   LIG    1       10.922  -9.393   0.372  0.00  0.00    -0.205 F 
ATOM      8  C   LIG    1        9.813  -8.634   0.223  0.00  0.00    +0.127 A 
ATOM      9  C   LIG    1        9.937  -7.244   0.145  0.00  0.00    +0.039 A 
ATOM     10  C   LIG    1        8.819  -6.419  -0.010  0.00  0.00    +0.016 A 
ATOM     11  C   LIG    1        7.550  -7.017  -0.086  0.00  0.00    +0.045 A 
ATOM     12  C   LIG    1        7.454  -8.415  -0.005  0.00  0.00    +0.170 A 
ATOM     13  O   LIG    1        6.150  -8.791  -0.101  0.00  0.00    -0.354 OA
ATOM     14  N   LIG    1        5.379  -7.630  -0.245  0.00  0.00    -0.082 NA
ATOM     15  C   LIG    1        6.193  -6.591  -0.238  0.00  0.00    +0.094 A 
ATOM     16  C   LIG    1        8.564  -9.253   0.149  0.00  0.00    +0.088 A 
ENDBRANCH   1  15
BRANCH   4  17
ATOM     17  C   LIG    1        3.591  -1.380   0.196  0.00  0.00    +0.087 C 
BRANCH  17  18
ATOM     18  C   LIG    1        2.072  -1.208  -0.018  0.00  0.00    +0.056 C 
BRANCH  18  19
ATOM     19  C   LIG    1        1.600   0.233   0.222  0.00  0.00    +0.230 C 
BRANCH  19  20
ATOM     20  O   LIG    1        0.206   0.314  -0.062  0.00  0.00    -0.488 OA
BRANCH  20  21
ATOM     21  C   LIG    1       -0.451   1.525   0.070  0.00  0.00    +0.162 A 
ATOM     22  C   LIG    1        0.178   2.712   0.479  0.00  0.00    +0.050 A 
ATOM     23  C   LIG    1       -0.541   3.897   0.591  0.00  0.00    +0.015 A 
ATOM     24  C   LIG    1       -1.910   3.935   0.299  0.00  0.00    +0.021 A 
ATOM     25  C   LIG    1       -2.538   2.749  -0.109  0.00  0.00    +0.060 A 
ATOM     26  C   LIG    1       -1.821   1.544  -0.227  0.00  0.00    +0.162 A 
BRANCH  24  27
ATOM     27  C   LIG    1       -2.658   5.228   0.430  0.00  0.00    +0.160 C 
ATOM     28  C   LIG    1       -4.154   5.236   0.106  0.00  0.00    +0.091 C 
ATOM     29  O   LIG    1       -2.135   6.285   0.786  0.00  0.00    -0.292 OA
ENDBRANCH  24  27
BRANCH  26  30
ATOM     30  O   LIG    1       -2.392   0.348  -0.627  0.00  0.00    -0.491 OA
ATOM     31  C   LIG    1       -3.779   0.299  -0.944  0.00  0.00    +0.277 C 
ENDBRANCH  26  30
ENDBRANCH  20  21
ENDBRANCH  19  20
ENDBRANCH  18  19
ENDBRANCH  17  18
ENDBRANCH   4  17
TORSDOF 8
