REMARK  Name = DB04821
REMARK                            x       y       z     vdW  Elec       q    Type
REMARK                         _______ _______ _______ _____ _____    ______ ____
ROOT
ATOM      1  N   LIG    1       -0.040  -0.028   0.003  0.00  0.00    -0.300 NA
ATOM      2  C   LIG    1        1.409  -0.078   0.169  0.00  0.00    +0.105 C 
ATOM      3  C   LIG    1       -0.429  -0.625  -1.275  0.00  0.00    +0.121 C 
ATOM      4  C   LIG    1       -1.946  -0.622  -1.499  0.00  0.00    -0.009 A 
ATOM      5  C   LIG    1       -2.580  -1.568  -2.327  0.00  0.00    +0.029 A 
ATOM      6  C   LIG    1       -3.959  -1.530  -2.527  0.00  0.00    +0.023 A 
ATOM      7  C   LIG    1       -4.725  -0.550  -1.908  0.00  0.00    +0.002 A 
ATOM      8  C   LIG    1       -4.111   0.393  -1.093  0.00  0.00    +0.005 A 
ATOM      9  C   LIG    1       -2.725   0.385  -0.883  0.00  0.00    -0.033 A 
ATOM     10  C   LIG    1       -2.061   1.420   0.048  0.00  0.00    +0.063 C 
ATOM     11  C   LIG    1       -0.510   1.356   0.043  0.00  0.00    +0.097 C 
ENDROOT
BRANCH  10  12
ATOM     12  C   LIG    1       -2.545   2.856  -0.182  0.00  0.00    -0.039 A 
ATOM     13  C   LIG    1       -2.531   3.406  -1.469  0.00  0.00    +0.004 A 
ATOM     14  C   LIG    1       -2.968   4.712  -1.675  0.00  0.00    +0.000 A 
ATOM     15  C   LIG    1       -3.415   5.468  -0.594  0.00  0.00    +0.000 A 
ATOM     16  C   LIG    1       -3.428   4.931   0.691  0.00  0.00    +0.000 A 
ATOM     17  C   LIG    1       -2.993   3.625   0.897  0.00  0.00    +0.004 A 
ENDBRANCH  10  12
BRANCH   5  18
ATOM     18  N   LIG    1       -1.850  -2.568  -2.975  0.00  0.00    -0.358 N 
ATOM     19  H   LIG    1       -0.852  -2.626  -2.832  0.00  0.00    +0.142 HD
ATOM     20  H   LIG    1       -2.334  -3.246  -3.546  0.00  0.00    +0.142 HD
ENDBRANCH   5  18
TORSDOF 2
