REMARK  Name = DB05913
REMARK                            x       y       z     vdW  Elec       q    Type
REMARK                         _______ _______ _______ _____ _____    ______ ____
ROOT
ATOM      1  C   LIG    1       -0.969  -1.069  -0.146  0.00  0.00    +0.047 A 
ATOM      2  C   LIG    1       -2.290  -0.689  -0.439  0.00  0.00    +0.031 A 
ATOM      3  C   LIG    1       -2.435   0.678  -0.610  0.00  0.00    +0.048 A 
ATOM      4  S   LIG    1       -0.934   1.515  -0.405  0.00  0.00    -0.090 S 
ATOM      5  C   LIG    1       -0.070   0.017  -0.111  0.00  0.00    +0.095 A 
ENDROOT
BRANCH   5   6
ATOM      6  C   LIG    1        1.349   0.017   0.223  0.00  0.00    +0.257 C 
ATOM      7  N   LIG    1        2.015   1.149  -0.106  0.00  0.00    -0.281 N 
ATOM      8  H   LIG    1        1.459   1.899  -0.491  0.00  0.00    +0.155 HD
ATOM      9  O   LIG    1        1.865  -0.964   0.762  0.00  0.00    -0.269 OA
BRANCH   7  10
ATOM     10  C   LIG    1        3.378   1.457   0.059  0.00  0.00    +0.034 A 
ATOM     11  C   LIG    1        4.390   0.499   0.218  0.00  0.00    +0.027 A 
ATOM     12  C   LIG    1        5.714   0.905   0.361  0.00  0.00    +0.048 A 
ATOM     13  C   LIG    1        6.053   2.258   0.341  0.00  0.00    +0.130 A 
ATOM     14  C   LIG    1        5.039   3.212   0.170  0.00  0.00    +0.048 A 
ATOM     15  C   LIG    1        3.713   2.811   0.025  0.00  0.00    +0.027 A 
BRANCH  13  16
ATOM     16  O   LIG    1        7.395   2.555   0.491  0.00  0.00    -0.406 OA
BRANCH  16  17
ATOM     17  C   LIG    1        7.848   3.909   0.478  0.00  0.00    +0.575 C 
ATOM     18  F   LIG    1        7.330   4.612   1.487  0.00  0.00    -0.133 F 
ATOM     19  F   LIG    1        7.596   4.502  -0.691  0.00  0.00    -0.133 F 
ATOM     20  F   LIG    1        9.169   3.887   0.640  0.00  0.00    -0.133 F 
ENDBRANCH  16  17
ENDBRANCH  13  16
ENDBRANCH   7  10
ENDBRANCH   5   6
BRANCH   1  21
ATOM     21  N   LIG    1       -0.593  -2.376   0.069  0.00  0.00    -0.339 N 
ATOM     22  H   LIG    1        0.363  -2.549   0.345  0.00  0.00    +0.146 HD
BRANCH  21  23
ATOM     23  C   LIG    1       -1.460  -3.489   0.427  0.00  0.00    +0.137 C 
BRANCH  23  32
ATOM     24  C   LIG    1        1.905  -4.856   2.944  0.00  0.00    +0.001 A 
ATOM     25  C   LIG    1        0.841  -4.410   2.165  0.00  0.00    +0.010 A 
ATOM     26  C   LIG    1        0.351  -5.201   1.088  0.00  0.00    +0.005 A 
ATOM     27  C   LIG    1        0.974  -6.465   0.834  0.00  0.00    +0.071 A 
ATOM     28  N   LIG    1        0.564  -7.288  -0.171  0.00  0.00    -0.255 NA
ATOM     29  C   LIG    1       -0.469  -6.889  -0.950  0.00  0.00    +0.112 A 
ATOM     30  C   LIG    1       -1.136  -5.681  -0.783  0.00  0.00    +0.025 A 
ATOM     31  C   LIG    1        2.054  -6.888   1.646  0.00  0.00    +0.028 A 
ATOM     32  C   LIG    1       -0.733  -4.815   0.234  0.00  0.00    -0.020 A 
ATOM     33  C   LIG    1        2.507  -6.083   2.687  0.00  0.00    +0.002 A 
ENDBRANCH  23  32
ENDBRANCH  21  23
ENDBRANCH   1  21
TORSDOF 7
