REMARK  Name = DB05959
REMARK                            x       y       z     vdW  Elec       q    Type
REMARK                         _______ _______ _______ _____ _____    ______ ____
ROOT
ATOM      1  C   LIG    1       -4.311  -4.497   2.788  0.00  0.00    +0.016 C 
ATOM      2  C   LIG    1       -4.393  -4.862   1.279  0.00  0.00    -0.011 C 
ATOM      3  C   LIG    1       -5.425  -5.971   1.130  0.00  0.00    -0.024 C 
ATOM      4  C   LIG    1       -6.639  -5.457   0.833  0.00  0.00    -0.030 C 
ATOM      5  C   LIG    1       -6.559  -3.955   0.604  0.00  0.00    +0.031 C 
ATOM      6  C   LIG    1       -5.058  -3.803   0.389  0.00  0.00    +0.006 C 
ATOM      7  C   LIG    1       -4.353  -2.430   0.471  0.00  0.00    +0.001 C 
ATOM      8  C   LIG    1       -5.029  -1.329  -0.361  0.00  0.00    +0.009 C 
ATOM      9  C   LIG    1       -4.376   0.026  -0.056  0.00  0.00    +0.036 C 
ATOM     10  C   LIG    1       -2.846  -0.026  -0.116  0.00  0.00    -0.043 A 
ATOM     11  C   LIG    1       -2.133   1.172  -0.203  0.00  0.00    +0.020 A 
ATOM     12  C   LIG    1       -0.733   1.216  -0.185  0.00  0.00    +0.078 A 
ATOM     13  C   LIG    1       -0.017   0.011  -0.082  0.00  0.00    +0.132 A 
ATOM     14  C   LIG    1       -0.735  -1.194  -0.014  0.00  0.00    +0.050 A 
ATOM     15  C   LIG    1       -2.135  -1.247  -0.037  0.00  0.00    -0.037 A 
ATOM     16  C   LIG    1       -2.887  -2.598  -0.033  0.00  0.00    +0.023 C 
ATOM     17  C   LIG    1       -2.139  -3.805   0.625  0.00  0.00    +0.009 C 
ATOM     18  C   LIG    1       -2.980  -5.113   0.701  0.00  0.00    +0.011 C 
ENDROOT
BRANCH  12  19
ATOM     19  C   LIG    1       -0.023   2.549  -0.294  0.00  0.00    +0.245 C 
ATOM     20  N   LIG    1       -0.597   3.587   0.324  0.00  0.00    -0.325 N 
ATOM     21  H   LIG    1       -0.168   4.500   0.282  0.00  0.00    +0.145 HD
ATOM     22  H   LIG    1       -1.452   3.461   0.845  0.00  0.00    +0.145 HD
ATOM     23  O   LIG    1        1.029   2.675  -0.920  0.00  0.00    -0.270 OA
ENDBRANCH  12  19
BRANCH  13  24
ATOM     24  O   LIG    1        1.369   0.062  -0.044  0.00  0.00    -0.494 OA
ATOM     25  C   LIG    1        2.126  -1.138   0.068  0.00  0.00    +0.277 C 
ENDBRANCH  13  24
TORSDOF 2
