REMARK  Name = DB05399
REMARK                            x       y       z     vdW  Elec       q    Type
REMARK                         _______ _______ _______ _____ _____    ______ ____
ROOT
ATOM      1  C   LIG    1        0.004   1.998  -0.121  0.00  0.00    +0.010 A 
ATOM      2  C   LIG    1       -0.041   2.720  -1.302  0.00  0.00    +0.022 A 
ATOM      3  C   LIG    1       -0.188   4.116  -1.305  0.00  0.00    +0.002 A 
ATOM      4  C   LIG    1       -0.222   4.778  -0.043  0.00  0.00    +0.139 A 
ATOM      5  C   LIG    1       -0.318   4.035   1.171  0.00  0.00    +0.002 A 
ATOM      6  C   LIG    1       -0.156   2.644   1.092  0.00  0.00    +0.022 A 
ENDROOT
BRANCH   5   7
ATOM      7  C   LIG    1       -0.567   4.670   2.583  0.00  0.00    -0.009 C 
ATOM      8  C   LIG    1        0.781   4.999   3.264  0.00  0.00    +0.015 C 
ATOM      9  C   LIG    1       -1.458   5.946   2.539  0.00  0.00    +0.015 C 
ATOM     10  C   LIG    1       -1.335   3.692   3.525  0.00  0.00    +0.015 C 
ENDBRANCH   5   7
BRANCH   3  11
ATOM     11  C   LIG    1       -0.305   4.863  -2.679  0.00  0.00    -0.009 C 
ATOM     12  C   LIG    1       -1.439   5.925  -2.662  0.00  0.00    +0.015 C 
ATOM     13  C   LIG    1        1.039   5.524  -3.067  0.00  0.00    +0.015 C 
ATOM     14  C   LIG    1       -0.678   3.905  -3.851  0.00  0.00    +0.015 C 
ENDBRANCH   3  11
BRANCH   1  15
ATOM     15  S   LIG    1        0.233   0.248  -0.157  0.00  0.00    -0.108 S 
BRANCH  15  16
ATOM     16  C   LIG    1        2.033  -0.068  -0.121  0.00  0.00    +0.066 C 
ATOM     17  C   LIG    1        2.717   0.763   0.987  0.00  0.00    +0.035 C 
ATOM     18  C   LIG    1        2.648   0.330  -1.478  0.00  0.00    +0.035 C 
BRANCH  16  19
ATOM     19  S   LIG    1        2.349  -1.844   0.147  0.00  0.00    -0.108 S 
BRANCH  19  20
ATOM     20  C   LIG    1        1.587  -2.267   1.685  0.00  0.00    +0.010 A 
ATOM     21  C   LIG    1        0.287  -2.749   1.702  0.00  0.00    +0.022 A 
ATOM     22  C   LIG    1       -0.363  -3.065   2.906  0.00  0.00    +0.001 A 
ATOM     23  C   LIG    1        0.363  -2.882   4.111  0.00  0.00    +0.124 A 
ATOM     24  C   LIG    1        1.698  -2.400   4.114  0.00  0.00    +0.001 A 
ATOM     25  C   LIG    1        2.285  -2.106   2.873  0.00  0.00    +0.022 A 
BRANCH  24  26
ATOM     26  C   LIG    1        2.508  -2.185   5.436  0.00  0.00    -0.009 C 
ATOM     27  C   LIG    1        1.811  -1.134   6.340  0.00  0.00    +0.015 C 
ATOM     28  C   LIG    1        2.678  -3.525   6.200  0.00  0.00    +0.015 C 
ATOM     29  C   LIG    1        3.949  -1.649   5.193  0.00  0.00    +0.015 C 
ENDBRANCH  24  26
BRANCH  22  30
ATOM     30  C   LIG    1       -1.837  -3.588   2.887  0.00  0.00    -0.009 C 
ATOM     31  C   LIG    1       -1.922  -5.011   3.501  0.00  0.00    +0.015 C 
ATOM     32  C   LIG    1       -2.773  -2.615   3.651  0.00  0.00    +0.015 C 
ATOM     33  C   LIG    1       -2.428  -3.707   1.452  0.00  0.00    +0.015 C 
ENDBRANCH  22  30
BRANCH  23  34
ATOM     34  O   LIG    1       -0.240  -3.177   5.306  0.00  0.00    -0.506 OA
ATOM     35  H   LIG    1        0.336  -3.018   6.057  0.00  0.00    +0.292 HD
ENDBRANCH  23  34
ENDBRANCH  19  20
ENDBRANCH  16  19
ENDBRANCH  15  16
ENDBRANCH   1  15
BRANCH   4  36
ATOM     36  O   LIG    1       -0.151   6.154   0.005  0.00  0.00    -0.425 OA
BRANCH  36  37
ATOM     37  C   LIG    1        1.068   6.759   0.167  0.00  0.00    +0.313 C 
ATOM     38  O   LIG    1        2.163   6.192   0.194  0.00  0.00    -0.250 OA
BRANCH  37  39
ATOM     39  C   LIG    1        0.975   8.280   0.336  0.00  0.00    +0.132 C 
BRANCH  39  40
ATOM     40  C   LIG    1        0.051   8.975  -0.700  0.00  0.00    +0.131 C 
BRANCH  40  41
ATOM     41  C   LIG    1        0.048  10.520  -0.616  0.00  0.00    +0.305 C 
ATOM     42  O   LIG    1       -0.533  11.120  -1.549  0.00  0.00    -0.251 OA
BRANCH  41  43
ATOM     43  O   LIG    1        0.588  11.098   0.356  0.00  0.00    -0.481 OA
ATOM     44  H   LIG    1        0.465  10.768   1.224  0.00  0.00    +0.295 HD
ENDBRANCH  41  43
ENDBRANCH  40  41
ENDBRANCH  39  40
ENDBRANCH  37  39
ENDBRANCH  36  37
ENDBRANCH   4  36
TORSDOF 15
