REMARK  Name = DB05956
REMARK                            x       y       z     vdW  Elec       q    Type
REMARK                         _______ _______ _______ _____ _____    ______ ____
ROOT
ATOM      1  C   LIG    1        1.471  -0.028  -0.026  0.00  0.00    +0.078 A 
ATOM      2  N   LIG    1        2.071  -0.128   1.190  0.00  0.00    -0.153 NA
ATOM      3  N   LIG    1        3.409  -0.201   1.272  0.00  0.00    -0.157 NA
ATOM      4  C   LIG    1        4.160  -0.172   0.139  0.00  0.00    +0.143 A 
ATOM      5  C   LIG    1        3.604  -0.064  -1.143  0.00  0.00    +0.004 A 
ATOM      6  C   LIG    1        2.206   0.011  -1.213  0.00  0.00    +0.036 A 
ENDROOT
BRANCH   5   7
ATOM      7  C   LIG    1        4.454  -0.030  -2.367  0.00  0.00    -0.016 A 
ATOM      8  C   LIG    1        4.045  -0.671  -3.546  0.00  0.00    +0.020 A 
ATOM      9  C   LIG    1        4.834  -0.643  -4.702  0.00  0.00    +0.053 A 
ATOM     10  C   LIG    1        6.055   0.040  -4.679  0.00  0.00    +0.132 A 
ATOM     11  F   LIG    1        6.836   0.087  -5.783  0.00  0.00    -0.205 F 
ATOM     12  C   LIG    1        6.476   0.679  -3.515  0.00  0.00    +0.039 A 
ATOM     13  C   LIG    1        5.683   0.644  -2.370  0.00  0.00    +0.011 A 
BRANCH   9  14
ATOM     14  C   LIG    1        4.382  -1.339  -5.982  0.00  0.00    +0.374 C 
ATOM     15  F   LIG    1        5.195  -2.355  -6.270  0.00  0.00    -0.204 F 
ATOM     16  F   LIG    1        3.128  -1.789  -5.922  0.00  0.00    -0.204 F 
ENDBRANCH   9  14
ENDBRANCH   5   7
BRANCH   1  17
ATOM     17  C   LIG    1       -0.048   0.052  -0.029  0.00  0.00    +0.144 C 
BRANCH  17  20
ATOM     18  C   LIG    1       -0.551   1.788   2.610  0.00  0.00    +0.048 C 
ATOM     19  C   LIG    1       -0.761   2.187   1.165  0.00  0.00    +0.103 C 
ATOM     20  N   LIG    1       -0.547   1.421   0.026  0.00  0.00    -0.270 NA
ATOM     21  C   LIG    1       -0.863   2.202  -1.080  0.00  0.00    +0.096 C 
ATOM     22  C   LIG    1       -1.287   3.446  -0.634  0.00  0.00    +0.093 C 
ATOM     23  N   LIG    1       -1.218   3.418   0.746  0.00  0.00    -0.290 NA
ATOM     24  H   LIG    1       -1.462   4.184   1.357  0.00  0.00    +0.124 HD
ENDBRANCH  17  20
ENDBRANCH   1  17
TORSDOF 4
