REMARK  Name = DB05667
REMARK                            x       y       z     vdW  Elec       q    Type
REMARK                         _______ _______ _______ _____ _____    ______ ____
ROOT
ATOM      1  C   LIG    1        1.740  -1.859   0.792  0.00  0.00    +0.185 C 
ATOM      2  O   LIG    1        1.958  -2.156  -0.572  0.00  0.00    -0.334 OA
ATOM      3  C   LIG    1        2.980  -3.088  -0.718  0.00  0.00    +0.217 C 
ATOM      4  O   LIG    1        3.769  -2.915   0.419  0.00  0.00    -0.341 OA
ATOM      5  C   LIG    1        2.997  -2.394   1.481  0.00  0.00    +0.198 C 
ENDROOT
BRANCH   3   6
ATOM      6  C   LIG    1        2.385  -4.536  -0.761  0.00  0.00    +0.031 A 
ATOM      7  C   LIG    1        1.392  -4.899  -1.694  0.00  0.00    +0.051 A 
ATOM      8 CL   LIG    1        0.748  -3.773  -2.841  0.00  0.00    -0.083 Cl
ATOM      9  C   LIG    1        0.887  -6.201  -1.715  0.00  0.00    +0.040 A 
ATOM     10  C   LIG    1        1.356  -7.155  -0.815  0.00  0.00    +0.042 A 
ATOM     11 CL   LIG    1        0.727  -8.762  -0.851  0.00  0.00    -0.083 Cl
ATOM     12  C   LIG    1        2.334  -6.809   0.114  0.00  0.00    +0.020 A 
ATOM     13  C   LIG    1        2.841  -5.511   0.141  0.00  0.00    +0.012 A 
ENDBRANCH   3   6
BRANCH   1  14
ATOM     14  C   LIG    1        1.553  -0.338   0.930  0.00  0.00    +0.263 C 
BRANCH  14  15
ATOM     15  O   LIG    1        0.338   0.039   0.287  0.00  0.00    -0.489 OA
BRANCH  15  19
ATOM     16  C   LIG    1       -0.993   4.029   0.175  0.00  0.00    +0.030 A 
ATOM     17  C   LIG    1        0.203   3.711   0.840  0.00  0.00    +0.027 A 
ATOM     18  C   LIG    1        0.675   2.402   0.891  0.00  0.00    +0.047 A 
ATOM     19  C   LIG    1       -0.047   1.365   0.285  0.00  0.00    +0.121 A 
ATOM     20  C   LIG    1       -1.240   1.667  -0.365  0.00  0.00    +0.047 A 
ATOM     21  C   LIG    1       -1.709   2.976  -0.417  0.00  0.00    +0.027 A 
BRANCH  16  28
ATOM     22  C   LIG    1       -2.516   9.757  -2.048  0.00  0.00    +0.109 C 
ATOM     23  C   LIG    1       -1.892   9.320  -0.718  0.00  0.00    +0.213 C 
ATOM     24  O   LIG    1       -1.131  10.114  -0.161  0.00  0.00    -0.276 OA
ATOM     25  N   LIG    1       -2.247   8.127  -0.171  0.00  0.00    -0.299 N 
ATOM     26  C   LIG    1       -3.038   7.116  -0.879  0.00  0.00    +0.126 C 
ATOM     27  C   LIG    1       -2.175   5.849  -1.068  0.00  0.00    +0.124 C 
ATOM     28  N   LIG    1       -1.483   5.341   0.135  0.00  0.00    -0.327 N 
ATOM     29  C   LIG    1       -0.860   6.424   0.921  0.00  0.00    +0.124 C 
ATOM     30  C   LIG    1       -1.710   7.698   1.124  0.00  0.00    +0.126 C 
ENDBRANCH  16  28
ENDBRANCH  15  19
ENDBRANCH  14  15
ENDBRANCH   1  14
BRANCH   3  31
ATOM     31  C   LIG    1        3.857  -2.698  -1.919  0.00  0.00    +0.193 C 
BRANCH  31  32
ATOM     32  N   LIG    1        4.873  -3.708  -2.198  0.00  0.00    -0.331 N 
ATOM     33  C   LIG    1        4.811  -4.735  -3.110  0.00  0.00    +0.199 A 
ATOM     34  N   LIG    1        5.876  -5.502  -3.110  0.00  0.00    -0.244 NA
ATOM     35  C   LIG    1        6.660  -4.982  -2.181  0.00  0.00    +0.130 A 
ATOM     36  C   LIG    1        6.087  -3.870  -1.582  0.00  0.00    +0.107 A 
ENDBRANCH  31  32
ENDBRANCH   3  31
TORSDOF 7
