REMARK  Name = DB05735
REMARK                            x       y       z     vdW  Elec       q    Type
REMARK                         _______ _______ _______ _____ _____    ______ ____
ROOT
ATOM      1  C   LIG    1       -0.015  -0.511  -0.022  0.00  0.00    +0.190 C 
ATOM      2  N   LIG    1       -0.541   0.872  -0.022  0.00  0.00    -0.299 N 
ATOM      3  H   LIG    1       -0.398   1.381  -0.883  0.00  0.00    +0.150 HD
ATOM      4  C   LIG    1       -0.938   1.558   1.078  0.00  0.00    +0.237 C 
ATOM      5  O   LIG    1       -1.184   1.004   2.149  0.00  0.00    -0.274 OA
ATOM      6  C   LIG    1       -0.991   3.118   0.991  0.00  0.00    +0.192 C 
ATOM      7  C   LIG    1       -1.728   3.912   2.142  0.00  0.00    +0.174 C 
ATOM      8  C   LIG    1       -3.242   4.016   1.956  0.00  0.00    -0.015 A 
ATOM      9  C   LIG    1       -3.796   5.210   1.484  0.00  0.00    +0.010 A 
ATOM     10  C   LIG    1       -5.138   5.268   1.122  0.00  0.00    +0.048 A 
ATOM     11  C   LIG    1       -5.946   4.126   1.205  0.00  0.00    +0.147 A 
ATOM     12  C   LIG    1       -5.415   2.954   1.757  0.00  0.00    +0.083 A 
ATOM     13 CL   LIG    1       -6.371   1.521   1.870  0.00  0.00    -0.080 Cl
ATOM     14  O   LIG    1       -7.219   4.125   0.668  0.00  0.00    -0.451 OA
ATOM     15  C   LIG    1       -7.387   4.625  -0.610  0.00  0.00    +0.174 A 
ATOM     16  C   LIG    1       -6.558   4.178  -1.645  0.00  0.00    +0.056 A 
ATOM     17  C   LIG    1       -6.613   4.739  -2.921  0.00  0.00    -0.011 A 
ATOM     18  C   LIG    1       -7.564   5.736  -3.145  0.00  0.00    +0.056 A 
ATOM     19  C   LIG    1       -8.429   6.200  -2.134  0.00  0.00    +0.174 A 
ATOM     20  O   LIG    1       -9.315   7.238  -2.384  0.00  0.00    -0.451 OA
ATOM     21  C   LIG    1       -9.246   7.941  -3.564  0.00  0.00    +0.147 A 
ATOM     22  C   LIG    1       -8.268   8.926  -3.721  0.00  0.00    +0.048 A 
ATOM     23  C   LIG    1       -8.053   9.505  -4.968  0.00  0.00    +0.010 A 
ATOM     24  C   LIG    1       -8.813   9.105  -6.074  0.00  0.00    -0.015 A 
ATOM     25  C   LIG    1       -9.839   8.169  -5.895  0.00  0.00    +0.030 A 
ATOM     26  C   LIG    1       -8.480   9.610  -7.482  0.00  0.00    +0.174 C 
ATOM     27  C   LIG    1       -7.321   8.792  -8.144  0.00  0.00    +0.192 C 
ATOM     28  C   LIG    1       -7.623   7.272  -8.231  0.00  0.00    +0.237 C 
ATOM     29  O   LIG    1       -8.557   6.905  -8.943  0.00  0.00    -0.274 OA
ATOM     30  N   LIG    1       -6.830   6.432  -7.536  0.00  0.00    -0.302 N 
ATOM     31  H   LIG    1       -6.096   6.817  -6.961  0.00  0.00    +0.150 HD
ATOM     32  C   LIG    1       -6.891   4.967  -7.585  0.00  0.00    +0.168 C 
ATOM     33  C   LIG    1       -6.845   4.367  -6.171  0.00  0.00    +0.235 C 
ATOM     34  O   LIG    1       -7.669   3.506  -5.866  0.00  0.00    -0.274 OA
ATOM     35  N   LIG    1       -5.883   4.813  -5.338  0.00  0.00    -0.299 N 
ATOM     36  H   LIG    1       -5.229   5.508  -5.667  0.00  0.00    +0.150 HD
ATOM     37  C   LIG    1      -10.056   7.585  -4.647  0.00  0.00    +0.083 A 
ATOM     38 CL   LIG    1      -11.270   6.368  -4.475  0.00  0.00    -0.080 Cl
ATOM     39  C   LIG    1       -5.622   4.277  -3.990  0.00  0.00    +0.190 C 
ATOM     40  C   LIG    1       -4.175   4.636  -3.584  0.00  0.00    +0.239 C 
ATOM     41  O   LIG    1       -3.883   5.808  -3.340  0.00  0.00    -0.273 OA
ATOM     42  N   LIG    1       -3.326   3.602  -3.431  0.00  0.00    -0.299 N 
ATOM     43  H   LIG    1       -3.663   2.673  -3.643  0.00  0.00    +0.150 HD
ATOM     44  C   LIG    1       -2.062   3.645  -2.678  0.00  0.00    +0.190 C 
ATOM     45  C   LIG    1       -1.146   2.563  -3.211  0.00  0.00    -0.018 A 
ATOM     46  C   LIG    1        0.005   2.889  -3.936  0.00  0.00    +0.009 A 
ATOM     47  C   LIG    1        0.945   1.903  -4.240  0.00  0.00    +0.046 A 
ATOM     48  C   LIG    1        0.764   0.591  -3.793  0.00  0.00    +0.125 A 
ATOM     49  C   LIG    1       -0.386   0.251  -3.062  0.00  0.00    +0.028 A 
ATOM     50  C   LIG    1       -0.640  -1.114  -2.523  0.00  0.00    +0.033 A 
ATOM     51  C   LIG    1       -1.046  -2.116  -3.429  0.00  0.00    +0.128 A 
ATOM     52  C   LIG    1       -1.326  -3.407  -2.992  0.00  0.00    +0.091 A 
ATOM     53  C   LIG    1       -1.208  -3.726  -1.647  0.00  0.00    +0.121 A 
ATOM     54  C   LIG    1       -0.809  -2.752  -0.740  0.00  0.00    +0.052 A 
ATOM     55  C   LIG    1       -1.355   1.225  -2.854  0.00  0.00    +0.018 A 
ATOM     56  C   LIG    1       -2.291   3.425  -1.157  0.00  0.00    +0.239 C 
ATOM     57  O   LIG    1       -3.341   2.910  -0.772  0.00  0.00    -0.273 OA
ATOM     58  C   LIG    1       -8.360   5.607  -0.849  0.00  0.00    +0.208 A 
ATOM     59  C   LIG    1       -4.075   2.907   2.152  0.00  0.00    +0.030 A 
ATOM     60  N   LIG    1       -1.214   3.633  -0.373  0.00  0.00    -0.300 N 
ATOM     61  H   LIG    1       -0.398   4.048  -0.798  0.00  0.00    +0.150 HD
ATOM     62  C   LIG    1       -0.523  -1.436  -1.140  0.00  0.00    -0.004 A 
ENDROOT
BRANCH   1  65
ATOM     63  N   LIG    1        2.116  -1.026   1.093  0.00  0.00    -0.313 N 
ATOM     64  H   LIG    1        1.537  -1.405   1.829  0.00  0.00    +0.149 HD
ATOM     65  C   LIG    1        1.529  -0.470   0.019  0.00  0.00    +0.238 C 
ATOM     66  O   LIG    1        2.152   0.019  -0.924  0.00  0.00    -0.273 OA
BRANCH  63  67
ATOM     67  C   LIG    1        3.562  -1.134   1.272  0.00  0.00    +0.107 C 
BRANCH  67  68
ATOM     68  C   LIG    1        4.178  -2.327   0.513  0.00  0.00    +0.062 C 
BRANCH  68  69
ATOM     69  C   LIG    1        5.694  -2.464   0.721  0.00  0.00    +0.264 C 
BRANCH  69  70
ATOM     70  O   LIG    1        6.348  -1.336   0.159  0.00  0.00    -0.393 OA
BRANCH  70  72
ATOM     71  C   LIG    1        8.453  -0.529  -0.160  0.00  0.00    +0.191 C 
ATOM     72  N   LIG    1        7.737  -1.440   0.397  0.00  0.00    -0.078 NA
BRANCH  71  75
ATOM     73  C   LIG    1       10.743  -1.528  -0.591  0.00  0.00    +0.109 A 
ATOM     74 CL   LIG    1       10.351  -2.915  -1.531  0.00  0.00    -0.073 Cl
ATOM     75  C   LIG    1        9.910  -0.560  -0.021  0.00  0.00    +0.125 A 
ATOM     76  N   LIG    1       10.523   0.411   0.638  0.00  0.00    -0.222 NA
ATOM     77  C   LIG    1       11.822   0.263   0.624  0.00  0.00    +0.158 A 
ATOM     78  S   LIG    1       12.398  -1.135  -0.224  0.00  0.00    -0.040 S 
BRANCH  77  79
ATOM     79  N   LIG    1       12.708   1.115   1.216  0.00  0.00    -0.337 N 
ATOM     80  H   LIG    1       13.700   0.926   1.230  0.00  0.00    +0.144 HD
ATOM     81  H   LIG    1       12.395   1.935   1.716  0.00  0.00    +0.144 HD
ENDBRANCH  77  79
ENDBRANCH  71  75
BRANCH  71  82
ATOM     82  C   LIG    1        7.896   0.552  -0.977  0.00  0.00    +0.268 C 
ATOM     83  N   LIG    1        7.169   1.452  -0.272  0.00  0.00    -0.296 N 
ATOM     84  H   LIG    1        7.050   1.242   0.708  0.00  0.00    +0.150 HD
ATOM     85  O   LIG    1        8.171   0.646  -2.173  0.00  0.00    -0.268 OA
BRANCH  83  86
ATOM     86  CA  LIG    1        6.640   2.781  -0.663  0.00  0.00    +0.191 C 
ATOM     87  C   LIG    1        6.565   3.131  -2.191  0.00  0.00    +0.244 C 
ATOM     88  O   LIG    1        5.841   2.804  -3.130  0.00  0.00    -0.273 OA
ATOM     89  N   LIG    1        7.730   3.895  -2.072  0.00  0.00    -0.249 N 
ATOM     90  CA  LIG    1        8.784   4.272  -2.864  0.00  0.00    +0.123 C 
ATOM     91  C   LIG    1        9.959   4.755  -2.362  0.00  0.00    -0.017 C 
ATOM     92  C   LIG    1       10.126   5.011  -0.856  0.00  0.00    +0.105 C 
ATOM     93  S   LIG    1        9.315   3.722   0.142  0.00  0.00    -0.131 S 
ATOM     94  C   LIG    1        7.660   3.956  -0.592  0.00  0.00    +0.169 C 
BRANCH  90  95
ATOM     95  C   LIG    1        8.615   4.065  -4.398  0.00  0.00    +0.351 C 
ATOM     96  O   LIG    1        8.948   2.934  -4.819  0.00  0.00    -0.244 OA
BRANCH  95  97
ATOM     97  OXT LIG    1        8.204   5.074  -5.015  0.00  0.00    -0.476 OA
ATOM     98  HXT LIG    1        7.995   5.857  -4.546  0.00  0.00    +0.295 HD
ENDBRANCH  95  97
ENDBRANCH  90  95
BRANCH  91  99
ATOM     99  C   LIG    1       11.213   5.056  -3.196  0.00  0.00    +0.118 C 
BRANCH  99 100
ATOM    100  N   LIG    1       12.337   4.138  -2.877  0.00  0.00    -0.289 NA
ATOM    101  C   LIG    1       12.158   2.800  -3.025  0.00  0.00    +0.078 C 
ATOM    102  C   LIG    1       13.190   1.912  -2.714  0.00  0.00    +0.016 C 
ATOM    103  C   LIG    1       14.410   2.415  -2.260  0.00  0.00    +0.003 C 
ATOM    104  C   LIG    1       14.578   3.796  -2.127  0.00  0.00    +0.016 C 
ATOM    105  C   LIG    1       13.519   4.650  -2.446  0.00  0.00    +0.078 C 
ENDBRANCH  99 100
ENDBRANCH  91  99
ENDBRANCH  83  86
ENDBRANCH  71  82
ENDBRANCH  70  72
ENDBRANCH  69  70
ENDBRANCH  68  69
ENDBRANCH  67  68
ENDBRANCH  63  67
ENDBRANCH   1  65
BRANCH  27 106
ATOM    106  N   LIG    1       -6.004   9.078  -7.549  0.00  0.00    -0.303 N 
ATOM    107  H   LIG    1       -6.023   9.387  -6.588  0.00  0.00    +0.149 HD
ATOM    108  C   LIG    1       -4.820   8.860  -8.148  0.00  0.00    +0.200 C 
ATOM    109  O   LIG    1       -4.698   8.480  -9.315  0.00  0.00    -0.278 OA
BRANCH 108 110
ATOM    110  C   LIG    1       -3.579   9.053  -7.245  0.00  0.00    +0.016 C 
BRANCH 110 111
ATOM    111  N   LIG    1       -2.541   9.783  -8.067  0.00  0.00    +0.385 N 
ATOM    112  H   LIG    1       -2.448   9.290  -8.945  0.00  0.00    -0.085 HD
ATOM    113  H   LIG    1       -1.668   9.689  -7.567  0.00  0.00    -0.085 HD
ATOM    114  C   LIG    1       -2.794  11.280  -8.313  0.00  0.00    -0.099 C 
ENDBRANCH 110 111
BRANCH 110 115
ATOM    115  C   LIG    1       -3.059   7.676  -6.750  0.00  0.00    -0.004 C 
BRANCH 115 116
ATOM    116  C   LIG    1       -1.821   7.726  -5.823  0.00  0.00    -0.018 C 
ATOM    117  C   LIG    1       -2.111   8.484  -4.507  0.00  0.00    +0.007 C 
ATOM    118  C   LIG    1       -1.261   6.308  -5.577  0.00  0.00    +0.007 C 
ENDBRANCH 115 116
ENDBRANCH 110 115
ENDBRANCH 108 110
ENDBRANCH  27 106
BRANCH   7 119
ATOM    119  O   LIG    1       -1.364   3.481   3.442  0.00  0.00    -0.385 OA
ATOM    120  H   LIG    1       -1.583   4.176   4.067  0.00  0.00    +0.210 HD
ENDBRANCH   7 119
BRANCH  26 121
ATOM    121  O   LIG    1       -8.158  10.993  -7.499  0.00  0.00    -0.385 OA
ATOM    122  H   LIG    1       -7.335  11.123  -7.023  0.00  0.00    +0.210 HD
ENDBRANCH  26 121
BRANCH  51 123
ATOM    123  O   LIG    1       -1.191  -1.851  -4.769  0.00  0.00    -0.506 OA
ATOM    124  H   LIG    1       -1.481  -2.614  -5.276  0.00  0.00    +0.292 HD
ENDBRANCH  51 123
BRANCH  53 125
ATOM    125  O   LIG    1       -1.475  -4.999  -1.216  0.00  0.00    -0.507 OA
ATOM    126  H   LIG    1       -1.739  -5.589  -1.926  0.00  0.00    +0.292 HD
ENDBRANCH  53 125
BRANCH  48 127
ATOM    127  O   LIG    1        1.728  -0.344  -4.072  0.00  0.00    -0.506 OA
ATOM    128  H   LIG    1        1.520  -1.214  -3.722  0.00  0.00    +0.292 HD
ENDBRANCH  48 127
BRANCH  58 129
ATOM    129  O   LIG    1       -9.149   5.922   0.251  0.00  0.00    -0.453 OA
BRANCH 129 130
ATOM    130  C   LIG    1      -10.319   6.681   0.137  0.00  0.00    +0.340 C 
ATOM    131  O   LIG    1      -10.001   8.048   0.178  0.00  0.00    -0.331 OA
ATOM    132  C   LIG    1      -11.127   8.893  -0.080  0.00  0.00    +0.179 C 
ATOM    133  C   LIG    1      -12.155   8.715   1.065  0.00  0.00    +0.177 C 
ATOM    134  C   LIG    1      -12.487   7.223   1.306  0.00  0.00    +0.180 C 
ATOM    135  C   LIG    1      -11.212   6.334   1.339  0.00  0.00    +0.220 C 
BRANCH 133 136
ATOM    136  O   LIG    1      -13.334   9.463   0.818  0.00  0.00    -0.386 OA
ATOM    137  H   LIG    1      -13.902   9.398   1.590  0.00  0.00    +0.210 HD
ENDBRANCH 133 136
BRANCH 134 138
ATOM    138  O   LIG    1      -13.255   7.098   2.491  0.00  0.00    -0.386 OA
ATOM    139  H   LIG    1      -12.724   7.398   3.233  0.00  0.00    +0.210 HD
ENDBRANCH 134 138
BRANCH 132 140
ATOM    140  C   LIG    1      -10.627  10.351  -0.190  0.00  0.00    +0.190 C 
BRANCH 140 141
ATOM    141  O   LIG    1       -9.785  10.525  -1.311  0.00  0.00    -0.392 OA
ATOM    142  H   LIG    1       -9.513  11.445  -1.346  0.00  0.00    +0.210 HD
ENDBRANCH 140 141
ENDBRANCH 132 140
BRANCH 135 143
ATOM    143  O   LIG    1      -11.496   4.934   1.245  0.00  0.00    -0.339 OA
BRANCH 143 144
ATOM    144  C   LIG    1      -11.862   4.245   2.406  0.00  0.00    +0.250 C 
ATOM    145  O   LIG    1      -10.868   4.303   3.407  0.00  0.00    -0.346 OA
ATOM    146  C   LIG    1       -9.656   3.589   3.130  0.00  0.00    +0.145 C 
ATOM    147  C   LIG    1       -8.633   3.881   4.242  0.00  0.00    +0.040 C 
ATOM    148  C   LIG    1       -9.944   2.081   2.915  0.00  0.00    +0.132 C 
ATOM    149  C   LIG    1      -10.950   1.935   1.735  0.00  0.00    -0.040 C 
ATOM    150  C   LIG    1      -10.307   2.227   0.352  0.00  0.00    -0.008 C 
ATOM    151  C   LIG    1      -12.211   2.794   2.019  0.00  0.00    +0.051 C 
BRANCH 149 152
ATOM    152  N   LIG    1      -11.412   0.463   1.654  0.00  0.00    +0.383 N 
ATOM    153  H   LIG    1      -11.833   0.187   2.530  0.00  0.00    -0.089 HD
ATOM    154  H   LIG    1      -12.090   0.352   0.914  0.00  0.00    -0.089 HD
ATOM    155  H   LIG    1      -10.622  -0.138   1.468  0.00  0.00    -0.089 HD
ENDBRANCH 149 152
BRANCH 148 156
ATOM    156  O   LIG    1      -10.379   1.504   4.144  0.00  0.00    -0.391 OA
ATOM    157  H   LIG    1       -9.659   1.558   4.779  0.00  0.00    +0.210 HD
ENDBRANCH 148 156
ENDBRANCH 143 144
ENDBRANCH 135 143
ENDBRANCH 129 130
ENDBRANCH  58 129
BRANCH  32 158
ATOM    158  C   LIG    1       -5.720   4.404  -8.432  0.00  0.00    +0.127 C 
BRANCH 158 159
ATOM    159  C   LIG    1       -5.733   4.833  -9.905  0.00  0.00    +0.213 C 
ATOM    160  N   LIG    1       -4.575   5.239 -10.430  0.00  0.00    -0.329 N 
ATOM    161  H   LIG    1       -4.532   5.524 -11.398  0.00  0.00    +0.145 HD
ATOM    162  H   LIG    1       -3.735   5.257  -9.871  0.00  0.00    +0.145 HD
ATOM    163  O   LIG    1       -6.768   4.782 -10.565  0.00  0.00    -0.276 OA
ENDBRANCH 158 159
ENDBRANCH  32 158
TORSDOF 36
