REMARK  Name = DB05265
REMARK                            x       y       z     vdW  Elec       q    Type
REMARK                         _______ _______ _______ _____ _____    ______ ____
ROOT
ATOM      1  C   LIG    1       -0.726  -1.207  -0.067  0.00  0.00    +0.121 A 
ATOM      2  C   LIG    1        0.011  -0.009   0.032  0.00  0.00    -0.017 A 
ATOM      3  C   LIG    1       -0.684   1.204   0.004  0.00  0.00    +0.009 A 
ATOM      4  C   LIG    1       -2.073   1.266  -0.110  0.00  0.00    -0.043 A 
ATOM      5  C   LIG    1       -2.791   2.606  -0.170  0.00  0.00    +0.036 C 
ATOM      6  C   LIG    1       -4.056   2.608   0.712  0.00  0.00    +0.010 C 
ATOM      7  C   LIG    1       -4.823   1.247   0.793  0.00  0.00    +0.016 C 
ATOM      8  C   LIG    1       -6.364   1.349   1.182  0.00  0.00    +0.068 C 
ATOM      9  C   LIG    1       -7.199   2.004   0.033  0.00  0.00    +0.023 C 
ATOM     10  C   LIG    1       -6.929  -0.087   1.454  0.00  0.00    +0.018 C 
ATOM     11  C   LIG    1       -6.597  -1.098   0.345  0.00  0.00    +0.002 C 
ATOM     12  C   LIG    1       -5.077  -1.186   0.106  0.00  0.00    +0.011 C 
ATOM     13  C   LIG    1       -4.375   0.160  -0.275  0.00  0.00    -0.003 C 
ATOM     14  C   LIG    1       -4.801   0.558  -1.718  0.00  0.00    +0.016 C 
ATOM     15  C   LIG    1       -2.823   0.077  -0.185  0.00  0.00    -0.036 A 
ATOM     16  C   LIG    1       -2.121  -1.138  -0.175  0.00  0.00    +0.034 A 
ENDROOT
BRANCH   1  17
ATOM     17  S   LIG    1        0.061  -2.840  -0.056  0.00  0.00    +0.110 S 
ATOM     18  O   LIG    1        0.721  -2.869   1.255  0.00  0.00    -0.142 OA
ATOM     19  O   LIG    1       -1.045  -3.794  -0.201  0.00  0.00    -0.142 OA
BRANCH  17  20
ATOM     20  O   LIG    1        0.960  -2.773  -1.214  0.00  0.00    -0.250 OA
ATOM     21  H   LIG    1        1.439  -3.612  -1.300  0.00  0.00    +0.245 HD
ENDBRANCH  17  20
ENDBRANCH   1  17
BRANCH   2  22
ATOM     22  C   LIG    1        1.543   0.042   0.159  0.00  0.00    +0.015 C 
ATOM     23  C   LIG    1        2.201   0.692  -1.073  0.00  0.00    +0.012 C 
ATOM     24  C   LIG    1        1.993   0.712   1.473  0.00  0.00    +0.012 C 
ENDBRANCH   2  22
BRANCH   8  25
ATOM     25  C   LIG    1       -6.498   2.140   2.550  0.00  0.00    +0.311 C 
ATOM     26  O   LIG    1       -7.214   3.169   2.596  0.00  0.00    -0.250 OA
BRANCH  25  27
ATOM     27  O   LIG    1       -5.880   1.723   3.560  0.00  0.00    -0.480 OA
ATOM     28  H   LIG    1       -6.142   1.999   4.416  0.00  0.00    +0.295 HD
ENDBRANCH  25  27
ENDBRANCH   8  25
TORSDOF 5
