REMARK  Name = DB05102
REMARK                            x       y       z     vdW  Elec       q    Type
REMARK                         _______ _______ _______ _____ _____    ______ ____
ROOT
ATOM      1  C   LIG    1       -0.270  -0.479   0.583  0.00  0.00    +0.086 C 
ENDROOT
BRANCH   1   2
ATOM      2  C   LIG    1       -0.790  -0.989  -0.782  0.00  0.00    +0.217 C 
ATOM      3  N   LIG    1       -1.583  -2.073  -0.748  0.00  0.00    -0.309 N 
ATOM      4  H   LIG    1       -1.730  -2.525   0.142  0.00  0.00    +0.149 HD
ATOM      5  O   LIG    1       -0.487  -0.398  -1.820  0.00  0.00    -0.275 OA
BRANCH   3   6
ATOM      6  C   LIG    1       -2.208  -2.727  -1.904  0.00  0.00    +0.097 C 
BRANCH   6   7
ATOM      7  C   LIG    1       -3.670  -3.097  -1.651  0.00  0.00    +0.002 C 
ATOM      8  C   LIG    1       -4.355  -2.930  -0.498  0.00  0.00    +0.089 C 
BRANCH   8   9
ATOM      9  C   LIG    1       -5.757  -3.298  -0.345  0.00  0.00    +0.332 C 
ATOM     10  O   LIG    1       -6.448  -3.766  -1.254  0.00  0.00    -0.246 OA
BRANCH   9  11
ATOM     11  O   LIG    1       -6.197  -3.057   0.910  0.00  0.00    -0.462 OA
BRANCH  11  12
ATOM     12  C   LIG    1       -7.544  -3.323   1.278  0.00  0.00    +0.229 C 
ATOM     13  C   LIG    1       -7.736  -2.999   2.763  0.00  0.00    +0.048 C 
ENDBRANCH  11  12
ENDBRANCH   9  11
ENDBRANCH   8   9
ENDBRANCH   6   7
BRANCH   6  14
ATOM     14  C   LIG    1       -1.337  -3.925  -2.369  0.00  0.00    +0.039 C 
BRANCH  14  15
ATOM     15  C   LIG    1       -1.725  -4.609  -3.710  0.00  0.00    +0.078 C 
ATOM     16  C   LIG    1       -1.371  -3.749  -4.938  0.00  0.00    +0.216 C 
ATOM     17  N   LIG    1       -0.816  -4.590  -5.831  0.00  0.00    -0.315 N 
ATOM     18  H   LIG    1       -0.564  -4.299  -6.764  0.00  0.00    +0.149 HD
ATOM     19  C   LIG    1       -0.815  -5.993  -5.448  0.00  0.00    +0.105 C 
ATOM     20  O   LIG    1       -1.591  -2.550  -5.091  0.00  0.00    -0.276 OA
ATOM     21  C   LIG    1       -0.997  -5.927  -3.944  0.00  0.00    +0.031 C 
ENDBRANCH  14  15
ENDBRANCH   6  14
ENDBRANCH   3   6
ENDBRANCH   1   2
BRANCH   1  22
ATOM     22  C   LIG    1       -1.039   0.784   1.060  0.00  0.00    +0.048 C 
BRANCH  22  27
ATOM     23  F   LIG    1       -6.654   0.102   1.350  0.00  0.00    -0.205 F 
ATOM     24  C   LIG    1       -5.314   0.272   1.285  0.00  0.00    +0.123 A 
ATOM     25  C   LIG    1       -4.501  -0.252   2.288  0.00  0.00    +0.038 A 
ATOM     26  C   LIG    1       -3.121  -0.080   2.219  0.00  0.00    +0.006 A 
ATOM     27  C   LIG    1       -2.556   0.616   1.146  0.00  0.00    -0.046 A 
ATOM     28  C   LIG    1       -3.378   1.141   0.143  0.00  0.00    +0.006 A 
ATOM     29  C   LIG    1       -4.758   0.967   0.213  0.00  0.00    +0.038 A 
ENDBRANCH  22  27
ENDBRANCH   1  22
BRANCH   1  30
ATOM     30  C   LIG    1        1.265  -0.216   0.580  0.00  0.00    +0.089 C 
BRANCH  30  31
ATOM     31  C   LIG    1        2.177  -1.437   0.317  0.00  0.00    +0.154 C 
ATOM     32  O   LIG    1        1.731  -2.575   0.479  0.00  0.00    -0.295 OA
BRANCH  31  33
ATOM     33  C   LIG    1        3.570  -1.187  -0.271  0.00  0.00    +0.142 C 
BRANCH  33  34
ATOM     34  N   LIG    1        4.176  -0.052   0.449  0.00  0.00    -0.300 N 
ATOM     35  H   LIG    1        4.681  -0.304   1.287  0.00  0.00    +0.150 HD
ATOM     36  C   LIG    1        4.251   1.227   0.027  0.00  0.00    +0.266 C 
ATOM     37  O   LIG    1        3.777   1.624  -1.039  0.00  0.00    -0.268 OA
BRANCH  36  38
ATOM     38  C   LIG    1        4.941   2.122   0.929  0.00  0.00    +0.168 A 
ATOM     39  C   LIG    1        5.249   1.875   2.277  0.00  0.00    +0.080 A 
ATOM     40  C   LIG    1        5.885   3.007   2.731  0.00  0.00    +0.135 A 
ATOM     41  C   LIG    1        6.494   3.428   4.045  0.00  0.00    +0.089 C 
ATOM     42  O   LIG    1        5.936   3.902   1.715  0.00  0.00    -0.359 OA
ATOM     43  N   LIG    1        5.325   3.339   0.593  0.00  0.00    -0.073 NA
ENDBRANCH  36  38
ENDBRANCH  33  34
BRANCH  33  44
ATOM     44  C   LIG    1        4.514  -2.434  -0.218  0.00  0.00    +0.010 C 
ATOM     45  C   LIG    1        5.808  -2.205  -1.021  0.00  0.00    +0.009 C 
ATOM     46  C   LIG    1        4.862  -2.921   1.208  0.00  0.00    +0.009 C 
ENDBRANCH  33  44
ENDBRANCH  31  33
ENDBRANCH  30  31
ENDBRANCH   1  30
TORSDOF 16
