REMARK  Name = DB05944
REMARK                            x       y       z     vdW  Elec       q    Type
REMARK                         _______ _______ _______ _____ _____    ______ ____
ROOT
ATOM      1  C   LIG    1       -3.337   0.336  -2.488  0.00  0.00    +0.070 A 
ATOM      2  C   LIG    1       -2.007   0.490  -2.068  0.00  0.00    +0.041 A 
ATOM      3  C   LIG    1       -1.633   1.502  -1.143  0.00  0.00    +0.042 A 
ATOM      4  C   LIG    1       -0.308   1.716  -0.648  0.00  0.00    +0.134 A 
ATOM      5  N   LIG    1       -0.029   2.699   0.246  0.00  0.00    -0.220 NA
ATOM      6  C   LIG    1       -1.062   3.479   0.639  0.00  0.00    +0.223 A 
ATOM      7  N   LIG    1       -2.351   3.381   0.238  0.00  0.00    -0.235 NA
ATOM      8  C   LIG    1       -2.639   2.390  -0.653  0.00  0.00    +0.076 A 
ATOM      9  C   LIG    1       -3.969   2.242  -1.104  0.00  0.00    +0.030 A 
ATOM     10  C   LIG    1       -4.293   1.234  -2.009  0.00  0.00    +0.030 A 
ENDROOT
BRANCH   1  16
ATOM     11  C   LIG    1       -4.939  -4.799  -2.788  0.00  0.00    +0.031 C 
ATOM     12  C   LIG    1       -3.632  -4.216  -3.358  0.00  0.00    +0.109 C 
ATOM     13  N   LIG    1       -3.846  -2.945  -4.007  0.00  0.00    -0.293 N 
ATOM     14  H   LIG    1       -4.378  -2.996  -4.863  0.00  0.00    +0.151 HD
ATOM     15  C   LIG    1       -3.505  -1.875  -3.212  0.00  0.00    +0.283 C 
ATOM     16  N   LIG    1       -3.727  -0.638  -3.418  0.00  0.00    -0.200 NA
ATOM     17  O   LIG    1       -2.926  -2.414  -2.091  0.00  0.00    -0.464 OA
ATOM     18  C   LIG    1       -2.631  -3.789  -2.287  0.00  0.00    +0.254 C 
ENDBRANCH   1  16
BRANCH   4  19
ATOM     19  N   LIG    1        0.738   0.872  -1.071  0.00  0.00    -0.299 N 
ATOM     20  H   LIG    1        0.420   0.119  -1.663  0.00  0.00    +0.154 HD
BRANCH  19  21
ATOM     21  C   LIG    1        2.126   0.845  -0.844  0.00  0.00    +0.034 A 
ATOM     22  C   LIG    1        2.798  -0.346  -1.129  0.00  0.00    +0.047 A 
ATOM     23  C   LIG    1        4.177  -0.453  -0.946  0.00  0.00    +0.084 A 
ATOM     24 CL   LIG    1        4.954  -1.954  -1.311  0.00  0.00    -0.080 Cl
ATOM     25  C   LIG    1        4.918   0.638  -0.476  0.00  0.00    +0.139 A 
ATOM     26  C   LIG    1        4.244   1.838  -0.198  0.00  0.00    +0.049 A 
ATOM     27  C   LIG    1        2.865   1.942  -0.385  0.00  0.00    +0.027 A 
BRANCH  25  28
ATOM     28  O   LIG    1        6.282   0.464  -0.321  0.00  0.00    -0.484 OA
BRANCH  28  29
ATOM     29  C   LIG    1        7.087   1.553   0.123  0.00  0.00    +0.291 C 
BRANCH  29  30
ATOM     30  C   LIG    1        8.543   1.129   0.149  0.00  0.00    +0.116 A 
ATOM     31  S   LIG    1        9.089  -0.495   0.468  0.00  0.00    -0.077 S 
ATOM     32  C   LIG    1       10.726   0.053   0.288  0.00  0.00    +0.066 A 
ATOM     33  C   LIG    1       10.709   1.413   0.009  0.00  0.00    +0.119 A 
ATOM     34  N   LIG    1        9.521   1.980  -0.059  0.00  0.00    -0.249 NA
ENDBRANCH  29  30
ENDBRANCH  28  29
ENDBRANCH  25  28
ENDBRANCH  19  21
ENDBRANCH   4  19
TORSDOF 6
