REMARK  Name = DB05271
REMARK                            x       y       z     vdW  Elec       q    Type
REMARK                         _______ _______ _______ _____ _____    ______ ____
ROOT
ATOM      1  C   LIG    1       -0.631   1.440  -0.070  0.00  0.00    +0.061 C 
ATOM      2  C   LIG    1       -0.042   2.142  -1.318  0.00  0.00    +0.024 C 
ATOM      3  C   LIG    1       -0.376   3.643  -1.319  0.00  0.00    +0.040 C 
ATOM      4  C   LIG    1       -1.855   3.940  -1.042  0.00  0.00    -0.003 A 
ATOM      5  C   LIG    1       -2.407   5.197  -1.351  0.00  0.00    +0.120 A 
ATOM      6  C   LIG    1       -3.728   5.500  -1.029  0.00  0.00    +0.046 A 
ATOM      7  C   LIG    1       -4.521   4.558  -0.387  0.00  0.00    +0.004 A 
ATOM      8  C   LIG    1       -3.994   3.307  -0.084  0.00  0.00    +0.004 A 
ATOM      9  C   LIG    1       -2.676   2.973  -0.413  0.00  0.00    -0.039 A 
ATOM     10  C   LIG    1       -2.172   1.555  -0.135  0.00  0.00    +0.054 C 
ENDROOT
BRANCH   5  11
ATOM     11  O   LIG    1       -1.651   6.166  -1.960  0.00  0.00    -0.506 OA
ATOM     12  H   LIG    1       -0.753   5.880  -2.141  0.00  0.00    +0.292 HD
ENDBRANCH   5  11
BRANCH   1  13
ATOM     13  N   LIG    1       -0.134   0.075   0.207  0.00  0.00    -0.299 NA
BRANCH  13  14
ATOM     14  C   LIG    1        1.304   0.073   0.527  0.00  0.00    +0.090 C 
BRANCH  14  15
ATOM     15  C   LIG    1        1.717  -0.981   1.583  0.00  0.00    +0.058 C 
BRANCH  15  20
ATOM     16  S   LIG    1        0.745  -3.597   2.124  0.00  0.00    -0.102 S 
ATOM     17  C   LIG    1        1.125  -4.884   1.032  0.00  0.00    +0.045 A 
ATOM     18  C   LIG    1        1.907  -4.445  -0.019  0.00  0.00    +0.008 A 
ATOM     19  C   LIG    1        2.192  -3.079   0.063  0.00  0.00    +0.011 A 
ATOM     20  C   LIG    1        1.620  -2.434   1.161  0.00  0.00    -0.009 A 
ENDBRANCH  15  20
ENDBRANCH  14  15
ENDBRANCH  13  14
BRANCH  13  21
ATOM     21  C   LIG    1       -0.505  -0.917  -0.815  0.00  0.00    +0.084 C 
BRANCH  21  22
ATOM     22  C   LIG    1       -1.719  -1.763  -0.380  0.00  0.00    +0.012 C 
ATOM     23  C   LIG    1       -2.325  -2.570  -1.535  0.00  0.00    +0.005 C 
ENDBRANCH  21  22
ENDBRANCH  13  21
ENDBRANCH   1  13
TORSDOF 7
