REMARK  Name = DB05546
REMARK                            x       y       z     vdW  Elec       q    Type
REMARK                         _______ _______ _______ _____ _____    ______ ____
ROOT
ATOM      1  C   LIG    1        0.157  -0.429   0.310  0.00  0.00    +0.145 C 
ENDROOT
BRANCH   1   8
ATOM      2  C   LIG    1       -1.863  -1.911   6.218  0.00  0.00    +0.021 A 
ATOM      3  C   LIG    1       -1.548  -0.561   6.060  0.00  0.00    +0.044 A 
ATOM      4 CL   LIG    1       -1.707   0.525   7.392  0.00  0.00    -0.083 Cl
ATOM      5  C   LIG    1       -1.103  -0.090   4.826  0.00  0.00    +0.067 A 
ATOM      6  C   LIG    1       -0.977  -0.974   3.756  0.00  0.00    +0.140 A 
ATOM      7  O   LIG    1       -0.528  -0.448   2.567  0.00  0.00    -0.457 OA
ATOM      8  C   LIG    1       -0.367  -1.266   1.490  0.00  0.00    +0.133 A 
ATOM      9  C   LIG    1       -0.639  -2.599   1.497  0.00  0.00    +0.044 A 
ATOM     10  C   LIG    1       -1.128  -3.263   2.730  0.00  0.00    +0.196 A 
ATOM     11  O   LIG    1       -1.383  -4.465   2.836  0.00  0.00    -0.287 OA
ATOM     12  C   LIG    1       -1.285  -2.335   3.894  0.00  0.00    +0.064 A 
ATOM     13  C   LIG    1       -1.733  -2.792   5.143  0.00  0.00    +0.017 A 
BRANCH   9  14
ATOM     14  C   LIG    1       -0.439  -3.539   0.299  0.00  0.00    +0.077 C 
BRANCH  14  15
ATOM     15  C   LIG    1       -1.734  -4.053  -0.322  0.00  0.00    -0.043 A 
ATOM     16  C   LIG    1       -2.586  -3.165  -0.986  0.00  0.00    +0.004 A 
ATOM     17  C   LIG    1       -3.765  -3.630  -1.562  0.00  0.00    +0.000 A 
ATOM     18  C   LIG    1       -4.088  -4.983  -1.476  0.00  0.00    +0.000 A 
ATOM     19  C   LIG    1       -3.240  -5.875  -0.823  0.00  0.00    +0.000 A 
ATOM     20  C   LIG    1       -2.060  -5.411  -0.248  0.00  0.00    +0.004 A 
ENDBRANCH  14  15
ENDBRANCH   9  14
ENDBRANCH   1   8
BRANCH   1  21
ATOM     21  N   LIG    1        1.640  -0.302   0.338  0.00  0.00    -0.287 N 
ATOM     22  C   LIG    1        2.415  -0.853  -0.643  0.00  0.00    +0.247 C 
ATOM     23  O   LIG    1        1.968  -1.596  -1.519  0.00  0.00    -0.270 OA
BRANCH  22  24
ATOM     24  C   LIG    1        3.888  -0.529  -0.689  0.00  0.00    +0.037 A 
ATOM     25  C   LIG    1        4.329   0.796  -0.797  0.00  0.00    +0.013 A 
ATOM     26  C   LIG    1        5.691   1.077  -0.858  0.00  0.00    +0.004 A 
ATOM     27  C   LIG    1        6.619   0.036  -0.828  0.00  0.00    -0.050 A 
ATOM     28  C   LIG    1        8.104   0.348  -0.884  0.00  0.00    +0.044 C 
ATOM     29  C   LIG    1        6.185  -1.287  -0.736  0.00  0.00    +0.004 A 
ATOM     30  C   LIG    1        4.823  -1.569  -0.676  0.00  0.00    +0.013 A 
ENDBRANCH  22  24
BRANCH  21  31
ATOM     31  C   LIG    1        2.199   0.369   1.532  0.00  0.00    +0.107 C 
BRANCH  31  32
ATOM     32  C   LIG    1        2.837  -0.595   2.553  0.00  0.00    -0.001 C 
BRANCH  32  33
ATOM     33  C   LIG    1        3.263   0.135   3.835  0.00  0.00    -0.085 C 
BRANCH  33  34
ATOM     34  N   LIG    1        3.881  -0.860   4.822  0.00  0.00    +0.378 N 
ATOM     35  H   LIG    1        3.209  -1.575   5.065  0.00  0.00    -0.090 HD
ATOM     36  H   LIG    1        4.690  -1.302   4.410  0.00  0.00    -0.090 HD
ATOM     37  H   LIG    1        4.165  -0.383   5.665  0.00  0.00    -0.090 HD
ENDBRANCH  33  34
ENDBRANCH  32  33
ENDBRANCH  31  32
ENDBRANCH  21  31
ENDBRANCH   1  21
BRANCH   1  38
ATOM     38  C   LIG    1       -0.578   0.937   0.100  0.00  0.00    +0.011 C 
ATOM     39  C   LIG    1       -0.001   1.758  -1.074  0.00  0.00    +0.009 C 
ATOM     40  C   LIG    1       -2.100   0.762  -0.085  0.00  0.00    +0.009 C 
ENDBRANCH   1  38
TORSDOF 10
