REMARK  Name = DB05779
REMARK                            x       y       z     vdW  Elec       q    Type
REMARK                         _______ _______ _______ _____ _____    ______ ____
ROOT
ATOM      1  CA  TRP A  2       -1.959   1.565  -0.151  0.00  0.00    +0.186 C 
ENDROOT
BRANCH   1   3
ATOM      2  C   GLU A  1       -0.068  -0.081  -0.098  0.00  0.00    +0.199 C 
ATOM      3  N   TRP A  2       -0.549   1.173   0.016  0.00  0.00    -0.303 N 
ATOM      4  H   TRP A  2        0.093   1.934   0.182  0.00  0.00    +0.149 HD
ATOM      5  O   GLU A  1       -0.772  -1.064  -0.338  0.00  0.00    -0.278 OA
BRANCH   2   6
ATOM      6  CA  GLU A  1        1.457  -0.255   0.087  0.00  0.00    +0.013 C 
BRANCH   6   7
ATOM      7  N   GLU A  1        1.648  -0.335   1.574  0.00  0.00    +0.386 N 
ATOM      8  H1  GLU A  1        1.178  -1.161   1.918  0.00  0.00    -0.089 HD
ATOM      9  H2  GLU A  1        2.637  -0.400   1.771  0.00  0.00    -0.089 HD
ATOM     10  H3  GLU A  1        1.267   0.495   2.004  0.00  0.00    -0.089 HD
ENDBRANCH   6   7
BRANCH   6  11
ATOM     11  CB  GLU A  1        2.095  -1.463  -0.648  0.00  0.00    +0.004 C 
BRANCH  11  12
ATOM     12  CG  GLU A  1        2.018  -1.372  -2.192  0.00  0.00    +0.119 C 
BRANCH  12  13
ATOM     13  CD  GLU A  1        2.713  -2.514  -2.958  0.00  0.00    +0.305 C 
ATOM     14  OE1 GLU A  1        3.243  -3.449  -2.315  0.00  0.00    -0.251 OA
BRANCH  13  15
ATOM     15  OE2 GLU A  1        2.707  -2.428  -4.205  0.00  0.00    -0.481 OA
ATOM     16  HE2 GLU A  1        2.291  -1.699  -4.623  0.00  0.00    +0.295 HD
ENDBRANCH  13  15
ENDBRANCH  12  13
ENDBRANCH  11  12
ENDBRANCH   6  11
ENDBRANCH   2   6
ENDBRANCH   1   3
BRANCH   1  17
ATOM     17  C   TRP A  2       -2.361   1.752  -1.666  0.00  0.00    +0.326 C 
ATOM     18  O   TRP A  2       -3.548   1.445  -1.924  0.00  0.00    -0.249 OA
BRANCH  17  19
ATOM     19  OXT TRP A  2       -1.487   2.229  -2.431  0.00  0.00    -0.479 OA
ATOM     20  HXT TRP A  2       -0.629   2.414  -2.103  0.00  0.00    +0.295 HD
ENDBRANCH  17  19
ENDBRANCH   1  17
BRANCH   1  21
ATOM     21  CB  TRP A  2       -2.194   2.893   0.622  0.00  0.00    +0.071 C 
BRANCH  21  22
ATOM     22  CG  TRP A  2       -3.619   3.323   0.831  0.00  0.00    -0.020 A 
ATOM     23  CD2 TRP A  2       -4.431   4.236   0.028  0.00  0.00    +0.003 A 
ATOM     24  CE3 TRP A  2       -4.201   5.016  -1.130  0.00  0.00    +0.010 A 
ATOM     25  CZ3 TRP A  2       -5.218   5.822  -1.684  0.00  0.00    +0.001 A 
ATOM     26  CH2 TRP A  2       -6.494   5.867  -1.090  0.00  0.00    +0.002 A 
ATOM     27  CZ2 TRP A  2       -6.760   5.101   0.060  0.00  0.00    +0.026 A 
ATOM     28  CE2 TRP A  2       -5.739   4.300   0.601  0.00  0.00    +0.047 A 
ATOM     29  NE1 TRP A  2       -5.680   3.448   1.684  0.00  0.00    -0.360 N 
ATOM     30  HE1 TRP A  2       -6.441   3.244   2.315  0.00  0.00    +0.165 HD
ATOM     31  CD1 TRP A  2       -4.435   2.866   1.808  0.00  0.00    +0.087 A 
ENDBRANCH  21  22
ENDBRANCH   1  21
TORSDOF 11
