REMARK  Name = DB05686
REMARK                            x       y       z     vdW  Elec       q    Type
REMARK                         _______ _______ _______ _____ _____    ______ ____
ROOT
ATOM      1  C   LIG    1       -0.398   1.250   0.004  0.00  0.00    +0.096 C 
ATOM      2  N   LIG    1        0.113   0.073  -0.011  0.00  0.00    -0.181 NA
ENDROOT
BRANCH   1   4
ATOM      3  C   LIG    1        0.253   3.451  -0.982  0.00  0.00    +0.013 A 
ATOM      4  C   LIG    1        0.410   2.495   0.030  0.00  0.00    +0.003 A 
ATOM      5  C   LIG    1        1.324   2.744   1.064  0.00  0.00    +0.013 A 
ATOM      6  C   LIG    1        2.073   3.918   1.079  0.00  0.00    +0.046 A 
ATOM      7  C   LIG    1        1.907   4.856   0.063  0.00  0.00    +0.117 A 
ATOM      8  C   LIG    1        0.998   4.627  -0.967  0.00  0.00    +0.046 A 
BRANCH   7   9
ATOM      9  O   LIG    1        2.641   6.011   0.076  0.00  0.00    -0.507 OA
ATOM     10  H   LIG    1        3.241   6.065   0.824  0.00  0.00    +0.292 HD
ENDBRANCH   7   9
ENDBRANCH   1   4
BRANCH   1  11
ATOM     11  C   LIG    1       -1.879   1.373   0.009  0.00  0.00    +0.003 A 
ATOM     12  C   LIG    1       -2.693   0.384  -0.571  0.00  0.00    +0.013 A 
ATOM     13  C   LIG    1       -4.080   0.505  -0.571  0.00  0.00    +0.046 A 
ATOM     14  C   LIG    1       -4.676   1.619   0.013  0.00  0.00    +0.117 A 
ATOM     15  C   LIG    1       -3.893   2.610   0.597  0.00  0.00    +0.046 A 
ATOM     16  C   LIG    1       -2.506   2.486   0.594  0.00  0.00    +0.013 A 
BRANCH  14  17
ATOM     17  O   LIG    1       -6.040   1.742   0.012  0.00  0.00    -0.507 OA
ATOM     18  H   LIG    1       -6.482   1.006  -0.416  0.00  0.00    +0.292 HD
ENDBRANCH  14  17
ENDBRANCH   1  11
BRANCH   2  19
ATOM     19  N   LIG    1        1.509  -0.109  -0.072  0.00  0.00    -0.235 N 
ATOM     20  H   LIG    1        2.038   0.752  -0.088  0.00  0.00    +0.174 HD
BRANCH  19  21
ATOM     21  C   LIG    1        2.191  -1.337  -0.068  0.00  0.00    +0.078 A 
ATOM     22  C   LIG    1        3.608  -1.405  -0.057  0.00  0.00    +0.146 A 
ATOM     23  C   LIG    1        4.213  -2.676  -0.060  0.00  0.00    +0.067 A 
ATOM     24  C   LIG    1        3.470  -3.863  -0.069  0.00  0.00    +0.124 A 
ATOM     25  C   LIG    1        2.076  -3.769  -0.078  0.00  0.00    +0.034 A 
ATOM     26  C   LIG    1        1.451  -2.528  -0.078  0.00  0.00    +0.029 A 
BRANCH  22  27
ATOM     27  N   LIG    1        4.493  -0.199  -0.039  0.00  0.00    +0.008 N 
ATOM     28  O   LIG    1        5.710  -0.367  -0.051  0.00  0.00    -0.130 OA
BRANCH  27  29
ATOM     29  O   LIG    1        4.009   0.928  -0.009  0.00  0.00    -0.396 OA
ATOM     30  H   LIG    1        3.078   1.037   0.001  0.00  0.00    +0.329 HD
ENDBRANCH  27  29
ENDBRANCH  22  27
BRANCH  24  31
ATOM     31  N   LIG    1        4.141  -5.185  -0.068  0.00  0.00    +0.006 N 
ATOM     32  O   LIG    1        5.369  -5.223  -0.066  0.00  0.00    -0.130 OA
BRANCH  31  33
ATOM     33  O   LIG    1        3.446  -6.197  -0.070  0.00  0.00    -0.396 OA
ATOM     34  H   LIG    1        2.512  -6.124  -0.072  0.00  0.00    +0.329 HD
ENDBRANCH  31  33
ENDBRANCH  24  31
ENDBRANCH  19  21
ENDBRANCH   2  19
TORSDOF 10
