REMARK  Name = DB05492
REMARK                            x       y       z     vdW  Elec       q    Type
REMARK                         _______ _______ _______ _____ _____    ______ ____
ROOT
ATOM      1  C   LIG    1       -2.150   1.257   0.017  0.00  0.00    +0.143 A 
ATOM      2  C   LIG    1       -2.829   2.490   0.036  0.00  0.00    +0.037 A 
ATOM      3  C   LIG    1       -2.150   3.706   0.027  0.00  0.00    -0.048 A 
ATOM      4  C   LIG    1       -2.927   5.011   0.048  0.00  0.00    +0.044 C 
ATOM      5  C   LIG    1       -0.760   3.712  -0.002  0.00  0.00    +0.005 A 
ATOM      6  C   LIG    1       -0.060   2.510  -0.021  0.00  0.00    +0.025 A 
ATOM      7  C   LIG    1       -0.730   1.275  -0.011  0.00  0.00    +0.058 A 
ENDROOT
BRANCH   1   8
ATOM      8  N   LIG    1       -2.966   0.002   0.029  0.00  0.00    +0.008 N 
ATOM      9  O   LIG    1       -2.421  -1.097   0.013  0.00  0.00    -0.130 OA
BRANCH   8  10
ATOM     10  O   LIG    1       -4.190   0.102   0.054  0.00  0.00    -0.396 OA
ATOM     11  H   LIG    1       -4.724  -0.668   0.062  0.00  0.00    +0.329 HD
ENDBRANCH   8  10
ENDBRANCH   1   8
BRANCH   7  12
ATOM     12  N   LIG    1        0.014   0.077  -0.026  0.00  0.00    -0.342 N 
ATOM     13  H   LIG    1       -0.491  -0.798  -0.021  0.00  0.00    +0.146 HD
BRANCH  12  14
ATOM     14  C   LIG    1        1.470   0.025  -0.041  0.00  0.00    +0.100 C 
BRANCH  14  15
ATOM     15  C   LIG    1        2.013  -1.412  -0.037  0.00  0.00    -0.001 C 
BRANCH  15  16
ATOM     16  C   LIG    1        3.549  -1.454  -0.021  0.00  0.00    -0.085 C 
BRANCH  16  17
ATOM     17  N   LIG    1        4.033  -2.908  -0.004  0.00  0.00    +0.378 N 
ATOM     18  H   LIG    1        3.683  -3.381   0.818  0.00  0.00    -0.090 HD
ATOM     19  H   LIG    1        3.704  -3.395  -0.825  0.00  0.00    -0.090 HD
ATOM     20  H   LIG    1        5.042  -2.938   0.010  0.00  0.00    -0.090 HD
ENDBRANCH  16  17
ENDBRANCH  15  16
ENDBRANCH  14  15
ENDBRANCH  12  14
ENDBRANCH   7  12
TORSDOF 7
