REMARK  Name = DB05229
REMARK                            x       y       z     vdW  Elec       q    Type
REMARK                         _______ _______ _______ _____ _____    ______ ____
ROOT
ATOM      1  C   LIG    1       -2.571   1.523  -0.463  0.00  0.00    +0.051 C 
ATOM      2  C   LIG    1       -3.465   1.341  -1.697  0.00  0.00    +0.126 C 
ATOM      3  C   LIG    1       -4.823   0.909  -1.132  0.00  0.00    +0.077 C 
ATOM      4  C   LIG    1       -4.524   0.192   0.195  0.00  0.00    +0.184 C 
ATOM      5  O   LIG    1       -5.294   0.664   1.303  0.00  0.00    -0.488 OA
ATOM      6  C   LIG    1       -4.429   0.895   2.342  0.00  0.00    +0.128 A 
ATOM      7  C   LIG    1       -4.819   1.257   3.635  0.00  0.00    -0.005 A 
ATOM      8  C   LIG    1       -3.811   1.474   4.583  0.00  0.00    +0.007 A 
ATOM      9  C   LIG    1       -2.462   1.339   4.235  0.00  0.00    +0.001 A 
ATOM     10  C   LIG    1       -2.102   0.988   2.931  0.00  0.00    +0.007 A 
ATOM     11  C   LIG    1       -3.100   0.762   1.983  0.00  0.00    +0.002 A 
ATOM     12  C   LIG    1       -3.039   0.429   0.524  0.00  0.00    +0.073 C 
ENDROOT
BRANCH   2  13
ATOM     13  O   LIG    1       -3.543   2.444  -2.578  0.00  0.00    -0.391 OA
ATOM     14  H   LIG    1       -2.720   2.501  -3.068  0.00  0.00    +0.210 HD
ENDBRANCH   2  13
BRANCH   1  15
ATOM     15  C   LIG    1       -1.079   1.570  -0.783  0.00  0.00    -0.022 C 
ATOM     16  C   LIG    1       -0.107   0.808  -0.246  0.00  0.00    +0.000 C 
BRANCH  16  17
ATOM     17  C   LIG    1        1.366   0.901  -0.611  0.00  0.00    +0.141 C 
BRANCH  17  18
ATOM     18  C   LIG    1        1.951  -0.393  -1.250  0.00  0.00    +0.030 C 
ATOM     19  C   LIG    1        1.148  -0.817  -2.506  0.00  0.00    +0.011 C 
BRANCH  18  20
ATOM     20  C   LIG    1        3.470  -0.250  -1.559  0.00  0.00    +0.095 C 
BRANCH  20  21
ATOM     21  C   LIG    1        4.159  -1.479  -1.996  0.00  0.00    -0.102 C 
ATOM     22  C   LIG    1        4.729  -2.492  -2.371  0.00  0.00    -0.106 C 
ATOM     23  C   LIG    1        5.420  -3.705  -2.833  0.00  0.00    +0.106 C 
ENDBRANCH  20  21
ENDBRANCH  18  20
ENDBRANCH  17  18
BRANCH  17  24
ATOM     24  O   LIG    1        2.051   1.218   0.586  0.00  0.00    -0.387 OA
ATOM     25  H   LIG    1        2.995   1.163   0.420  0.00  0.00    +0.210 HD
ENDBRANCH  17  24
ENDBRANCH  16  17
ENDBRANCH   1  15
BRANCH   7  26
ATOM     26  C   LIG    1       -6.284   1.409   4.029  0.00  0.00    +0.039 C 
BRANCH  26  27
ATOM     27  C   LIG    1       -7.052   0.073   4.095  0.00  0.00    +0.016 C 
BRANCH  27  28
ATOM     28  C   LIG    1       -6.510  -0.907   5.170  0.00  0.00    +0.121 C 
BRANCH  28  29
ATOM     29  C   LIG    1       -7.338  -2.201   5.358  0.00  0.00    +0.305 C 
ATOM     30  O   LIG    1       -7.011  -2.927   6.324  0.00  0.00    -0.251 OA
BRANCH  29  31
ATOM     31  O   LIG    1       -8.262  -2.479   4.559  0.00  0.00    -0.481 OA
ATOM     32  H   LIG    1       -8.762  -3.263   4.674  0.00  0.00    +0.295 HD
ENDBRANCH  29  31
ENDBRANCH  28  29
ENDBRANCH  27  28
ENDBRANCH  26  27
ENDBRANCH   7  26
TORSDOF 12
