REMARK  Name = DB05107
REMARK                            x       y       z     vdW  Elec       q    Type
REMARK                         _______ _______ _______ _____ _____    ______ ____
ROOT
ATOM      1 BR   LIG    1       10.946  -1.619  -2.561  0.00  0.00    -0.080 Br
ATOM      2  C   LIG    1        9.747  -3.116  -2.014  0.00  0.00    +0.123 C 
ATOM      3  C   LIG    1        9.622  -3.103  -0.479  0.00  0.00    +0.153 C 
ATOM      4  C   LIG    1        8.118  -3.089  -0.141  0.00  0.00    +0.030 C 
ATOM      5  C   LIG    1        7.690  -4.591  -0.080  0.00  0.00    +0.019 C 
ATOM      6  C   LIG    1        7.693  -2.319   1.133  0.00  0.00    +0.015 C 
ATOM      7  C   LIG    1        6.149  -2.254   1.230  0.00  0.00    +0.005 C 
ATOM      8  C   LIG    1        5.472  -1.644  -0.044  0.00  0.00    -0.001 C 
ATOM      9  C   LIG    1        6.016  -2.279  -1.377  0.00  0.00    -0.003 C 
ATOM     10  C   LIG    1        5.477  -1.486  -2.592  0.00  0.00    +0.004 C 
ATOM     11  C   LIG    1        3.942  -1.397  -2.577  0.00  0.00    +0.004 C 
ATOM     12  C   LIG    1        3.425  -0.781  -1.253  0.00  0.00    -0.002 C 
ATOM     13  C   LIG    1        1.890  -0.569  -1.274  0.00  0.00    +0.035 C 
ATOM     14  C   LIG    1        1.361   0.111   0.008  0.00  0.00    +0.115 C 
ATOM     15  C   LIG    1        1.879  -0.570   1.295  0.00  0.00    +0.032 C 
ATOM     16  C   LIG    1        3.404  -0.815   1.254  0.00  0.00    +0.010 C 
ATOM     17  C   LIG    1        3.892  -1.609   0.001  0.00  0.00    -0.026 C 
ATOM     18  C   LIG    1        3.288  -3.048   0.013  0.00  0.00    +0.012 C 
ATOM     19  C   LIG    1        7.569  -2.310  -1.357  0.00  0.00    +0.007 C 
ATOM     20  O   LIG    1       10.552  -3.070   0.327  0.00  0.00    -0.296 OA
ATOM     21  C   LIG    1        8.331  -2.860  -2.559  0.00  0.00    +0.027 C 
ENDROOT
BRANCH  14  22
ATOM     22  O   LIG    1       -0.051   0.157   0.002  0.00  0.00    -0.392 OA
ATOM     23  H   LIG    1       -0.326   1.077   0.001  0.00  0.00    +0.210 HD
ENDBRANCH  14  22
TORSDOF 1
