REMARK  Name = DB05973
REMARK                            x       y       z     vdW  Elec       q    Type
REMARK                         _______ _______ _______ _____ _____    ______ ____
ROOT
ATOM      1  C   LIG    1       -2.160   0.768  -0.554  0.00  0.00    +0.253 C 
ATOM      2  O   LIG    1       -1.093   0.540   0.315  0.00  0.00    -0.346 OA
ATOM      3  C   LIG    1       -0.339  -0.607  -0.071  0.00  0.00    +0.180 C 
ATOM      4  C   LIG    1       -1.059  -1.133  -1.324  0.00  0.00    +0.178 C 
ATOM      5  C   LIG    1       -1.767   0.107  -1.873  0.00  0.00    +0.195 C 
ENDROOT
BRANCH   1   9
ATOM      6  C   LIG    1        0.264   4.235  -1.793  0.00  0.00    +0.201 A 
ATOM      7  N   LIG    1       -0.311   3.117  -1.498  0.00  0.00    -0.218 NA
ATOM      8  C   LIG    1       -1.597   3.213  -1.049  0.00  0.00    +0.169 A 
ATOM      9  N   LIG    1       -2.417   2.191  -0.623  0.00  0.00    -0.285 N 
ATOM     10  C   LIG    1       -3.568   2.863  -0.258  0.00  0.00    +0.203 A 
ATOM     11  N   LIG    1       -3.527   4.168  -0.420  0.00  0.00    -0.229 NA
ATOM     12  C   LIG    1       -2.318   4.395  -0.896  0.00  0.00    +0.172 A 
ATOM     13  C   LIG    1       -1.687   5.670  -1.247  0.00  0.00    +0.279 A 
ATOM     14  O   LIG    1       -2.166   6.801  -1.192  0.00  0.00    -0.265 OA
ATOM     15  N   LIG    1       -0.397   5.449  -1.675  0.00  0.00    -0.312 N 
ATOM     16  H   LIG    1        0.115   6.282  -1.926  0.00  0.00    +0.170 HD
ENDBRANCH   1   9
BRANCH   4  17
ATOM     17  O   LIG    1       -1.935  -2.208  -1.019  0.00  0.00    -0.386 OA
ATOM     18  H   LIG    1       -1.452  -2.860  -0.505  0.00  0.00    +0.210 HD
ENDBRANCH   4  17
BRANCH   5  19
ATOM     19  O   LIG    1       -2.906  -0.107  -2.688  0.00  0.00    -0.385 OA
ATOM     20  H   LIG    1       -2.614  -0.455  -3.534  0.00  0.00    +0.210 HD
ENDBRANCH   5  19
BRANCH   3  21
ATOM     21  C   LIG    1        1.113  -0.156  -0.311  0.00  0.00    +0.230 C 
BRANCH  21  22
ATOM     22  O   LIG    1        1.657   0.369   0.890  0.00  0.00    -0.213 OA
BRANCH  22  23
ATOM     23  S   LIG    1        3.074   1.247   0.780  0.00  0.00    +0.208 S 
ATOM     24  O   LIG    1        2.716   2.409  -0.042  0.00  0.00    -0.118 OA
ATOM     25  O   LIG    1        4.018   0.324   0.140  0.00  0.00    -0.118 OA
BRANCH  23  26
ATOM     26  O   LIG    1        3.390   1.567   2.176  0.00  0.00    -0.231 OA
ATOM     27  H   LIG    1        3.615   0.752   2.652  0.00  0.00    +0.247 HD
ENDBRANCH  23  26
ENDBRANCH  22  23
ENDBRANCH  21  22
ENDBRANCH   3  21
TORSDOF 7
