REMARK  Name = DB05491
REMARK                            x       y       z     vdW  Elec       q    Type
REMARK                         _______ _______ _______ _____ _____    ______ ____
ROOT
ATOM      1  C   UNK A  1        1.414  -0.283  -0.313  0.00  0.00    +0.184 C 
ENDROOT
BRANCH   1   4
ATOM      2  N   UNK A  1       -0.685   0.946  -0.129  0.00  0.00    -0.302 N 
ATOM      3  H   UNK A  1       -0.107   1.770  -0.211  0.00  0.00    +0.150 HD
ATOM      4  C   UNK A  1       -0.116  -0.269  -0.165  0.00  0.00    +0.236 C 
ATOM      5  O   UNK A  1       -0.739  -1.330  -0.085  0.00  0.00    -0.274 OA
BRANCH   2   6
ATOM      6  C   UNK A  1       -2.124   1.185  -0.015  0.00  0.00    +0.168 C 
BRANCH   6   9
ATOM      7  N   UNK A  1       -3.892   0.811  -1.653  0.00  0.00    -0.302 N 
ATOM      8  H   UNK A  1       -4.315   0.245  -0.932  0.00  0.00    +0.150 HD
ATOM      9  C   UNK A  1       -2.716   1.412  -1.413  0.00  0.00    +0.235 C 
ATOM     10  O   UNK A  1       -2.122   2.130  -2.220  0.00  0.00    -0.274 OA
BRANCH   7  11
ATOM     11  C   UNK A  1       -4.654   0.932  -2.903  0.00  0.00    +0.167 C 
BRANCH  11  13
ATOM     12  O   UNK A  1       -5.624   2.957  -1.982  0.00  0.00    -0.274 OA
ATOM     13  C   UNK A  1       -5.441   2.261  -2.982  0.00  0.00    +0.231 C 
ATOM     14  N   UNK A  1       -5.915   2.598  -4.185  0.00  0.00    -0.328 N 
ATOM     15  H   UNK A  1       -5.745   2.007  -4.986  0.00  0.00    +0.145 HD
ATOM     16  H   UNK A  1       -6.439   3.453  -4.300  0.00  0.00    +0.145 HD
ENDBRANCH  11  13
BRANCH  11  17
ATOM     17  C   UNK A  1       -5.611  -0.284  -3.017  0.00  0.00    +0.127 C 
BRANCH  17  18
ATOM     18  C   UNK A  1       -4.911  -1.647  -3.123  0.00  0.00    +0.213 C 
ATOM     19  O   UNK A  1       -3.731  -1.737  -3.458  0.00  0.00    -0.276 OA
ATOM     20  N   UNK A  1       -5.653  -2.722  -2.852  0.00  0.00    -0.329 N 
ATOM     21  H   UNK A  1       -5.249  -3.646  -2.915  0.00  0.00    +0.145 HD
ATOM     22  H   UNK A  1       -6.623  -2.624  -2.587  0.00  0.00    +0.145 HD
ENDBRANCH  17  18
ENDBRANCH  11  17
ENDBRANCH   7  11
ENDBRANCH   6   9
BRANCH   6  23
ATOM     23  C   UNK A  1       -2.421   2.401   0.883  0.00  0.00    +0.097 C 
BRANCH  23  24
ATOM     24  S   UNK A  1       -2.002   2.012   2.606  0.00  0.00    -0.176 S 
ATOM     25  H   UNK A  1       -2.370   3.195   3.107  0.00  0.00    +0.102 HD
ENDBRANCH  23  24
ENDBRANCH   6  23
ENDBRANCH   2   6
ENDBRANCH   1   4
BRANCH   1  26
ATOM     26  N   UNK A  1        1.964  -1.400   0.450  0.00  0.00    -0.301 N 
ATOM     27  H   UNK A  1        1.446  -2.264   0.381  0.00  0.00    +0.150 HD
ATOM     28  C   UNK A  1        3.029  -1.333   1.264  0.00  0.00    +0.234 C 
ATOM     29  O   UNK A  1        3.735  -0.336   1.415  0.00  0.00    -0.274 OA
BRANCH  28  30
ATOM     30  C   UNK A  1        3.297  -2.598   2.099  0.00  0.00    +0.161 C 
BRANCH  30  31
ATOM     31  N   UNK A  1        4.730  -2.847   2.266  0.00  0.00    -0.302 N 
ATOM     32  H   UNK A  1        5.109  -2.657   3.183  0.00  0.00    +0.150 HD
ATOM     33  C   UNK A  0        5.550  -3.276   1.293  0.00  0.00    +0.234 C 
ATOM     34  O   UNK A  0        5.186  -3.547   0.148  0.00  0.00    -0.274 OA
BRANCH  33  35
ATOM     35  C   UNK A  0        7.031  -3.442   1.688  0.00  0.00    +0.162 C 
ATOM     36  C   UNK A  0        7.998  -2.861   0.641  0.00  0.00    +0.033 C 
ATOM     37  C   UNK A  0        8.362  -4.039  -0.251  0.00  0.00    +0.021 C 
ATOM     38  C   UNK A  0        8.383  -5.214   0.720  0.00  0.00    +0.108 C 
ATOM     39  N   UNK A  0        7.437  -4.855   1.779  0.00  0.00    -0.290 N 
ATOM     40  C   UNK A  0        7.011  -5.698   2.748  0.00  0.00    +0.213 C 
ATOM     41  O   UNK A  0        6.241  -5.351   3.644  0.00  0.00    -0.276 OA
ATOM     42  C   UNK A  0        7.520  -7.141   2.734  0.00  0.00    +0.109 C 
ENDBRANCH  33  35
ENDBRANCH  30  31
BRANCH  30  43
ATOM     43  C   UNK A  1        2.649  -2.488   3.498  0.00  0.00    +0.057 C 
BRANCH  43  44
ATOM     44  C   UNK A  1        1.153  -2.266   3.505  0.00  0.00    +0.059 C 
ATOM     45  N   UNK A  1        0.278  -3.146   2.883  0.00  0.00    -0.290 NA
ATOM     46  H   UNK A  1        0.516  -4.034   2.463  0.00  0.00    +0.124 HD
ATOM     47  C   UNK A  1       -0.934  -2.597   2.938  0.00  0.00    +0.155 C 
ATOM     48  N   UNK A  1       -0.907  -1.398   3.515  0.00  0.00    -0.293 NA
ATOM     49  H   UNK A  1       -1.691  -0.774   3.648  0.00  0.00    +0.124 HD
ATOM     50  C   UNK A  1        0.412  -1.151   3.855  0.00  0.00    +0.096 C 
ENDBRANCH  43  44
ENDBRANCH  30  43
ENDBRANCH  28  30
ENDBRANCH   1  26
BRANCH   1  51
ATOM     51  C   UNK A  1        1.891  -0.377  -1.780  0.00  0.00    +0.187 C 
BRANCH  51  52
ATOM     52  O   UNK A  1        1.297  -1.452  -2.483  0.00  0.00    -0.393 OA
ATOM     53  H   UNK A  1        1.619  -1.441  -3.388  0.00  0.00    +0.209 HD
ENDBRANCH  51  52
ENDBRANCH   1  51
TORSDOF 17
