REMARK  Name = DB05633
REMARK                            x       y       z     vdW  Elec       q    Type
REMARK                         _______ _______ _______ _____ _____    ______ ____
ROOT
ATOM      1  O   PRO A  2       -0.783   0.540  -2.085  0.00  0.00    -0.274 OA
ATOM      2  C   PRO A  2       -1.115   0.507  -0.900  0.00  0.00    +0.234 C 
ATOM      3  N   GLU A  3       -0.264   0.291   0.117  0.00  0.00    -0.301 N 
ATOM      4  H   GLU A  3       -0.660   0.311   1.045  0.00  0.00    +0.150 HD
ENDROOT
BRANCH   2   5
ATOM      5  CA  PRO A  2       -2.601   0.737  -0.518  0.00  0.00    +0.162 C 
ATOM      6  CB  PRO A  2       -3.212   1.952  -1.237  0.00  0.00    +0.033 C 
ATOM      7  CG  PRO A  2       -2.934   3.116  -0.298  0.00  0.00    +0.021 C 
ATOM      8  CD  PRO A  2       -3.111   2.495   1.084  0.00  0.00    +0.108 C 
ATOM      9  N   PRO A  2       -2.827   1.068   0.909  0.00  0.00    -0.291 N 
ATOM     10  C   GLY A  1       -2.763   0.168   1.921  0.00  0.00    +0.199 C 
ATOM     11  O   GLY A  1       -2.617  -1.038   1.694  0.00  0.00    -0.278 OA
BRANCH  10  12
ATOM     12  CA  GLY A  1       -2.849   0.725   3.366  0.00  0.00    +0.011 C 
BRANCH  12  13
ATOM     13  N   GLY A  1       -2.580  -0.331   4.384  0.00  0.00    +0.384 N 
ATOM     14  H1  GLY A  1       -3.244  -1.089   4.310  0.00  0.00    -0.089 HD
ATOM     15  H2  GLY A  1       -1.650  -0.711   4.270  0.00  0.00    -0.089 HD
ATOM     16  H3  GLY A  1       -2.639   0.046   5.319  0.00  0.00    -0.089 HD
ENDBRANCH  12  13
ENDBRANCH  10  12
ENDBRANCH   2   5
BRANCH   3  17
ATOM     17  CA  GLU A  3        1.193   0.090   0.120  0.00  0.00    +0.182 C 
BRANCH  17  18
ATOM     18  C   GLU A  3        1.709  -1.091  -0.789  0.00  0.00    +0.325 C 
ATOM     19  OXT GLU A  3        2.853  -0.902  -1.263  0.00  0.00    -0.249 OA
BRANCH  18  20
ATOM     20  O   GLU A  3        0.973  -2.104  -0.877  0.00  0.00    -0.479 OA
ATOM     21  H   GLU A  3        0.309  -2.145  -1.537  0.00  0.00    +0.295 HD
ENDBRANCH  18  20
ENDBRANCH  17  18
BRANCH  17  22
ATOM     22  CB  GLU A  3        1.609  -0.212   1.591  0.00  0.00    +0.045 C 
BRANCH  22  23
ATOM     23  CG  GLU A  3        1.234   0.902   2.608  0.00  0.00    +0.123 C 
BRANCH  23  24
ATOM     24  CD  GLU A  3        1.323   0.519   4.096  0.00  0.00    +0.305 C 
ATOM     25  OE2 GLU A  3        0.818   1.329   4.905  0.00  0.00    -0.251 OA
BRANCH  24  26
ATOM     26  OE1 GLU A  3        1.861  -0.563   4.422  0.00  0.00    -0.481 OA
ATOM     27  HE1 GLU A  3        1.352  -1.236   4.829  0.00  0.00    +0.295 HD
ENDBRANCH  24  26
ENDBRANCH  23  24
ENDBRANCH  22  23
ENDBRANCH  17  22
ENDBRANCH   3  17
TORSDOF 10
