REMARK  Name = DB05565
REMARK                            x       y       z     vdW  Elec       q    Type
REMARK                         _______ _______ _______ _____ _____    ______ ____
ROOT
ATOM      1  C   LIG    1        2.030   0.501  -1.492  0.00  0.00    +0.026 A 
ATOM      2  N   LIG    1        1.427   1.689  -1.746  0.00  0.00    -0.250 NA
ATOM      3  C   LIG    1        1.928   2.530  -2.712  0.00  0.00    +0.115 A 
ATOM      4  C   LIG    1        1.288   3.794  -3.002  0.00  0.00    +0.161 A 
ATOM      5  C   LIG    1        1.835   4.626  -4.000  0.00  0.00    +0.086 A 
ATOM      6 CL   LIG    1        1.152   6.168  -4.434  0.00  0.00    -0.080 Cl
ATOM      7  C   LIG    1        2.973   4.238  -4.697  0.00  0.00    +0.044 A 
ATOM      8  C   LIG    1        3.611   3.032  -4.444  0.00  0.00    +0.052 A 
ATOM      9 CL   LIG    1        5.024   2.644  -5.366  0.00  0.00    -0.083 Cl
ATOM     10  C   LIG    1        3.101   2.156  -3.449  0.00  0.00    +0.022 A 
ATOM     11  C   LIG    1        3.712   0.907  -3.146  0.00  0.00    +0.013 A 
ATOM     12  C   LIG    1        3.172   0.084  -2.164  0.00  0.00    +0.022 A 
ENDROOT
BRANCH   4  13
ATOM     13  O   LIG    1        0.235   4.171  -2.372  0.00  0.00    -0.503 OA
ATOM     14  H   LIG    1       -0.164   4.995  -2.575  0.00  0.00    +0.292 HD
ENDBRANCH   4  13
BRANCH   1  15
ATOM     15  C   LIG    1        1.429  -0.382  -0.400  0.00  0.00    -0.023 C 
BRANCH  15  17
ATOM     16  C   LIG    1       -0.322  -0.703   1.443  0.00  0.00    -0.096 C 
ATOM     17  N   LIG    1        0.006  -0.026   0.098  0.00  0.00    +0.380 N 
ATOM     18  H   LIG    1       -0.005   0.973   0.255  0.00  0.00    -0.082 HD
ATOM     19  C   LIG    1       -1.079  -0.336  -0.954  0.00  0.00    -0.096 C 
ENDBRANCH  15  17
ENDBRANCH   1  15
TORSDOF 3
