REMARK  Name = DB05969
REMARK                            x       y       z     vdW  Elec       q    Type
REMARK                         _______ _______ _______ _____ _____    ______ ____
ROOT
ATOM      1  C   LIG    1        1.739  -2.071  -2.225  0.00  0.00    +0.067 A 
ATOM      2  S   LIG    1        1.240  -2.439  -0.596  0.00  0.00    -0.046 S 
ATOM      3  C   LIG    1        1.389  -4.123  -0.979  0.00  0.00    +0.165 A 
ATOM      4  N   LIG    1        1.772  -4.378  -2.210  0.00  0.00    -0.232 NA
ATOM      5  C   LIG    1        1.965  -3.269  -2.897  0.00  0.00    +0.135 A 
ENDROOT
BRANCH   3   6
ATOM      6  N   LIG    1        1.097  -5.032   0.029  0.00  0.00    -0.264 N 
ATOM      7  H   LIG    1        0.840  -4.631   0.918  0.00  0.00    +0.157 HD
ATOM      8  C   LIG    1        1.117  -6.381  -0.070  0.00  0.00    +0.222 C 
ATOM      9  O   LIG    1        1.401  -7.002  -1.097  0.00  0.00    -0.275 OA
BRANCH   8  10
ATOM     10  C   LIG    1        0.750  -7.160   1.213  0.00  0.00    +0.072 C 
ATOM     11  C   LIG    1       -0.503  -8.025   0.938  0.00  0.00    -0.007 C 
ATOM     12  C   LIG    1       -0.885  -8.799   2.216  0.00  0.00    -0.082 C 
ATOM     13  N   LIG    1        0.313  -9.651   2.681  0.00  0.00    +0.379 N 
ATOM     14  H   LIG    1        0.069 -10.134   3.534  0.00  0.00    -0.086 HD
ATOM     15  H   LIG    1        0.502 -10.359   1.986  0.00  0.00    -0.086 HD
ATOM     16  C   LIG    1        1.593  -8.823   2.911  0.00  0.00    -0.082 C 
ATOM     17  C   LIG    1        1.946  -8.050   1.625  0.00  0.00    -0.007 C 
ENDBRANCH   8  10
ENDBRANCH   3   6
BRANCH   1  18
ATOM     18  S   LIG    1        1.917  -0.435  -2.843  0.00  0.00    -0.107 S 
BRANCH  18  19
ATOM     19  C   LIG    1        0.174   0.077  -2.756  0.00  0.00    +0.170 C 
BRANCH  19  22
ATOM     20  C   LIG    1       -0.087   2.714  -0.359  0.00  0.00    +0.131 A 
ATOM     21  O   LIG    1        0.265   2.234  -1.578  0.00  0.00    -0.443 OA
ATOM     22  C   LIG    1       -0.114   0.931  -1.544  0.00  0.00    +0.206 A 
ATOM     23  N   LIG    1       -0.658   0.551  -0.411  0.00  0.00    -0.221 NA
ATOM     24  C   LIG    1       -0.654   1.646   0.325  0.00  0.00    +0.156 A 
BRANCH  20  26
ATOM     25  C   LIG    1       -0.524   5.075  -1.084  0.00  0.00    +0.019 C 
ATOM     26  C   LIG    1        0.205   4.180  -0.057  0.00  0.00    +0.022 C 
ATOM     27  C   LIG    1       -0.285   4.541   1.364  0.00  0.00    +0.019 C 
ATOM     28  C   LIG    1        1.727   4.429  -0.145  0.00  0.00    +0.019 C 
ENDBRANCH  20  26
ENDBRANCH  19  22
ENDBRANCH  18  19
ENDBRANCH   1  18
TORSDOF 6
