REMARK  Name = DB05542
REMARK                            x       y       z     vdW  Elec       q    Type
REMARK                         _______ _______ _______ _____ _____    ______ ____
ROOT
ATOM      1  C   LIG    1       -2.795   0.371  -1.200  0.00  0.00    +0.098 C 
ATOM      2  C   LIG    1       -2.160   1.424  -0.252  0.00  0.00    +0.121 C 
ATOM      3  C   LIG    1       -0.615   1.486  -0.341  0.00  0.00    -0.045 C 
ATOM      4  N   LIG    1       -0.012   0.071  -0.163  0.00  0.00    +0.381 N 
ATOM      5  H   LIG    1       -0.314  -0.294   0.730  0.00  0.00    -0.082 HD
ATOM      6  C   LIG    1       -0.536  -0.879  -1.263  0.00  0.00    -0.077 C 
ATOM      7  C   LIG    1       -2.068  -0.989  -1.164  0.00  0.00    +0.006 C 
ENDROOT
BRANCH   1   9
ATOM      8  C   LIG    1       -5.134   1.183  -1.591  0.00  0.00    +0.248 C 
ATOM      9  N   LIG    1       -4.256   0.267  -1.136  0.00  0.00    -0.306 N 
ATOM     10  H   LIG    1       -4.623  -0.616  -0.812  0.00  0.00    +0.149 HD
ATOM     11  O   LIG    1       -4.782   2.237  -2.124  0.00  0.00    -0.270 OA
BRANCH   8  12
ATOM     12  C   LIG    1       -6.601   0.843  -1.409  0.00  0.00    +0.080 A 
ATOM     13  C   LIG    1       -7.577   1.280  -2.333  0.00  0.00    +0.134 A 
ATOM     14  C   LIG    1       -8.926   0.952  -2.103  0.00  0.00    +0.070 A 
ATOM     15  C   LIG    1       -9.313   0.209  -0.989  0.00  0.00    +0.047 A 
ATOM     16  C   LIG    1       -8.346  -0.223  -0.077  0.00  0.00    +0.062 A 
ATOM     17 CL   LIG    1       -8.767  -1.147   1.327  0.00  0.00    -0.082 Cl
ATOM     18  C   LIG    1       -7.007   0.095  -0.291  0.00  0.00    +0.038 A 
BRANCH  15  19
ATOM     19  N   LIG    1      -10.666  -0.088  -0.809  0.00  0.00    -0.357 N 
ATOM     20  H   LIG    1      -10.950  -0.496   0.070  0.00  0.00    +0.142 HD
ATOM     21  H   LIG    1      -11.342   0.381  -1.394  0.00  0.00    +0.142 HD
ENDBRANCH  15  19
BRANCH  13  22
ATOM     22  O   LIG    1       -7.166   2.001  -3.444  0.00  0.00    -0.494 OA
ATOM     23  C   LIG    1       -8.123   2.460  -4.393  0.00  0.00    +0.277 C 
ENDBRANCH  13  22
ENDBRANCH   8  12
ENDBRANCH   1   9
BRANCH   2  24
ATOM     24  O   LIG    1       -2.598   1.164   1.083  0.00  0.00    -0.380 OA
ATOM     25  C   LIG    1       -2.648   2.293   1.946  0.00  0.00    +0.194 C 
ENDBRANCH   2  24
BRANCH   4  26
ATOM     26  C   LIG    1        1.537   0.089  -0.193  0.00  0.00    -0.079 C 
BRANCH  26  27
ATOM     27  C   LIG    1        2.117   0.788   1.051  0.00  0.00    -0.019 C 
BRANCH  27  28
ATOM     28  C   LIG    1        3.640   0.604   1.173  0.00  0.00    -0.001 C 
BRANCH  28  29
ATOM     29  C   LIG    1        4.234   1.329   2.393  0.00  0.00    +0.011 C 
BRANCH  29  30
ATOM     30  C   LIG    1        5.750   1.088   2.542  0.00  0.00    +0.120 C 
BRANCH  30  31
ATOM     31  C   LIG    1        6.389   1.860   3.701  0.00  0.00    +0.307 C 
ATOM     32  O   LIG    1        7.385   2.562   3.525  0.00  0.00    -0.251 OA
BRANCH  31  33
ATOM     33  O   LIG    1        5.739   1.682   4.877  0.00  0.00    -0.463 OA
BRANCH  33  34
ATOM     34  C   LIG    1        6.168   2.324   6.079  0.00  0.00    +0.163 C 
ATOM     35  C   LIG    1        5.692   1.503   7.312  0.00  0.00    +0.024 C 
ATOM     36  C   LIG    1        6.231   2.215   8.580  0.00  0.00    -0.012 C 
ATOM     37  C   LIG    1        5.718   3.678   8.679  0.00  0.00    -0.078 C 
ATOM     38  N   LIG    1        4.832   3.989   7.446  0.00  0.00    +0.382 N 
ATOM     39  H   LIG    1        4.501   4.942   7.498  0.00  0.00    -0.082 HD
ATOM     40  C   LIG    1        3.621   3.020   7.419  0.00  0.00    -0.078 C 
ATOM     41  C   LIG    1        4.140   1.558   7.359  0.00  0.00    -0.012 C 
ATOM     42  C   LIG    1        5.675   3.802   6.158  0.00  0.00    -0.033 C 
ENDBRANCH  33  34
ENDBRANCH  31  33
ENDBRANCH  30  31
ENDBRANCH  29  30
ENDBRANCH  28  29
ENDBRANCH  27  28
ENDBRANCH  26  27
ENDBRANCH   4  26
TORSDOF 13
