REMARK  Name = DB05129
REMARK                            x       y       z     vdW  Elec       q    Type
REMARK                         _______ _______ _______ _____ _____    ______ ____
ROOT
ATOM      1  C   LIG    1        1.379   0.410  -0.145  0.00  0.00    +0.223 C 
ATOM      2  C   LIG    1        1.934   0.926   1.203  0.00  0.00    +0.340 C 
ATOM      3  O   LIG    1        3.333   1.039   1.128  0.00  0.00    -0.334 OA
ATOM      4  C   LIG    1        3.995  -0.216   0.962  0.00  0.00    +0.151 C 
ATOM      5  C   LIG    1        5.508  -0.010   1.154  0.00  0.00    +0.041 C 
ATOM      6  C   LIG    1        3.604  -0.821  -0.412  0.00  0.00    +0.177 C 
ATOM      7  C   LIG    1        2.054  -0.940  -0.541  0.00  0.00    +0.123 C 
ATOM      8  C   LIG    1        1.534  -2.145   0.285  0.00  0.00    +0.047 C 
ENDROOT
BRANCH   6   9
ATOM      9  O   LIG    1        4.189  -0.082  -1.477  0.00  0.00    -0.386 OA
ATOM     10  H   LIG    1        5.143  -0.171  -1.425  0.00  0.00    +0.210 HD
ENDBRANCH   6   9
BRANCH   7  11
ATOM     11  O   LIG    1        1.711  -1.260  -1.883  0.00  0.00    -0.383 OA
ATOM     12  H   LIG    1        2.305  -1.947  -2.193  0.00  0.00    +0.210 HD
ENDBRANCH   7  11
BRANCH   1  13
ATOM     13  O   LIG    1       -0.043   0.247  -0.070  0.00  0.00    -0.341 OA
BRANCH  13  14
ATOM     14  C   LIG    1       -0.837   1.290  -0.571  0.00  0.00    +0.240 C 
ATOM     15  C   LIG    1       -2.291   1.134  -0.076  0.00  0.00    +0.014 C 
ATOM     16  C   LIG    1       -2.988  -0.086  -0.724  0.00  0.00    +0.139 C 
ATOM     17  C   LIG    1       -2.876   0.033  -2.261  0.00  0.00    +0.170 C 
ATOM     18  C   LIG    1       -1.388   0.222  -2.650  0.00  0.00    +0.149 C 
ATOM     19  C   LIG    1       -1.156   0.377  -4.162  0.00  0.00    +0.041 C 
ATOM     20  O   LIG    1       -0.796   1.345  -1.978  0.00  0.00    -0.347 OA
BRANCH  15  21
ATOM     21  N   LIG    1       -2.313   0.996   1.459  0.00  0.00    +0.385 N 
ATOM     22  H   LIG    1       -1.888   1.805   1.889  0.00  0.00    -0.089 HD
ATOM     23  H   LIG    1       -3.266   0.911   1.783  0.00  0.00    -0.089 HD
ATOM     24  H   LIG    1       -1.800   0.171   1.735  0.00  0.00    -0.089 HD
ENDBRANCH  15  21
BRANCH  17  25
ATOM     25  O   LIG    1       -3.689   1.081  -2.765  0.00  0.00    -0.387 OA
ATOM     26  H   LIG    1       -3.720   1.012  -3.722  0.00  0.00    +0.210 HD
ENDBRANCH  17  25
BRANCH  16  27
ATOM     27  O   LIG    1       -4.331  -0.228  -0.249  0.00  0.00    -0.379 OA
ATOM     28  C   LIG    1       -4.986  -1.444  -0.587  0.00  0.00    +0.194 C 
ENDBRANCH  16  27
ENDBRANCH  13  14
ENDBRANCH   1  13
BRANCH   2  29
ATOM     29  O   LIG    1        1.372   2.187   1.435  0.00  0.00    -0.460 OA
BRANCH  29  30
ATOM     30  C   LIG    1        1.621   2.880   2.612  0.00  0.00    +0.135 A 
ATOM     31  C   LIG    1        2.106   2.235   3.759  0.00  0.00    +0.046 A 
ATOM     32  C   LIG    1        2.311   2.915   4.945  0.00  0.00    +0.004 A 
ATOM     33  C   LIG    1        2.031   4.266   5.034  0.00  0.00    +0.012 A 
ATOM     34  C   LIG    1        1.545   4.994   3.912  0.00  0.00    +0.031 A 
ATOM     35  C   LIG    1        1.259   6.392   4.013  0.00  0.00    +0.139 A 
ATOM     36  C   LIG    1        0.791   7.116   2.901  0.00  0.00    +0.113 A 
ATOM     37  C   LIG    1        0.461   8.593   2.954  0.00  0.00    +0.349 A 
ATOM     38  O   LIG    1        0.557   9.312   3.948  0.00  0.00    -0.244 OA
ATOM     39  O   LIG    1        0.013   9.224   1.822  0.00  0.00    -0.422 OA
ATOM     40  C   LIG    1       -0.127   8.545   0.625  0.00  0.00    +0.141 A 
ATOM     41  C   LIG    1       -0.572   9.281  -0.468  0.00  0.00    +0.047 A 
ATOM     42  C   LIG    1       -0.730   8.655  -1.700  0.00  0.00    +0.008 A 
ATOM     43  C   LIG    1       -0.447   7.292  -1.861  0.00  0.00    -0.036 A 
ATOM     44  C   LIG    1       -0.651   6.695  -3.251  0.00  0.00    +0.044 C 
ATOM     45  C   LIG    1        0.007   6.533  -0.753  0.00  0.00    +0.074 A 
ATOM     46  C   LIG    1        0.345   5.067  -0.813  0.00  0.00    +0.345 A 
ATOM     47  O   LIG    1        0.285   4.357  -1.815  0.00  0.00    -0.244 OA
ATOM     48  O   LIG    1        0.757   4.430   0.329  0.00  0.00    -0.421 OA
ATOM     49  C   LIG    1        0.896   5.077   1.550  0.00  0.00    +0.152 A 
ATOM     50  C   LIG    1        0.157   7.182   0.484  0.00  0.00    +0.043 A 
ATOM     51  C   LIG    1        0.626   6.443   1.685  0.00  0.00    +0.047 A 
ATOM     52  C   LIG    1        1.348   4.300   2.669  0.00  0.00    +0.070 A 
BRANCH  35  53
ATOM     53  O   LIG    1        1.449   7.021   5.225  0.00  0.00    -0.505 OA
ATOM     54  H   LIG    1        1.779   6.434   5.909  0.00  0.00    +0.292 HD
ENDBRANCH  35  53
ENDBRANCH  29  30
ENDBRANCH   2  29
TORSDOF 10
