REMARK  Name = DB05047
REMARK                            x       y       z     vdW  Elec       q    Type
REMARK                         _______ _______ _______ _____ _____    ______ ____
ROOT
ATOM      1  C   LIG    1       -0.763  -0.912  -0.449  0.00  0.00    +0.015 A 
ATOM      2  C   LIG    1       -0.145   0.308  -0.131  0.00  0.00    +0.039 A 
ATOM      3  C   LIG    1       -0.916   1.367   0.374  0.00  0.00    +0.046 A 
ATOM      4  C   LIG    1       -2.300   1.190   0.517  0.00  0.00    +0.135 A 
ATOM      5  N   LIG    1       -3.237   2.065   0.966  0.00  0.00    -0.049 NA
ATOM      6  O   LIG    1       -4.423   1.325   0.881  0.00  0.00    -0.242 OA
ATOM      7  N   LIG    1       -4.247   0.024   0.397  0.00  0.00    -0.049 NA
ATOM      8  C   LIG    1       -2.908  -0.040   0.175  0.00  0.00    +0.134 A 
ATOM      9  C   LIG    1       -2.138  -1.104  -0.310  0.00  0.00    +0.034 A 
ENDROOT
BRANCH   2  10
ATOM     10  C   LIG    1        1.354   0.481  -0.263  0.00  0.00    +0.247 C 
ATOM     11  N   LIG    1        2.002  -0.096  -1.316  0.00  0.00    -0.293 N 
ATOM     12  C   LIG    1        3.473  -0.002  -1.400  0.00  0.00    +0.136 C 
ATOM     13  C   LIG    1        3.803   1.265  -2.227  0.00  0.00    +0.179 C 
ATOM     14  O   LIG    1        3.171   1.199  -3.506  0.00  0.00    -0.377 OA
ATOM     15  C   LIG    1        1.751   1.071  -3.434  0.00  0.00    +0.179 C 
ATOM     16  C   LIG    1        1.371  -0.207  -2.647  0.00  0.00    +0.136 C 
ATOM     17  O   LIG    1        1.948   1.126   0.606  0.00  0.00    -0.270 OA
ENDBRANCH   2  10
TORSDOF 1
