REMARK  Name = DB05123
REMARK                            x       y       z     vdW  Elec       q    Type
REMARK                         _______ _______ _______ _____ _____    ______ ____
ROOT
ATOM      1  O   LIG    1        0.028   0.037   0.086  0.00  0.00    -0.380 OA
ENDROOT
BRANCH   1   2
ATOM      2  C   LIG    1       -0.626   1.299   0.047  0.00  0.00    +0.160 C 
BRANCH   2   3
ATOM      3  C   LIG    1       -2.147   1.093  -0.014  0.00  0.00    +0.028 C 
BRANCH   3   4
ATOM      4  C   LIG    1       -2.619   0.378  -1.294  0.00  0.00    +0.003 C 
BRANCH   4   5
ATOM      5  C   LIG    1       -4.156   0.195  -1.347  0.00  0.00    +0.017 C 
BRANCH   5   6
ATOM      6  C   LIG    1       -4.742  -0.535  -2.605  0.00  0.00    +0.062 C 
ATOM      7  C   LIG    1       -6.293  -0.506  -2.518  0.00  0.00    +0.022 C 
ATOM      8  C   LIG    1       -4.298  -2.031  -2.583  0.00  0.00    +0.022 C 
BRANCH   6   9
ATOM      9  C   LIG    1       -4.325   0.196  -3.937  0.00  0.00    +0.310 C 
ATOM     10  O   LIG    1       -3.881  -0.472  -4.901  0.00  0.00    -0.250 OA
BRANCH   9  11
ATOM     11  O   LIG    1       -4.482   1.440  -4.000  0.00  0.00    -0.480 OA
ATOM     12  H   LIG    1       -4.723   1.841  -4.812  0.00  0.00    +0.295 HD
ENDBRANCH   9  11
ENDBRANCH   6   9
ENDBRANCH   5   6
ENDBRANCH   4   5
ENDBRANCH   3   4
ENDBRANCH   2   3
ENDBRANCH   1   2
BRANCH   1  13
ATOM     13  C   LIG    1        1.446   0.128   0.086  0.00  0.00    +0.160 C 
BRANCH  13  14
ATOM     14  C   LIG    1        2.033  -1.290   0.117  0.00  0.00    +0.028 C 
BRANCH  14  15
ATOM     15  C   LIG    1        3.572  -1.303   0.086  0.00  0.00    +0.003 C 
BRANCH  15  16
ATOM     16  C   LIG    1        4.159  -2.735   0.097  0.00  0.00    +0.017 C 
BRANCH  16  17
ATOM     17  C   LIG    1        5.721  -2.864   0.056  0.00  0.00    +0.062 C 
ATOM     18  C   LIG    1        6.093  -4.369  -0.054  0.00  0.00    +0.022 C 
ATOM     19  C   LIG    1        6.317  -2.333   1.396  0.00  0.00    +0.022 C 
BRANCH  17  20
ATOM     20  C   LIG    1        6.315  -2.125  -1.203  0.00  0.00    +0.310 C 
ATOM     21  O   LIG    1        7.237  -1.288  -1.057  0.00  0.00    -0.250 OA
BRANCH  20  22
ATOM     22  O   LIG    1        5.846  -2.415  -2.330  0.00  0.00    -0.480 OA
ATOM     23  H   LIG    1        5.328  -3.189  -2.437  0.00  0.00    +0.295 HD
ENDBRANCH  20  22
ENDBRANCH  17  20
ENDBRANCH  16  17
ENDBRANCH  15  16
ENDBRANCH  14  15
ENDBRANCH  13  14
ENDBRANCH   1  13
TORSDOF 14
