REMARK  Name = DB05063
REMARK                            x       y       z     vdW  Elec       q    Type
REMARK                         _______ _______ _______ _____ _____    ______ ____
ROOT
ATOM      1  C   LIG    1       -2.290   3.396  -1.816  0.00  0.00    +0.005 C 
ENDROOT
BRANCH   1   2
ATOM      2  C   LIG    1       -3.209   4.624  -1.960  0.00  0.00    +0.039 C 
BRANCH   2   3
ATOM      3  P   LIG    1       -2.492   5.892  -3.099  0.00  0.00    -0.043 P 
BRANCH   3   4
ATOM      4  C   LIG    1       -2.068   5.065  -4.665  0.00  0.00    -0.019 A 
ATOM      5  C   LIG    1       -0.786   4.540  -4.851  0.00  0.00    +0.009 A 
ATOM      6  C   LIG    1       -0.468   3.894  -6.042  0.00  0.00    +0.001 A 
ATOM      7  C   LIG    1       -1.434   3.771  -7.039  0.00  0.00    +0.000 A 
ATOM      8  C   LIG    1       -2.716   4.283  -6.854  0.00  0.00    +0.001 A 
ATOM      9  C   LIG    1       -3.036   4.929  -5.663  0.00  0.00    +0.009 A 
ENDBRANCH   3   4
BRANCH   3  10
ATOM     10  C   LIG    1       -3.699   7.216  -3.412  0.00  0.00    -0.019 A 
ATOM     11  C   LIG    1       -4.806   7.377  -2.575  0.00  0.00    +0.009 A 
ATOM     12  C   LIG    1       -5.720   8.397  -2.825  0.00  0.00    +0.001 A 
ATOM     13  C   LIG    1       -5.523   9.253  -3.906  0.00  0.00    +0.000 A 
ATOM     14  C   LIG    1       -4.417   9.100  -4.740  0.00  0.00    +0.001 A 
ATOM     15  C   LIG    1       -3.502   8.081  -4.492  0.00  0.00    +0.009 A 
ENDBRANCH   3  10
BRANCH   3  16
ATOM     16  C   LIG    1       -1.010   6.666  -2.378  0.00  0.00    -0.019 A 
ATOM     17  C   LIG    1       -0.720   6.522  -1.018  0.00  0.00    +0.009 A 
ATOM     18  C   LIG    1        0.415   7.126  -0.484  0.00  0.00    +0.001 A 
ATOM     19  C   LIG    1        1.252   7.875  -1.309  0.00  0.00    +0.000 A 
ATOM     20  C   LIG    1        0.963   8.029  -2.663  0.00  0.00    +0.001 A 
ATOM     21  C   LIG    1       -0.171   7.425  -3.198  0.00  0.00    +0.009 A 
ENDBRANCH   3  16
ENDBRANCH   2   3
ENDBRANCH   1   2
BRANCH   1  22
ATOM     22  C   LIG    1       -2.757   2.428  -0.714  0.00  0.00    +0.000 C 
BRANCH  22  23
ATOM     23  C   LIG    1       -1.989   1.092  -0.675  0.00  0.00    +0.000 C 
BRANCH  23  24
ATOM     24  C   LIG    1       -0.477   1.228  -0.406  0.00  0.00    +0.000 C 
BRANCH  24  25
ATOM     25  C   LIG    1        0.220  -0.134  -0.237  0.00  0.00    +0.000 C 
BRANCH  25  26
ATOM     26  C   LIG    1        1.743  -0.014  -0.051  0.00  0.00    +0.000 C 
BRANCH  26  27
ATOM     27  C   LIG    1        2.421  -1.376   0.198  0.00  0.00    +0.000 C 
BRANCH  27  28
ATOM     28  C   LIG    1        3.947  -1.296   0.397  0.00  0.00    +0.005 C 
BRANCH  28  29
ATOM     29  C   LIG    1        4.737  -0.969  -0.888  0.00  0.00    +0.039 C 
BRANCH  29  30
ATOM     30  C   LIG    1        6.260  -0.954  -0.682  0.00  0.00    +0.010 C 
ATOM     31  C   LIG    1        6.790   0.377  -0.268  0.00  0.00    +0.228 C 
ATOM     32  O   LIG    1        6.090   1.357  -0.003  0.00  0.00    -0.284 OA
ATOM     33  C   LIG    1        8.267   0.400  -0.188  0.00  0.00    +0.213 C 
ATOM     34  C   LIG    1        9.054  -0.681  -0.393  0.00  0.00    +0.213 C 
ATOM     35  C   LIG    1        8.539  -2.027  -0.729  0.00  0.00    +0.227 C 
ATOM     36  O   LIG    1        9.270  -3.013  -0.855  0.00  0.00    -0.284 OA
ATOM     37  C   LIG    1        7.059  -2.045  -0.899  0.00  0.00    +0.007 C 
ATOM     38  C   LIG    1        6.523  -3.432  -1.275  0.00  0.00    +0.048 C 
BRANCH  33  39
ATOM     39  O   LIG    1        8.824   1.579   0.194  0.00  0.00    -0.488 OA
ATOM     40  C   LIG    1        8.881   2.590  -0.810  0.00  0.00    +0.277 C 
ENDBRANCH  33  39
BRANCH  34  41
ATOM     41  O   LIG    1       10.397  -0.586  -0.210  0.00  0.00    -0.488 OA
ATOM     42  C   LIG    1       11.186  -0.571  -1.398  0.00  0.00    +0.277 C 
ENDBRANCH  34  41
ENDBRANCH  29  30
ENDBRANCH  28  29
ENDBRANCH  27  28
ENDBRANCH  26  27
ENDBRANCH  25  26
ENDBRANCH  24  25
ENDBRANCH  23  24
ENDBRANCH  22  23
ENDBRANCH   1  22
TORSDOF 16
