REMARK  Name = DB05575
REMARK                            x       y       z     vdW  Elec       q    Type
REMARK                         _______ _______ _______ _____ _____    ______ ____
ROOT
ATOM      1  C   LIG    1        1.539   0.028   0.496  0.00  0.00    +0.252 C 
ATOM      2  O   LIG    1        2.116   1.004   0.978  0.00  0.00    -0.270 OA
ATOM      3  N   LIG    1        2.165  -1.114   0.127  0.00  0.00    -0.281 N 
ATOM      4  H   LIG    1        1.573  -1.866  -0.193  0.00  0.00    +0.155 HD
ENDROOT
BRANCH   3   5
ATOM      5  C   LIG    1        3.537  -1.427   0.160  0.00  0.00    +0.035 A 
ATOM      6  C   LIG    1        3.864  -2.786   0.092  0.00  0.00    +0.046 A 
ATOM      7  C   LIG    1        5.200  -3.187   0.127  0.00  0.00    +0.033 A 
ATOM      8  N   LIG    1        5.705  -4.485   0.041  0.00  0.00    -0.343 N 
ATOM      9  H   LIG    1        5.336  -5.299   0.510  0.00  0.00    +0.146 HD
ATOM     10  C   LIG    1        7.148  -4.422   0.246  0.00  0.00    +0.112 C 
ATOM     11  C   LIG    1        7.555  -2.939   0.090  0.00  0.00    +0.007 C 
ATOM     12  C   LIG    1        8.521  -2.515   1.217  0.00  0.00    +0.017 C 
ATOM     13  C   LIG    1        8.205  -2.689  -1.290  0.00  0.00    +0.017 C 
ATOM     14  C   LIG    1        6.217  -2.243   0.169  0.00  0.00    -0.019 A 
ATOM     15  C   LIG    1        5.905  -0.882   0.217  0.00  0.00    +0.008 A 
ATOM     16  C   LIG    1        4.570  -0.475   0.217  0.00  0.00    +0.024 A 
ENDBRANCH   3   5
BRANCH   1  21
ATOM     17  N   LIG    1       -2.068   1.219  -0.086  0.00  0.00    -0.240 NA
ATOM     18  C   LIG    1       -2.722   0.035  -0.076  0.00  0.00    +0.113 A 
ATOM     19  C   LIG    1       -2.070  -1.179   0.103  0.00  0.00    +0.021 A 
ATOM     20  C   LIG    1       -0.689  -1.167   0.283  0.00  0.00    +0.018 A 
ATOM     21  C   LIG    1        0.031   0.045   0.280  0.00  0.00    +0.077 A 
ATOM     22  C   LIG    1       -0.716   1.239   0.087  0.00  0.00    +0.131 A 
BRANCH  22  23
ATOM     23  N   LIG    1       -0.085   2.500   0.033  0.00  0.00    -0.324 N 
ATOM     24  H   LIG    1        0.896   2.543   0.274  0.00  0.00    +0.148 HD
BRANCH  23  25
ATOM     25  C   LIG    1       -0.832   3.753   0.019  0.00  0.00    +0.138 C 
BRANCH  25  26
ATOM     26  C   LIG    1        0.122   4.920  -0.156  0.00  0.00    -0.028 A 
ATOM     27  C   LIG    1        0.725   5.516   0.957  0.00  0.00    +0.025 A 
ATOM     28  C   LIG    1        1.602   6.583   0.751  0.00  0.00    +0.111 A 
ATOM     29  N   LIG    1        1.897   7.069  -0.482  0.00  0.00    -0.263 NA
ATOM     30  C   LIG    1        1.304   6.480  -1.552  0.00  0.00    +0.111 A 
ATOM     31  C   LIG    1        0.416   5.409  -1.434  0.00  0.00    +0.025 A 
ENDBRANCH  25  26
ENDBRANCH  23  25
ENDBRANCH  22  23
ENDBRANCH   1  21
TORSDOF 5
