REMARK  Name = DB05611
REMARK                            x       y       z     vdW  Elec       q    Type
REMARK                         _______ _______ _______ _____ _____    ______ ____
ROOT
ATOM      1  C   LIG    1        1.678   0.151   0.147  0.00  0.00    +0.147 A 
ATOM      2  N   LIG    1        2.365   1.321   0.040  0.00  0.00    -0.178 NA
ATOM      3  C   LIG    1        3.714   1.231  -0.014  0.00  0.00    +0.321 A 
ATOM      4  N   LIG    1        4.429   0.073   0.038  0.00  0.00    -0.180 NA
ATOM      5  C   LIG    1        3.740  -1.097   0.182  0.00  0.00    +0.130 A 
ATOM      6  C   LIG    1        2.333  -1.084   0.210  0.00  0.00    +0.089 A 
ENDROOT
BRANCH   5   7
ATOM      7  N   LIG    1        4.480  -2.286   0.151  0.00  0.00    -0.311 N 
ATOM      8  C   LIG    1        5.960  -2.278   0.175  0.00  0.00    +0.134 C 
ATOM      9  C   LIG    1        6.629  -3.605  -0.236  0.00  0.00    +0.178 C 
ATOM     10  O   LIG    1        6.076  -4.678   0.504  0.00  0.00    -0.377 OA
ATOM     11  C   LIG    1        4.694  -4.826   0.229  0.00  0.00    +0.178 C 
ATOM     12  C   LIG    1        3.921  -3.560   0.651  0.00  0.00    +0.134 C 
ENDBRANCH   5   7
BRANCH   1  13
ATOM     13  N   LIG    1        0.278   0.195   0.190  0.00  0.00    -0.221 N 
ATOM     14  H   LIG    1       -0.254  -0.660   0.270  0.00  0.00    +0.176 HD
BRANCH  13  16
ATOM     15  C   LIG    1       -1.758   1.209   0.196  0.00  0.00    +0.138 C 
ATOM     16  N   LIG    1       -0.499   1.360   0.137  0.00  0.00    -0.189 NA
BRANCH  15  20
ATOM     17  C   LIG    1       -2.810   6.137  -0.151  0.00  0.00    +0.044 C 
ATOM     18  C   LIG    1       -3.257   4.693  -0.014  0.00  0.00    -0.050 A 
ATOM     19  C   LIG    1       -2.317   3.659   0.023  0.00  0.00    +0.012 A 
ATOM     20  C   LIG    1       -2.720   2.318   0.154  0.00  0.00    -0.005 A 
ATOM     21  C   LIG    1       -4.091   2.042   0.246  0.00  0.00    +0.009 A 
ATOM     22  C   LIG    1       -5.032   3.070   0.211  0.00  0.00    +0.001 A 
ATOM     23  C   LIG    1       -4.617   4.393   0.082  0.00  0.00    +0.003 A 
ENDBRANCH  15  20
ENDBRANCH  13  16
ENDBRANCH   1  13
BRANCH   3  24
ATOM     24  O   LIG    1        4.367   2.443  -0.136  0.00  0.00    -0.462 OA
BRANCH  24  25
ATOM     25  C   LIG    1        5.793   2.470  -0.197  0.00  0.00    +0.238 C 
BRANCH  25  26
ATOM     26  C   LIG    1        6.253   3.932  -0.313  0.00  0.00    +0.096 C 
BRANCH  26  27
ATOM     27  C   LIG    1        7.767   4.079  -0.353  0.00  0.00    +0.044 A 
ATOM     28  N   LIG    1        8.381   3.659  -1.493  0.00  0.00    -0.260 NA
ATOM     29  C   LIG    1        9.732   3.768  -1.564  0.00  0.00    +0.111 A 
ATOM     30  C   LIG    1       10.508   4.288  -0.526  0.00  0.00    +0.020 A 
ATOM     31  C   LIG    1        9.863   4.713   0.638  0.00  0.00    +0.003 A 
ATOM     32  C   LIG    1        8.473   4.609   0.732  0.00  0.00    +0.023 A 
ENDBRANCH  26  27
ENDBRANCH  25  26
ENDBRANCH  24  25
ENDBRANCH   3  24
TORSDOF 8
