REMARK  Name = DB05804
REMARK                            x       y       z     vdW  Elec       q    Type
REMARK                         _______ _______ _______ _____ _____    ______ ____
ROOT
ATOM      1  C   LIG    1        1.448   0.111   0.174  0.00  0.00    +0.156 C 
ATOM      2  C   LIG    1        1.869  -0.790   1.342  0.00  0.00    +0.035 C 
ATOM      3  C   LIG    1        3.390  -1.024   1.306  0.00  0.00    +0.014 C 
ATOM      4  C   LIG    1        3.940  -1.618  -0.035  0.00  0.00    -0.008 C 
ATOM      5  C   LIG    1        3.479  -3.094  -0.195  0.00  0.00    +0.016 C 
ATOM      6  C   LIG    1        3.345  -0.802  -1.219  0.00  0.00    -0.065 C 
ATOM      7  C   LIG    1        4.092  -0.362  -2.255  0.00  0.00    -0.027 C 
ATOM      8  C   LIG    1        5.575  -0.611  -2.461  0.00  0.00    +0.031 C 
ATOM      9  C   LIG    1        6.133  -1.660  -1.470  0.00  0.00    +0.001 C 
ATOM     10  C   LIG    1        7.683  -1.573  -1.397  0.00  0.00    +0.006 C 
ATOM     11  C   LIG    1        8.511  -1.683  -2.672  0.00  0.00    +0.012 C 
ATOM     12  C   LIG    1        9.940  -1.948  -2.171  0.00  0.00    +0.075 C 
ATOM     13  C   LIG    1        9.790  -2.405  -0.709  0.00  0.00    +0.139 C 
ATOM     14  O   LIG    1       10.707  -2.549   0.098  0.00  0.00    -0.297 OA
ATOM     15  C   LIG    1        8.288  -2.616  -0.436  0.00  0.00    +0.029 C 
ATOM     16  C   LIG    1        7.999  -4.103  -0.825  0.00  0.00    +0.019 C 
ATOM     17  C   LIG    1        7.776  -2.284   0.987  0.00  0.00    +0.015 C 
ATOM     18  C   LIG    1        6.231  -2.385   1.031  0.00  0.00    +0.005 C 
ATOM     19  C   LIG    1        5.514  -1.493  -0.041  0.00  0.00    +0.003 C 
ATOM     20  C   LIG    1        1.836  -0.533  -1.169  0.00  0.00    +0.065 C 
ENDROOT
BRANCH   1  21
ATOM     21  O   LIG    1        0.043   0.324   0.240  0.00  0.00    -0.212 OA
BRANCH  21  22
ATOM     22  S   LIG    1       -0.553   1.851  -0.093  0.00  0.00    +0.208 S 
ATOM     23  O   LIG    1       -0.065   2.148  -1.445  0.00  0.00    -0.118 OA
ATOM     24  O   LIG    1        0.027   2.697   0.956  0.00  0.00    -0.118 OA
BRANCH  22  25
ATOM     25  O   LIG    1       -2.007   1.681   0.003  0.00  0.00    -0.231 OA
ATOM     26  H   LIG    1       -2.250   1.489   0.922  0.00  0.00    +0.247 HD
ENDBRANCH  22  25
ENDBRANCH  21  22
ENDBRANCH   1  21
TORSDOF 3
