REMARK  Name = DB05625
REMARK                            x       y       z     vdW  Elec       q    Type
REMARK                         _______ _______ _______ _____ _____    ______ ____
ROOT
ATOM      1  C   UNK A  6        0.158   1.553  -0.336  0.00  0.00    +0.159 C 
ENDROOT
BRANCH   1   2
ATOM      2  C   UNK A  6       -1.203   1.610  -1.065  0.00  0.00    +0.231 C 
ATOM      3  O   UNK A  6       -2.253   1.441  -0.445  0.00  0.00    -0.274 OA
ATOM      4  N   UNK A  6       -1.167   1.820  -2.384  0.00  0.00    -0.328 N 
ATOM      5  H   UNK A  6       -2.026   1.858  -2.913  0.00  0.00    +0.145 HD
ATOM      6  H   UNK A  6       -0.285   1.942  -2.859  0.00  0.00    +0.145 HD
ENDBRANCH   1   2
BRANCH   1   9
ATOM      7  C   UNK A  6       -0.035   3.463   1.253  0.00  0.00    +0.234 C 
ATOM      8  O   UNK A  6       -0.158   4.330   0.385  0.00  0.00    -0.274 OA
ATOM      9  N   UNK A  6        0.101   2.151   1.002  0.00  0.00    -0.302 N 
ATOM     10  H   UNK A  6        0.186   1.506   1.774  0.00  0.00    +0.150 HD
BRANCH   7  11
ATOM     11  C   UNK A  6       -0.037   3.864   2.733  0.00  0.00    +0.159 C 
BRANCH  11  14
ATOM     12  C   UNK A  6        1.905   5.075   3.714  0.00  0.00    +0.234 C 
ATOM     13  O   UNK A  6        2.235   4.190   4.504  0.00  0.00    -0.274 OA
ATOM     14  N   UNK A  6        0.841   5.019   2.899  0.00  0.00    -0.302 N 
ATOM     15  H   UNK A  6        0.659   5.794   2.278  0.00  0.00    +0.150 HD
BRANCH  12  16
ATOM     16  C   UNK A  6        2.769   6.340   3.571  0.00  0.00    +0.163 C 
BRANCH  16  17
ATOM     17  N   UNK A  6        3.267   6.835   4.853  0.00  0.00    -0.302 N 
ATOM     18  H   UNK A  6        4.269   6.792   4.980  0.00  0.00    +0.150 HD
ATOM     19  C   UNK A  6        2.512   7.382   5.821  0.00  0.00    +0.236 C 
ATOM     20  O   UNK A  6        1.286   7.491   5.765  0.00  0.00    -0.274 OA
BRANCH  19  21
ATOM     21  C   UNK A  6        3.287   7.960   7.019  0.00  0.00    +0.184 C 
BRANCH  21  22
ATOM     22  N   UNK A  6        3.908   9.222   6.615  0.00  0.00    -0.301 N 
ATOM     23  H   UNK A  6        3.325  10.042   6.700  0.00  0.00    +0.150 HD
ATOM     24  C   LEU A  5        5.125   9.338   6.059  0.00  0.00    +0.234 C 
ATOM     25  O   LEU A  5        5.916   8.407   5.905  0.00  0.00    -0.274 OA
BRANCH  24  26
ATOM     26  CA  LEU A  5        5.485  10.736   5.527  0.00  0.00    +0.159 C 
BRANCH  26  27
ATOM     27  N   LEU A  5        6.825  11.141   5.951  0.00  0.00    -0.302 N 
ATOM     28  H   LEU A  5        7.526  11.163   5.225  0.00  0.00    +0.150 HD
ATOM     29  C   SER A  4        7.176  11.452   7.210  0.00  0.00    +0.236 C 
ATOM     30  O   SER A  4        6.403  11.453   8.169  0.00  0.00    -0.274 OA
BRANCH  29  31
ATOM     31  CA  SER A  4        8.659  11.798   7.425  0.00  0.00    +0.184 C 
BRANCH  31  32
ATOM     32  N   SER A  4        8.823  12.936   8.329  0.00  0.00    -0.301 N 
ATOM     33  H   SER A  4        9.114  12.714   9.270  0.00  0.00    +0.150 HD
ATOM     34  C   VAL A  3        8.590  14.215   7.994  0.00  0.00    +0.234 C 
ATOM     35  O   VAL A  3        8.225  14.588   6.878  0.00  0.00    -0.274 OA
BRANCH  34  36
ATOM     36  CA  VAL A  3        8.802  15.254   9.114  0.00  0.00    +0.161 C 
BRANCH  36  37
ATOM     37  N   VAL A  3        9.643  16.361   8.649  0.00  0.00    -0.302 N 
ATOM     38  H   VAL A  3        9.166  17.239   8.504  0.00  0.00    +0.150 HD
ATOM     39  C   GLY A  2       10.951  16.266   8.358  0.00  0.00    +0.231 C 
ATOM     40  O   GLY A  2       11.606  15.235   8.521  0.00  0.00    -0.274 OA
BRANCH  39  41
ATOM     41  CA  GLY A  2       11.614  17.546   7.825  0.00  0.00    +0.200 C 
BRANCH  41  42
ATOM     42  N   GLY A  2       12.802  17.220   7.035  0.00  0.00    -0.308 N 
ATOM     43  H   GLY A  2       13.693  17.338   7.495  0.00  0.00    +0.149 HD
ATOM     44  C   LYS A  1       12.767  16.723   5.785  0.00  0.00    +0.199 C 
ATOM     45  O   LYS A  1       11.726  16.554   5.142  0.00  0.00    -0.278 OA
BRANCH  44  46
ATOM     46  CA  LYS A  1       14.137  16.369   5.163  0.00  0.00    +0.013 C 
BRANCH  46  47
ATOM     47  N   LYS A  1       14.093  14.879   4.966  0.00  0.00    +0.386 N 
ATOM     48  H1  LYS A  1       13.347  14.654   4.324  0.00  0.00    -0.089 HD
ATOM     49  H2  LYS A  1       14.976  14.571   4.584  0.00  0.00    -0.089 HD
ATOM     50  H3  LYS A  1       13.934  14.431   5.858  0.00  0.00    -0.089 HD
ENDBRANCH  46  47
BRANCH  46  51
ATOM     51  CB  LYS A  1       14.430  17.107   3.830  0.00  0.00    -0.007 C 
BRANCH  51  52
ATOM     52  CG  LYS A  1       14.586  18.633   3.978  0.00  0.00    -0.003 C 
BRANCH  52  53
ATOM     53  CD  LYS A  1       14.941  19.323   2.652  0.00  0.00    -0.020 C 
BRANCH  53  54
ATOM     54  CE  LYS A  1       15.099  20.845   2.806  0.00  0.00    -0.086 C 
BRANCH  54  55
ATOM     55  NZ  LYS A  1       15.442  21.494   1.528  0.00  0.00    +0.378 N 
ATOM     56  HZ1 LYS A  1       16.314  21.120   1.181  0.00  0.00    -0.090 HD
ATOM     57  HZ2 LYS A  1       14.711  21.321   0.853  0.00  0.00    -0.090 HD
ATOM     58  HZ3 LYS A  1       15.538  22.489   1.670  0.00  0.00    -0.090 HD
ENDBRANCH  54  55
ENDBRANCH  53  54
ENDBRANCH  52  53
ENDBRANCH  51  52
ENDBRANCH  46  51
ENDBRANCH  44  46
ENDBRANCH  41  42
ENDBRANCH  39  41
ENDBRANCH  36  37
BRANCH  36  59
ATOM     59  CB  VAL A  3        7.417  15.775   9.602  0.00  0.00    +0.012 C 
ATOM     60  CG2 VAL A  3        6.378  14.675   9.912  0.00  0.00    +0.009 C 
ATOM     61  CG1 VAL A  3        7.575  16.687  10.833  0.00  0.00    +0.009 C 
ENDBRANCH  36  59
ENDBRANCH  34  36
ENDBRANCH  31  32
BRANCH  31  62
ATOM     62  CB  SER A  4        9.424  10.588   7.995  0.00  0.00    +0.187 C 
BRANCH  62  63
ATOM     63  OG  SER A  4       10.811  10.740   7.770  0.00  0.00    -0.393 OA
ATOM     64  H   SER A  4       11.134  11.451   8.328  0.00  0.00    +0.209 HD
ENDBRANCH  62  63
ENDBRANCH  31  62
ENDBRANCH  29  31
ENDBRANCH  26  27
BRANCH  26  65
ATOM     65  CB  LEU A  5        5.420  10.808   3.980  0.00  0.00    +0.034 C 
BRANCH  65  66
ATOM     66  CG  LEU A  5        4.096  10.352   3.317  0.00  0.00    -0.015 C 
ATOM     67  CD2 LEU A  5        2.873  11.156   3.808  0.00  0.00    +0.007 C 
ATOM     68  CD1 LEU A  5        4.220  10.351   1.779  0.00  0.00    +0.007 C 
ENDBRANCH  65  66
ENDBRANCH  26  65
ENDBRANCH  24  26
ENDBRANCH  21  22
BRANCH  21  69
ATOM     69  C   UNK A  6        2.387   8.214   8.246  0.00  0.00    +0.187 C 
BRANCH  69  70
ATOM     70  O   UNK A  6        3.176   8.373   9.406  0.00  0.00    -0.393 OA
ATOM     71  H   UNK A  6        3.674   9.191   9.329  0.00  0.00    +0.209 HD
ENDBRANCH  69  70
ENDBRANCH  21  69
ENDBRANCH  19  21
ENDBRANCH  16  17
BRANCH  16  72
ATOM     72  C   UNK A  6        3.973   6.116   2.627  0.00  0.00    +0.067 C 
BRANCH  72  73
ATOM     73  C   UNK A  6        3.626   5.552   1.257  0.00  0.00    -0.045 A 
ATOM     74  C   UNK A  6        2.958   6.357   0.311  0.00  0.00    +0.007 A 
ATOM     75  C   UNK A  6        2.596   5.826  -0.942  0.00  0.00    +0.045 A 
ATOM     76  C   UNK A  6        2.903   4.487  -1.255  0.00  0.00    +0.117 A 
ATOM     77  C   UNK A  6        3.581   3.684  -0.318  0.00  0.00    +0.045 A 
ATOM     78  C   UNK A  6        3.941   4.214   0.936  0.00  0.00    +0.007 A 
BRANCH  76  79
ATOM     79  O   UNK A  6        2.540   3.966  -2.462  0.00  0.00    -0.507 OA
ATOM     80  H   UNK A  6        2.085   4.599  -3.022  0.00  0.00    +0.292 HD
ENDBRANCH  76  79
ENDBRANCH  72  73
ENDBRANCH  16  72
ENDBRANCH  12  16
ENDBRANCH  11  14
BRANCH  11  81
ATOM     81  C   UNK A  6       -1.463   4.214   3.207  0.00  0.00    +0.033 C 
BRANCH  81  82
ATOM     82  C   UNK A  6       -1.543   4.591   4.701  0.00  0.00    +0.017 C 
BRANCH  82  83
ATOM     83  C   UNK A  6       -2.972   4.871   5.205  0.00  0.00    +0.084 C 
BRANCH  83  84
ATOM     84  N   UNK A  6       -3.805   3.656   5.280  0.00  0.00    -0.283 NA
ATOM     85  H   UNK A  6       -4.339   3.450   4.447  0.00  0.00    +0.125 HD
BRANCH  84  86
ATOM     86  C   UNK A  6       -3.881   2.780   6.301  0.00  0.00    +0.167 C 
BRANCH  86  87
ATOM     87  N   UNK A  6       -3.185   2.937   7.439  0.00  0.00    -0.297 NA
ATOM     88  H   UNK A  6       -2.579   3.738   7.553  0.00  0.00    +0.121 HD
ATOM     89  H   UNK A  6       -3.262   2.260   8.184  0.00  0.00    +0.121 HD
ENDBRANCH  86  87
BRANCH  86  90
ATOM     90  N   UNK A  6       -4.680   1.712   6.174  0.00  0.00    -0.297 NA
ATOM     91  H   UNK A  6       -5.209   1.572   5.324  0.00  0.00    +0.121 HD
ATOM     92  H   UNK A  6       -4.756   1.041   6.924  0.00  0.00    +0.121 HD
ENDBRANCH  86  90
ENDBRANCH  84  86
ENDBRANCH  83  84
ENDBRANCH  82  83
ENDBRANCH  81  82
ENDBRANCH  11  81
ENDBRANCH   7  11
ENDBRANCH   1   9
BRANCH   1  93
ATOM     93  C   UNK A  6        0.666   0.095  -0.276  0.00  0.00    +0.032 C 
BRANCH  93  94
ATOM     94  C   UNK A  6        2.020  -0.054   0.447  0.00  0.00    +0.004 C 
BRANCH  94  95
ATOM     95  C   UNK A  6        2.620  -1.465   0.327  0.00  0.00    +0.019 C 
BRANCH  95  96
ATOM     96  C   UNK A  6        3.904  -1.630   1.161  0.00  0.00    +0.104 C 
BRANCH  96  97
ATOM     97  N   UNK A  6        4.513  -2.950   1.029  0.00  0.00    -0.314 N 
ATOM     98  H   UNK A  6        4.267  -3.634   1.730  0.00  0.00    +0.149 HD
ATOM     99  C   UNK A  6        5.367  -3.293   0.051  0.00  0.00    +0.233 C 
ATOM    100  O   UNK A  6        5.742  -2.531  -0.842  0.00  0.00    -0.274 OA
BRANCH  99 101
ATOM    101  C   UNK A  6        5.923  -4.729   0.112  0.00  0.00    +0.159 C 
BRANCH 101 102
ATOM    102  N   UNK A  6        6.042  -5.327  -1.219  0.00  0.00    -0.302 N 
ATOM    103  H   UNK A  6        6.984  -5.470  -1.552  0.00  0.00    +0.150 HD
ATOM    104  C   UNK A  6        5.016  -5.660  -2.023  0.00  0.00    +0.234 C 
ATOM    105  O   UNK A  6        3.829  -5.531  -1.721  0.00  0.00    -0.274 OA
BRANCH 104 106
ATOM    106  C   UNK A  6        5.414  -6.255  -3.382  0.00  0.00    +0.163 C 
BRANCH 106 107
ATOM    107  N   UNK A  6        6.154  -7.497  -3.153  0.00  0.00    -0.302 N 
ATOM    108  H   UNK A  6        5.700  -8.173  -2.556  0.00  0.00    +0.150 HD
ATOM    109  C   UNK A  6        7.357  -7.781  -3.676  0.00  0.00    +0.236 C 
ATOM    110  O   UNK A  6        7.993  -7.027  -4.414  0.00  0.00    -0.274 OA
BRANCH 109 111
ATOM    111  C   UNK A  6        7.951  -9.142  -3.271  0.00  0.00    +0.184 C 
BRANCH 111 112
ATOM    112  N   UNK A  6        8.643  -9.782  -4.388  0.00  0.00    -0.301 N 
ATOM    113  H   UNK A  6        9.649  -9.700  -4.386  0.00  0.00    +0.150 HD
ATOM    114  C   LEU A  5        8.031 -10.394  -5.415  0.00  0.00    +0.234 C 
ATOM    115  O   LEU A  5        6.812 -10.541  -5.512  0.00  0.00    -0.274 OA
BRANCH 114 116
ATOM    116  CA  LEU A  5        8.951 -10.916  -6.531  0.00  0.00    +0.159 C 
BRANCH 116 117
ATOM    117  N   LEU A  5        8.603 -12.285  -6.909  0.00  0.00    -0.302 N 
ATOM    118  H   LEU A  5        8.183 -12.394  -7.822  0.00  0.00    +0.150 HD
ATOM    119  C   SER A  4        8.797 -13.372  -6.143  0.00  0.00    +0.236 C 
ATOM    120  O   SER A  4        9.318 -13.351  -5.027  0.00  0.00    -0.274 OA
BRANCH 119 121
ATOM    121  CA  SER A  4        8.365 -14.711  -6.764  0.00  0.00    +0.184 C 
BRANCH 121 122
ATOM    122  N   SER A  4        9.436 -15.218  -7.620  0.00  0.00    -0.301 N 
ATOM    123  H   SER A  4       10.105 -15.827  -7.171  0.00  0.00    +0.150 HD
ATOM    124  C   VAL A  3        9.605 -14.890  -8.910  0.00  0.00    +0.234 C 
ATOM    125  O   VAL A  3        8.846 -14.161  -9.551  0.00  0.00    -0.274 OA
BRANCH 124 126
ATOM    126  CA  VAL A  3       10.864 -15.463  -9.591  0.00  0.00    +0.161 C 
BRANCH 126 127
ATOM    127  N   VAL A  3       10.520 -16.127 -10.850  0.00  0.00    -0.302 N 
ATOM    128  H   VAL A  3       10.786 -15.635 -11.690  0.00  0.00    +0.150 HD
ATOM    129  C   GLY A  2        9.834 -17.278 -10.949  0.00  0.00    +0.231 C 
ATOM    130  O   GLY A  2        9.488 -17.944  -9.971  0.00  0.00    -0.274 OA
BRANCH 129 131
ATOM    131  CA  GLY A  2        9.512 -17.748 -12.376  0.00  0.00    +0.200 C 
BRANCH 131 132
ATOM    132  N   GLY A  2        8.308 -18.581 -12.387  0.00  0.00    -0.308 N 
ATOM    133  H   GLY A  2        8.452 -19.575 -12.493  0.00  0.00    +0.149 HD
ATOM    134  C   LYS A  1        7.058 -18.111 -12.212  0.00  0.00    +0.199 C 
ATOM    135  O   LYS A  1        6.787 -16.913 -12.091  0.00  0.00    -0.278 OA
BRANCH 134 136
ATOM    136  CA  LYS A  1        5.936 -19.172 -12.170  0.00  0.00    +0.013 C 
BRANCH 136 137
ATOM    137  N   LYS A  1        5.395 -19.098 -10.768  0.00  0.00    +0.386 N 
ATOM    138  H1  LYS A  1        5.014 -18.175 -10.613  0.00  0.00    -0.089 HD
ATOM    139  H2  LYS A  1        4.671 -19.791 -10.656  0.00  0.00    -0.089 HD
ATOM    140  H3  LYS A  1        6.145 -19.279 -10.115  0.00  0.00    -0.089 HD
ENDBRANCH 136 137
BRANCH 136 141
ATOM    141  CB  LYS A  1        4.850 -18.927 -13.251  0.00  0.00    -0.007 C 
BRANCH 141 142
ATOM    142  CG  LYS A  1        3.739 -19.995 -13.312  0.00  0.00    -0.003 C 
BRANCH 142 143
ATOM    143  CD  LYS A  1        2.757 -19.750 -14.474  0.00  0.00    -0.020 C 
BRANCH 143 144
ATOM    144  CE  LYS A  1        1.656 -20.817 -14.618  0.00  0.00    -0.086 C 
BRANCH 144 145
ATOM    145  NZ  LYS A  1        0.667 -20.771 -13.525  0.00  0.00    +0.378 N 
ATOM    146  HZ1 LYS A  1        1.127 -20.943 -12.642  0.00  0.00    -0.090 HD
ATOM    147  HZ2 LYS A  1        0.228 -19.862 -13.505  0.00  0.00    -0.090 HD
ATOM    148  HZ3 LYS A  1       -0.037 -21.479 -13.679  0.00  0.00    -0.090 HD
ENDBRANCH 144 145
ENDBRANCH 143 144
ENDBRANCH 142 143
ENDBRANCH 141 142
ENDBRANCH 136 141
ENDBRANCH 134 136
ENDBRANCH 131 132
ENDBRANCH 129 131
ENDBRANCH 126 127
BRANCH 126 149
ATOM    149  CB  VAL A  3       11.883 -14.306  -9.827  0.00  0.00    +0.012 C 
ATOM    150  CG2 VAL A  3       12.145 -13.403  -8.600  0.00  0.00    +0.009 C 
ATOM    151  CG1 VAL A  3       13.224 -14.854 -10.349  0.00  0.00    +0.009 C 
ENDBRANCH 126 149
ENDBRANCH 124 126
ENDBRANCH 121 122
BRANCH 121 152
ATOM    152  CB  SER A  4        8.030 -15.771  -5.695  0.00  0.00    +0.187 C 
BRANCH 152 153
ATOM    153  OG  SER A  4        7.270 -16.818  -6.264  0.00  0.00    -0.393 OA
ATOM    154  H   SER A  4        7.073 -17.458  -5.577  0.00  0.00    +0.209 HD
ENDBRANCH 152 153
ENDBRANCH 121 152
ENDBRANCH 119 121
ENDBRANCH 116 117
BRANCH 116 155
ATOM    155  CB  LEU A  5        8.906 -10.035  -7.803  0.00  0.00    +0.034 C 
BRANCH 155 156
ATOM    156  CG  LEU A  5        9.227  -8.532  -7.615  0.00  0.00    -0.015 C 
ATOM    157  CD2 LEU A  5       10.599  -8.289  -6.949  0.00  0.00    +0.007 C 
ATOM    158  CD1 LEU A  5        9.093  -7.773  -8.953  0.00  0.00    +0.007 C 
ENDBRANCH 155 156
ENDBRANCH 116 155
ENDBRANCH 114 116
ENDBRANCH 111 112
BRANCH 111 159
ATOM    159  C   UNK A  6        8.919  -9.035  -2.073  0.00  0.00    +0.187 C 
BRANCH 159 160
ATOM    160  O   UNK A  6        9.972  -8.115  -2.295  0.00  0.00    -0.393 OA
ATOM    161  H   UNK A  6        9.596  -7.238  -2.397  0.00  0.00    +0.209 HD
ENDBRANCH 159 160
ENDBRANCH 111 159
ENDBRANCH 109 111
ENDBRANCH 106 107
BRANCH 106 162
ATOM    162  C   UNK A  6        4.212  -6.527  -4.315  0.00  0.00    +0.067 C 
BRANCH 162 163
ATOM    163  C   UNK A  6        4.589  -7.056  -5.689  0.00  0.00    -0.045 A 
ATOM    164  C   UNK A  6        4.324  -8.398  -6.034  0.00  0.00    +0.007 A 
ATOM    165  C   UNK A  6        4.697  -8.892  -7.299  0.00  0.00    +0.045 A 
ATOM    166  C   UNK A  6        5.338  -8.047  -8.225  0.00  0.00    +0.117 A 
ATOM    167  C   UNK A  6        5.599  -6.705  -7.887  0.00  0.00    +0.045 A 
ATOM    168  C   UNK A  6        5.226  -6.210  -6.622  0.00  0.00    +0.007 A 
BRANCH 166 169
ATOM    169  O   UNK A  6        5.705  -8.528  -9.447  0.00  0.00    -0.507 OA
ATOM    170  H   UNK A  6        5.484  -9.454  -9.568  0.00  0.00    +0.292 HD
ENDBRANCH 166 169
ENDBRANCH 162 163
ENDBRANCH 106 162
ENDBRANCH 104 106
ENDBRANCH 101 102
BRANCH 101 171
ATOM    171  C   UNK A  6        7.313  -4.787   0.788  0.00  0.00    +0.033 C 
BRANCH 171 172
ATOM    172  C   UNK A  6        7.359  -4.253   2.232  0.00  0.00    +0.017 C 
BRANCH 172 173
ATOM    173  C   UNK A  6        8.752  -4.388   2.869  0.00  0.00    +0.084 C 
BRANCH 173 174
ATOM    174  N   UNK A  6        8.832  -3.708   4.174  0.00  0.00    -0.283 NA
ATOM    175  H   UNK A  6        8.637  -4.291   4.976  0.00  0.00    +0.125 HD
BRANCH 174 176
ATOM    176  C   UNK A  6        9.085  -2.404   4.398  0.00  0.00    +0.167 C 
BRANCH 176 177
ATOM    177  N   UNK A  6        9.326  -1.533   3.404  0.00  0.00    -0.297 NA
ATOM    178  H   UNK A  6        9.327  -1.849   2.444  0.00  0.00    +0.121 HD
ATOM    179  H   UNK A  6        9.510  -0.561   3.610  0.00  0.00    +0.121 HD
ENDBRANCH 176 177
BRANCH 176 180
ATOM    180  N   UNK A  6        9.095  -1.957   5.661  0.00  0.00    -0.297 NA
ATOM    181  H   UNK A  6        8.918  -2.592   6.427  0.00  0.00    +0.121 HD
ATOM    182  H   UNK A  6        9.279  -0.983   5.855  0.00  0.00    +0.121 HD
ENDBRANCH 176 180
ENDBRANCH 174 176
ENDBRANCH 173 174
ENDBRANCH 172 173
ENDBRANCH 171 172
ENDBRANCH 101 171
ENDBRANCH  99 101
ENDBRANCH  96  97
ENDBRANCH  95  96
ENDBRANCH  94  95
ENDBRANCH  93  94
ENDBRANCH   1  93
TORSDOF 83
