REMARK  Name = DB05465
REMARK                            x       y       z     vdW  Elec       q    Type
REMARK                         _______ _______ _______ _____ _____    ______ ____
ROOT
ATOM      1  C   LIG    1        4.022  -2.721  -1.338  0.00  0.00    +0.164 A 
ATOM      2  C   LIG    1        2.637  -2.807  -1.524  0.00  0.00    +0.162 A 
ATOM      3  C   LIG    1        1.805  -1.770  -1.076  0.00  0.00    +0.062 A 
ATOM      4  C   LIG    1        2.341  -0.630  -0.421  0.00  0.00    +0.044 A 
ATOM      5  C   LIG    1        3.754  -0.548  -0.239  0.00  0.00    +0.080 A 
ATOM      6  N   LIG    1        4.341   0.527   0.359  0.00  0.00    -0.235 NA
ATOM      7  C   LIG    1        3.518   1.522   0.766  0.00  0.00    +0.223 A 
ATOM      8  N   LIG    1        2.171   1.558   0.649  0.00  0.00    -0.220 NA
ATOM      9  C   LIG    1        1.578   0.485   0.059  0.00  0.00    +0.132 A 
ATOM     10  C   LIG    1        4.575  -1.603  -0.697  0.00  0.00    +0.078 A 
ENDROOT
BRANCH   9  11
ATOM     11  N   LIG    1        0.185   0.506   0.011  0.00  0.00    -0.312 N 
ATOM     12  C   LIG    1       -0.560   1.766  -0.121  0.00  0.00    +0.125 C 
ATOM     13  C   LIG    1       -2.031   1.618  -0.567  0.00  0.00    +0.128 C 
ATOM     14  N   LIG    1       -2.712   0.620   0.277  0.00  0.00    -0.282 N 
ATOM     15  C   LIG    1       -4.057   0.752   0.472  0.00  0.00    +0.307 C 
ATOM     16  N   LIG    1       -4.588  -0.119   1.365  0.00  0.00    -0.269 N 
ATOM     17  H   LIG    1       -3.966  -0.834   1.712  0.00  0.00    +0.156 HD
ATOM     18  O   LIG    1       -4.719   1.640  -0.071  0.00  0.00    -0.252 OA
ATOM     19  C   LIG    1       -2.034  -0.687   0.409  0.00  0.00    +0.128 C 
ATOM     20  C   LIG    1       -0.560  -0.473   0.813  0.00  0.00    +0.125 C 
BRANCH  16  21
ATOM     21  C   LIG    1       -5.905  -0.210   1.857  0.00  0.00    +0.035 A 
ATOM     22  C   LIG    1       -6.846   0.829   1.804  0.00  0.00    +0.027 A 
ATOM     23  C   LIG    1       -8.123   0.642   2.329  0.00  0.00    +0.047 A 
ATOM     24  C   LIG    1       -8.476  -0.581   2.919  0.00  0.00    +0.121 A 
ATOM     25  C   LIG    1       -7.528  -1.602   2.983  0.00  0.00    +0.047 A 
ATOM     26  C   LIG    1       -6.252  -1.420   2.460  0.00  0.00    +0.027 A 
BRANCH  24  27
ATOM     27  O   LIG    1       -9.713  -0.863   3.470  0.00  0.00    -0.489 OA
BRANCH  27  28
ATOM     28  C   LIG    1      -10.793   0.070   3.378  0.00  0.00    +0.167 C 
ATOM     29  C   LIG    1      -11.396   0.074   1.960  0.00  0.00    +0.051 C 
ATOM     30  C   LIG    1      -11.830  -0.344   4.432  0.00  0.00    +0.051 C 
ENDBRANCH  27  28
ENDBRANCH  24  27
ENDBRANCH  16  21
ENDBRANCH   9  11
BRANCH   2  31
ATOM     31  O   LIG    1        2.161  -3.940  -2.162  0.00  0.00    -0.491 OA
ATOM     32  C   LIG    1        0.761  -4.093  -2.374  0.00  0.00    +0.277 C 
ENDBRANCH   2  31
BRANCH   1  33
ATOM     33  O   LIG    1        4.779  -3.776  -1.819  0.00  0.00    -0.488 OA
BRANCH  33  34
ATOM     34  C   LIG    1        6.198  -3.753  -1.689  0.00  0.00    +0.227 C 
BRANCH  34  35
ATOM     35  C   LIG    1        6.791  -4.983  -2.393  0.00  0.00    +0.022 C 
BRANCH  35  36
ATOM     36  C   LIG    1        6.330  -6.317  -1.773  0.00  0.00    -0.076 C 
BRANCH  36  37
ATOM     37  N   LIG    1        6.732  -7.526  -2.654  0.00  0.00    +0.380 N 
ATOM     38  H   LIG    1        6.406  -7.359  -3.596  0.00  0.00    -0.082 HD
ATOM     39  C   LIG    1        8.268  -7.725  -2.703  0.00  0.00    -0.079 C 
ATOM     40  C   LIG    1        8.597  -8.921  -3.616  0.00  0.00    -0.019 C 
ATOM     41  C   LIG    1        7.875 -10.204  -3.172  0.00  0.00    -0.004 C 
ATOM     42  C   LIG    1        6.358  -9.984  -3.055  0.00  0.00    -0.019 C 
ATOM     43  C   LIG    1        6.017  -8.798  -2.136  0.00  0.00    -0.079 C 
ENDBRANCH  36  37
ENDBRANCH  35  36
ENDBRANCH  34  35
ENDBRANCH  33  34
ENDBRANCH   1  33
TORSDOF 10
