REMARK  Name = DB05155
REMARK                            x       y       z     vdW  Elec       q    Type
REMARK                         _______ _______ _______ _____ _____    ______ ____
ROOT
ATOM      1  C   LIG    1        0.101   0.145   0.202  0.00  0.00    +0.159 C 
ENDROOT
BRANCH   1   4
ATOM      2  C   LIG    1       -0.506  -1.905   1.556  0.00  0.00    +0.234 C 
ATOM      3  O   LIG    1        0.020  -2.740   0.821  0.00  0.00    -0.274 OA
ATOM      4  N   LIG    1       -0.505  -0.578   1.327  0.00  0.00    -0.302 N 
ATOM      5  H   LIG    1       -0.981   0.013   1.993  0.00  0.00    +0.150 HD
BRANCH   2   6
ATOM      6  C   LIG    1       -1.258  -2.357   2.826  0.00  0.00    +0.163 C 
BRANCH   6   7
ATOM      7  N   LIG    1       -0.585  -3.429   3.573  0.00  0.00    -0.305 N 
ATOM      8  H   LIG    1       -0.206  -3.137   4.462  0.00  0.00    +0.149 HD
ATOM      9  C   LIG    1       -0.423  -4.718   3.216  0.00  0.00    +0.199 C 
ATOM     10  O   LIG    1       -0.854  -5.209   2.168  0.00  0.00    -0.278 OA
BRANCH   9  11
ATOM     11  C   LIG    1        0.320  -5.593   4.257  0.00  0.00    +0.017 C 
BRANCH  11  12
ATOM     12  N   LIG    1        1.346  -6.389   3.496  0.00  0.00    +0.386 N 
ATOM     13  H   LIG    1        1.760  -7.072   4.114  0.00  0.00    -0.089 HD
ATOM     14  H   LIG    1        0.888  -6.856   2.726  0.00  0.00    -0.089 HD
ATOM     15  H   LIG    1        2.058  -5.763   3.147  0.00  0.00    -0.089 HD
ENDBRANCH  11  12
BRANCH  11  16
ATOM     16  C   LIG    1       -0.621  -6.508   5.086  0.00  0.00    +0.028 C 
BRANCH  16  17
ATOM     17  C   LIG    1       -1.728  -5.790   5.844  0.00  0.00    -0.048 A 
ATOM     18  C   LIG    1       -2.995  -5.601   5.249  0.00  0.00    +0.003 A 
ATOM     19  C   LIG    1       -3.965  -4.852   5.902  0.00  0.00    +0.000 A 
ATOM     20  C   LIG    1       -3.687  -4.265   7.130  0.00  0.00    +0.000 A 
ATOM     21  C   LIG    1       -2.433  -4.411   7.710  0.00  0.00    +0.000 A 
ATOM     22  C   LIG    1       -1.449  -5.155   7.073  0.00  0.00    +0.003 A 
ENDBRANCH  16  17
ENDBRANCH  11  16
ENDBRANCH   9  11
ENDBRANCH   6   7
BRANCH   6  23
ATOM     23  C   LIG    1       -2.760  -2.682   2.594  0.00  0.00    +0.067 C 
BRANCH  23  24
ATOM     24  C   LIG    1       -3.540  -1.678   1.761  0.00  0.00    -0.045 A 
ATOM     25  C   LIG    1       -3.969  -0.463   2.337  0.00  0.00    +0.004 A 
ATOM     26  C   LIG    1       -4.585   0.501   1.550  0.00  0.00    +0.000 A 
ATOM     27  C   LIG    1       -4.760   0.285   0.189  0.00  0.00    +0.000 A 
ATOM     28  C   LIG    1       -4.313  -0.892  -0.400  0.00  0.00    +0.000 A 
ATOM     29  C   LIG    1       -3.695  -1.867   0.370  0.00  0.00    +0.004 A 
ENDBRANCH  23  24
ENDBRANCH   6  23
ENDBRANCH   2   6
ENDBRANCH   1   4
BRANCH   1  30
ATOM     30  C   LIG    1        1.641   0.197   0.284  0.00  0.00    +0.234 C 
ATOM     31  O   LIG    1        2.280  -0.808   0.598  0.00  0.00    -0.274 OA
ATOM     32  N   LIG    1        2.197   1.381  -0.034  0.00  0.00    -0.302 N 
ATOM     33  H   LIG    1        1.583   2.143  -0.284  0.00  0.00    +0.150 HD
BRANCH  32  34
ATOM     34  C   LIG    1        3.628   1.702  -0.084  0.00  0.00    +0.159 C 
BRANCH  34  35
ATOM     35  C   LIG    1        4.294   1.569   1.301  0.00  0.00    +0.234 C 
ATOM     36  O   LIG    1        5.059   0.634   1.536  0.00  0.00    -0.274 OA
ATOM     37  N   LIG    1        3.957   2.511   2.198  0.00  0.00    -0.310 N 
ATOM     38  H   LIG    1        3.313   3.239   1.925  0.00  0.00    +0.149 HD
BRANCH  37  39
ATOM     39  C   LIG    1        4.495   2.592   3.557  0.00  0.00    +0.139 C 
BRANCH  39  40
ATOM     40  C   LIG    1        5.990   2.893   3.663  0.00  0.00    -0.027 A 
ATOM     41  C   LIG    1        6.762   2.256   4.642  0.00  0.00    +0.025 A 
ATOM     42  C   LIG    1        8.130   2.532   4.706  0.00  0.00    +0.111 A 
ATOM     43  N   LIG    1        8.750   3.391   3.858  0.00  0.00    -0.263 NA
ATOM     44  C   LIG    1        7.992   4.001   2.911  0.00  0.00    +0.111 A 
ATOM     45  C   LIG    1        6.620   3.781   2.779  0.00  0.00    +0.025 A 
ENDBRANCH  39  40
ENDBRANCH  37  39
ENDBRANCH  34  35
BRANCH  34  46
ATOM     46  C   LIG    1        4.321   0.898  -1.215  0.00  0.00    +0.033 C 
BRANCH  46  47
ATOM     47  C   LIG    1        5.776   1.313  -1.506  0.00  0.00    +0.017 C 
BRANCH  47  48
ATOM     48  C   LIG    1        6.362   0.559  -2.711  0.00  0.00    +0.084 C 
BRANCH  48  49
ATOM     49  N   LIG    1        7.805   0.809  -2.874  0.00  0.00    -0.283 NA
ATOM     50  H   LIG    1        8.228   1.396  -2.170  0.00  0.00    +0.125 HD
BRANCH  49  51
ATOM     51  C   LIG    1        8.602   0.334  -3.853  0.00  0.00    +0.167 C 
BRANCH  51  52
ATOM     52  N   LIG    1        8.140  -0.457  -4.837  0.00  0.00    -0.297 NA
ATOM     53  H   LIG    1        7.165  -0.718  -4.859  0.00  0.00    +0.121 HD
ATOM     54  H   LIG    1        8.764  -0.794  -5.556  0.00  0.00    +0.121 HD
ENDBRANCH  51  52
BRANCH  51  55
ATOM     55  N   LIG    1        9.902   0.660  -3.845  0.00  0.00    -0.297 NA
ATOM     56  H   LIG    1       10.271   1.250  -3.113  0.00  0.00    +0.121 HD
ATOM     57  H   LIG    1       10.518   0.315  -4.566  0.00  0.00    +0.121 HD
ENDBRANCH  51  55
ENDBRANCH  49  51
ENDBRANCH  48  49
ENDBRANCH  47  48
ENDBRANCH  46  47
ENDBRANCH  34  46
ENDBRANCH  32  34
ENDBRANCH   1  30
BRANCH   1  58
ATOM     58  C   LIG    1       -0.412  -0.336  -1.182  0.00  0.00    +0.032 C 
BRANCH  58  59
ATOM     59  C   LIG    1        0.120   0.458  -2.394  0.00  0.00    +0.002 C 
BRANCH  59  60
ATOM     60  C   LIG    1       -0.553   0.052  -3.716  0.00  0.00    -0.003 C 
ATOM     61  C   LIG    1       -0.011   0.830  -4.923  0.00  0.00    +0.004 C 
ENDBRANCH  59  60
ENDBRANCH  58  59
ENDBRANCH   1  58
TORSDOF 24
