REMARK  Name = DB05968
REMARK                            x       y       z     vdW  Elec       q    Type
REMARK                         _______ _______ _______ _____ _____    ______ ____
ROOT
ATOM      1  C   LIG    1        1.323   0.324  -0.062  0.00  0.00    +0.073 A 
ATOM      2  C   LIG    1        2.010   0.624   1.148  0.00  0.00    +0.145 A 
ATOM      3  C   LIG    1        3.402   0.478   1.197  0.00  0.00    +0.067 A 
ATOM      4  C   LIG    1        4.149   0.074   0.092  0.00  0.00    +0.125 A 
ATOM      5  C   LIG    1        3.472  -0.170  -1.102  0.00  0.00    +0.047 A 
ATOM      6  C   LIG    1        2.081  -0.029  -1.218  0.00  0.00    +0.062 A 
ENDROOT
BRANCH   6   7
ATOM      7  C   LIG    1        1.475  -0.276  -2.590  0.00  0.00    +0.246 C 
ATOM      8  N   LIG    1        2.156   0.267  -3.614  0.00  0.00    -0.309 N 
ATOM      9  H   LIG    1        3.021   0.751  -3.411  0.00  0.00    +0.149 HD
ATOM     10  O   LIG    1        0.435  -0.914  -2.748  0.00  0.00    -0.270 OA
BRANCH   8  11
ATOM     11  C   LIG    1        1.742   0.293  -5.013  0.00  0.00    +0.133 C 
BRANCH  11  12
ATOM     12  C   LIG    1        1.186   1.663  -5.448  0.00  0.00    +0.191 C 
BRANCH  12  13
ATOM     13  O   LIG    1        2.184   2.659  -5.627  0.00  0.00    -0.285 OA
BRANCH  13  14
ATOM     14  P   LIG    1        3.112   3.374  -4.304  0.00  0.00    +0.472 P 
ATOM     15  O   LIG    1        3.705   4.672  -4.879  0.00  0.00    -0.228 OA
BRANCH  14  16
ATOM     16  O   LIG    1        4.194   2.343  -3.929  0.00  0.00    -0.303 OA
ATOM     17  H   LIG    1        4.797   2.221  -4.679  0.00  0.00    +0.222 HD
ENDBRANCH  14  16
BRANCH  14  18
ATOM     18  O   LIG    1        2.108   3.629  -3.165  0.00  0.00    -0.303 OA
ATOM     19  H   LIG    1        1.452   4.283  -3.453  0.00  0.00    +0.222 HD
ENDBRANCH  14  18
ENDBRANCH  13  14
ENDBRANCH  12  13
ENDBRANCH  11  12
ENDBRANCH   8  11
ENDBRANCH   6   7
BRANCH   2  20
ATOM     20  N   LIG    1        1.327   1.039   2.406  0.00  0.00    +0.008 N 
ATOM     21  O   LIG    1        0.190   0.651   2.645  0.00  0.00    -0.130 OA
BRANCH  20  22
ATOM     22  O   LIG    1        1.956   1.730   3.204  0.00  0.00    -0.396 OA
ATOM     23  H   LIG    1        2.825   2.013   2.995  0.00  0.00    +0.329 HD
ENDBRANCH  20  22
ENDBRANCH   2  20
BRANCH   4  24
ATOM     24  N   LIG    1        5.622  -0.082   0.181  0.00  0.00    +0.006 N 
ATOM     25  O   LIG    1        6.178   0.172   1.246  0.00  0.00    -0.130 OA
BRANCH  24  26
ATOM     26  O   LIG    1        6.235  -0.466  -0.811  0.00  0.00    -0.396 OA
ATOM     27  H   LIG    1        5.773  -0.649  -1.606  0.00  0.00    +0.329 HD
ENDBRANCH  24  26
ENDBRANCH   4  24
BRANCH   1  28
ATOM     28  N   LIG    1       -0.085   0.483  -0.107  0.00  0.00    -0.325 N 
BRANCH  28  29
ATOM     29  C   LIG    1       -0.954  -0.689  -0.255  0.00  0.00    +0.135 C 
BRANCH  29  30
ATOM     30  C   LIG    1       -1.953  -0.886   0.894  0.00  0.00    +0.212 C 
BRANCH  30  31
ATOM     31  O   LIG    1       -2.790  -1.978   0.561  0.00  0.00    -0.237 OA
BRANCH  31  33
ATOM     32  C   LIG    1       -4.745  -3.806   0.700  0.00  0.00    +0.228 C 
ATOM     33  S   LIG    1       -3.908  -2.449   1.704  0.00  0.00    +0.079 S 
ATOM     34  O   LIG    1       -3.188  -3.050   2.832  0.00  0.00    -0.147 OA
ATOM     35  O   LIG    1       -4.852  -1.345   1.911  0.00  0.00    -0.147 OA
ENDBRANCH  31  33
ENDBRANCH  30  31
ENDBRANCH  29  30
ENDBRANCH  28  29
BRANCH  28  36
ATOM     36  C   LIG    1       -0.612   1.841  -0.250  0.00  0.00    +0.116 C 
BRANCH  36  37
ATOM     37  C   LIG    1       -0.888   2.246  -1.705  0.00  0.00    +0.099 C 
ATOM     38 BR   LIG    1       -1.614   4.098  -1.752  0.00  0.00    -0.090 Br
ENDBRANCH  36  37
ENDBRANCH  28  36
ENDBRANCH   1  28
TORSDOF 18
