REMARK  Name = DB05495
REMARK                            x       y       z     vdW  Elec       q    Type
REMARK                         _______ _______ _______ _____ _____    ______ ____
ROOT
ATOM      1  S   LIG    1        2.065  -0.892   1.442  0.00  0.00    +0.059 S 
ATOM      2  O   LIG    1        1.503  -0.346   2.683  0.00  0.00    -0.153 OA
ATOM      3  O   LIG    1        3.514  -0.906   1.213  0.00  0.00    -0.153 OA
ENDROOT
BRANCH   1   4
ATOM      4  C   LIG    1        1.496  -2.581   1.274  0.00  0.00    +0.105 A 
ATOM      5  C   LIG    1        1.937  -3.343   0.191  0.00  0.00    +0.030 A 
ATOM      6  C   LIG    1        1.470  -4.643   0.019  0.00  0.00    +0.025 A 
ATOM      7  C   LIG    1        0.555  -5.186   0.936  0.00  0.00    +0.034 A 
ATOM      8  C   LIG    1        0.118  -4.414   2.014  0.00  0.00    +0.025 A 
ATOM      9  C   LIG    1        0.588  -3.116   2.187  0.00  0.00    +0.030 A 
BRANCH   7  10
ATOM     10  N   LIG    1       -0.003  -6.476   0.846  0.00  0.00    -0.282 N 
ATOM     11  H   LIG    1       -0.748  -6.648   1.504  0.00  0.00    +0.155 HD
ATOM     12  C   LIG    1        0.317  -7.508   0.031  0.00  0.00    +0.248 C 
ATOM     13  O   LIG    1        1.258  -7.503  -0.765  0.00  0.00    -0.270 OA
BRANCH  12  14
ATOM     14  C   LIG    1       -0.548  -8.745   0.172  0.00  0.00    +0.037 A 
ATOM     15  C   LIG    1       -1.807  -8.696   0.794  0.00  0.00    +0.016 A 
ATOM     16  C   LIG    1       -2.588  -9.843   0.907  0.00  0.00    +0.046 A 
ATOM     17  C   LIG    1       -2.128 -11.066   0.398  0.00  0.00    +0.120 A 
ATOM     18  C   LIG    1       -0.881 -11.116  -0.222  0.00  0.00    +0.046 A 
ATOM     19  C   LIG    1       -0.099  -9.970  -0.337  0.00  0.00    +0.016 A 
BRANCH  17  20
ATOM     20  O   LIG    1       -2.833 -12.252   0.464  0.00  0.00    -0.495 OA
ATOM     21  C   LIG    1       -4.116 -12.264   1.083  0.00  0.00    +0.277 C 
ENDBRANCH  17  20
ENDBRANCH  12  14
ENDBRANCH   7  10
ENDBRANCH   1   4
BRANCH   1  22
ATOM     22  N   LIG    1        1.321  -0.051   0.086  0.00  0.00    -0.175 NA
ATOM     23  H   LIG    1        1.801  -0.127  -0.815  0.00  0.00    +0.149 HD
BRANCH  22  24
ATOM     24  C   LIG    1       -0.159   0.053   0.021  0.00  0.00    +0.196 C 
BRANCH  24  25
ATOM     25  C   LIG    1       -0.622  -0.856  -1.156  0.00  0.00    +0.324 C 
ATOM     26  O   LIG    1       -1.474  -1.732  -0.885  0.00  0.00    -0.249 OA
BRANCH  25  27
ATOM     27  O   LIG    1       -0.147  -0.668  -2.302  0.00  0.00    -0.479 OA
ATOM     28  H   LIG    1        0.489   0.006  -2.441  0.00  0.00    +0.295 HD
ENDBRANCH  25  27
ENDBRANCH  24  25
BRANCH  24  29
ATOM     29  C   LIG    1       -0.585   1.538  -0.146  0.00  0.00    +0.120 C 
BRANCH  29  30
ATOM     30  C   LIG    1       -2.037   1.795  -0.080  0.00  0.00    -0.099 C 
ATOM     31  C   LIG    1       -3.244   1.974  -0.023  0.00  0.00    -0.087 C 
BRANCH  31  32
ATOM     32  C   LIG    1       -4.706   2.157   0.044  0.00  0.00    +0.174 C 
BRANCH  32  33
ATOM     33  N   LIG    1       -5.239   1.645   1.311  0.00  0.00    -0.287 NA
ATOM     34  C   LIG    1       -6.664   1.315   1.181  0.00  0.00    +0.113 C 
ATOM     35  C   LIG    1       -7.251   0.809   2.516  0.00  0.00    +0.175 C 
ATOM     36  O   LIG    1       -7.017   1.764   3.545  0.00  0.00    -0.377 OA
ATOM     37  C   LIG    1       -5.630   2.013   3.746  0.00  0.00    +0.175 C 
ATOM     38  C   LIG    1       -4.993   2.550   2.447  0.00  0.00    +0.113 C 
ENDBRANCH  32  33
ENDBRANCH  31  32
ENDBRANCH  29  30
ENDBRANCH  24  29
ENDBRANCH  22  24
ENDBRANCH   1  22
TORSDOF 12
