REMARK  Name = DB05444
REMARK                            x       y       z     vdW  Elec       q    Type
REMARK                         _______ _______ _______ _____ _____    ______ ____
ROOT
ATOM      1  O   LIG    1        3.684  -0.468  -0.904  0.00  0.00    -0.292 OA
ATOM      2  C   LIG    1        2.277  -0.250  -1.071  0.00  0.00    +0.338 C 
ATOM      3  C   LIG    1        1.641   0.236   0.257  0.00  0.00    +0.191 C 
ATOM      4  N   LIG    1        2.139  -0.644   1.314  0.00  0.00    -0.226 N 
ATOM      5  H   LIG    1        1.599  -0.619   2.167  0.00  0.00    +0.292 HD
ATOM      6  C   LIG    1        3.451  -1.103   1.356  0.00  0.00    +0.366 C 
ATOM      7  N   LIG    1        4.203  -0.974   0.328  0.00  0.00    +0.154 NA
ENDROOT
BRANCH   6   8
ATOM      8  C   LIG    1        3.953  -1.720   2.600  0.00  0.00    +0.087 A 
ATOM      9  C   LIG    1        5.001  -2.655   2.582  0.00  0.00    +0.126 A 
ATOM     10  N   LIG    1        5.495  -3.249   3.698  0.00  0.00    -0.262 NA
ATOM     11  C   LIG    1        4.943  -2.915   4.890  0.00  0.00    +0.111 A 
ATOM     12  C   LIG    1        3.900  -1.997   5.011  0.00  0.00    +0.021 A 
ATOM     13  C   LIG    1        3.404  -1.396   3.853  0.00  0.00    +0.019 A 
ENDBRANCH   6   8
BRANCH   3  14
ATOM     14  C   LIG    1        0.090   0.214   0.272  0.00  0.00    -0.027 C 
BRANCH  14  15
ATOM     15  N   LIG    1       -0.537   1.600  -0.035  0.00  0.00    +0.382 N 
ATOM     16  H   LIG    1       -0.206   2.259   0.656  0.00  0.00    -0.082 HD
ATOM     17  C   LIG    1       -0.143   2.143  -1.431  0.00  0.00    -0.079 C 
ATOM     18  C   LIG    1       -0.803   3.516  -1.656  0.00  0.00    -0.019 C 
ATOM     19  C   LIG    1       -2.329   3.470  -1.473  0.00  0.00    -0.004 C 
ATOM     20  C   LIG    1       -2.708   2.884  -0.104  0.00  0.00    -0.019 C 
ATOM     21  C   LIG    1       -2.075   1.500   0.121  0.00  0.00    -0.079 C 
ENDBRANCH  14  15
ENDBRANCH   3  14
TORSDOF 3
