REMARK  Name = DB05541
REMARK                            x       y       z     vdW  Elec       q    Type
REMARK                         _______ _______ _______ _____ _____    ______ ____
ROOT
ATOM      1  O   LIG    1       -0.129   2.315  -0.417  0.00  0.00    -0.276 OA
ATOM      2  C   LIG    1       -0.564   1.172  -0.272  0.00  0.00    +0.217 C 
ATOM      3  C   LIG    1       -2.024   0.756  -0.439  0.00  0.00    +0.101 C 
ATOM      4  C   LIG    1       -2.130  -0.636   0.160  0.00  0.00    +0.015 C 
ATOM      5  C   LIG    1       -0.708  -1.166   0.071  0.00  0.00    +0.112 C 
ATOM      6  N   LIG    1        0.121   0.042   0.036  0.00  0.00    -0.290 N 
ENDROOT
BRANCH   4   7
ATOM      7  C   LIG    1       -3.192  -1.541  -0.498  0.00  0.00    +0.005 C 
BRANCH   7   8
ATOM      8  C   LIG    1       -3.355  -2.909   0.191  0.00  0.00    -0.003 C 
ATOM      9  C   LIG    1       -4.432  -3.783  -0.466  0.00  0.00    +0.004 C 
ENDBRANCH   7   8
ENDBRANCH   4   7
BRANCH   6  10
ATOM     10  C   LIG    1        1.596   0.013   0.166  0.00  0.00    +0.161 C 
BRANCH  10  11
ATOM     11  C   LIG    1        2.204  -0.367  -1.210  0.00  0.00    +0.231 C 
ATOM     12  N   LIG    1        2.066   0.510  -2.209  0.00  0.00    -0.328 N 
ATOM     13  H   LIG    1        2.451   0.307  -3.119  0.00  0.00    +0.145 HD
ATOM     14  H   LIG    1        1.573   1.379  -2.059  0.00  0.00    +0.145 HD
ATOM     15  O   LIG    1        2.808  -1.426  -1.375  0.00  0.00    -0.274 OA
ENDBRANCH  10  11
BRANCH  10  16
ATOM     16  C   LIG    1        2.104  -0.890   1.325  0.00  0.00    +0.028 C 
ATOM     17  C   LIG    1        1.577  -0.473   2.708  0.00  0.00    +0.006 C 
ENDBRANCH  10  16
ENDBRANCH   6  10
TORSDOF 5
