REMARK  Name = DB05719
REMARK                            x       y       z     vdW  Elec       q    Type
REMARK                         _______ _______ _______ _____ _____    ______ ____
ROOT
ATOM      1  C   LIG    1        1.385  -0.468  -0.874  0.00  0.00    +0.199 C 
ATOM      2  C   LIG    1        2.108  -0.453   0.281  0.00  0.00    +0.132 C 
ENDROOT
BRANCH   2   3
ATOM      3  C   LIG    1        3.156  -1.371   0.685  0.00  0.00    +0.258 C 
ATOM      4  O   LIG    1        3.276  -1.693   1.869  0.00  0.00    -0.269 OA
ATOM      5  N   LIG    1        3.922  -1.870  -0.315  0.00  0.00    -0.230 N 
ATOM      6  H   LIG    1        3.961  -1.412  -1.214  0.00  0.00    +0.173 HD
BRANCH   5   7
ATOM      7  N   LIG    1        5.144  -2.482   0.003  0.00  0.00    -0.246 N 
ATOM      8  C   LIG    1        6.325  -1.628  -0.197  0.00  0.00    +0.154 C 
BRANCH   7   9
ATOM      9  C   LIG    1        5.242  -3.846   0.238  0.00  0.00    +0.098 C 
ATOM     10  S   LIG    1        6.657  -4.701   0.537  0.00  0.00    -0.033 S 
BRANCH   9  11
ATOM     11  C   LIG    1        3.961  -4.606   0.302  0.00  0.00    +0.005 A 
ATOM     12  C   LIG    1        3.170  -4.751  -0.848  0.00  0.00    +0.010 A 
ATOM     13  C   LIG    1        1.956  -5.431  -0.787  0.00  0.00    +0.001 A 
ATOM     14  C   LIG    1        1.531  -5.977   0.420  0.00  0.00    +0.000 A 
ATOM     15  C   LIG    1        2.308  -5.850   1.569  0.00  0.00    +0.001 A 
ATOM     16  C   LIG    1        3.520  -5.168   1.510  0.00  0.00    +0.010 A 
ENDBRANCH   9  11
ENDBRANCH   7   9
ENDBRANCH   5   7
ENDBRANCH   2   3
BRANCH   1  17
ATOM     17  N   LIG    1        0.352   0.447  -1.094  0.00  0.00    -0.234 N 
ATOM     18  H   LIG    1       -0.328   0.172  -1.787  0.00  0.00    +0.173 HD
BRANCH  17  19
ATOM     19  N   LIG    1       -0.360   1.058  -0.034  0.00  0.00    -0.246 N 
ATOM     20  C   LIG    1        0.086   2.415   0.312  0.00  0.00    +0.154 C 
BRANCH  19  21
ATOM     21  C   LIG    1       -1.554   0.548   0.449  0.00  0.00    +0.098 C 
ATOM     22  S   LIG    1       -2.681   1.341   1.409  0.00  0.00    -0.033 S 
BRANCH  21  25
ATOM     23  C   LIG    1       -1.390  -3.224   0.249  0.00  0.00    +0.001 A 
ATOM     24  C   LIG    1       -1.121  -1.908   0.616  0.00  0.00    +0.010 A 
ATOM     25  C   LIG    1       -1.865  -0.854   0.067  0.00  0.00    +0.005 A 
ATOM     26  C   LIG    1       -2.891  -1.139  -0.845  0.00  0.00    +0.010 A 
ATOM     27  C   LIG    1       -3.161  -2.455  -1.209  0.00  0.00    +0.001 A 
ATOM     28  C   LIG    1       -2.408  -3.491  -0.662  0.00  0.00    +0.000 A 
ENDBRANCH  21  25
ENDBRANCH  19  21
ENDBRANCH  17  19
ENDBRANCH   1  17
BRANCH   1  29
ATOM     29  O   LIG    1        1.417  -1.217  -1.922  0.00  0.00    -0.494 OA
ATOM     30  H   LIG    1        0.821  -1.061  -2.628  0.00  0.00    +0.294 HD
ENDBRANCH   1  29
TORSDOF 9
