REMARK  Name = DB05295
REMARK                            x       y       z     vdW  Elec       q    Type
REMARK                         _______ _______ _______ _____ _____    ______ ____
ROOT
ATOM      1  C   LIG    1        2.256   0.024   2.861  0.00  0.00    +0.008 C 
ATOM      2  C   LIG    1        3.065   0.786   3.934  0.00  0.00    +0.005 C 
ATOM      3  C   LIG    1        4.364   1.414   3.370  0.00  0.00    +0.031 C 
ATOM      4  C   LIG    1        4.093   2.220   2.088  0.00  0.00    -0.066 C 
ATOM      5  C   LIG    1        4.477   3.497   1.865  0.00  0.00    -0.000 C 
ATOM      6  C   LIG    1        3.311   1.377   1.067  0.00  0.00    +0.021 C 
ATOM      7  C   LIG    1        2.999   1.914  -0.332  0.00  0.00    +0.009 C 
ATOM      8  C   LIG    1        1.882   0.988  -0.832  0.00  0.00    +0.005 C 
ATOM      9  C   LIG    1        1.368   0.164   0.386  0.00  0.00    -0.002 C 
ATOM     10  C   LIG    1        1.937   0.926   1.634  0.00  0.00    -0.022 C 
ATOM     11  C   LIG    1        1.028   2.134   2.028  0.00  0.00    +0.012 C 
ENDROOT
BRANCH   5  12
ATOM     12  C   LIG    1        5.230   4.345   2.782  0.00  0.00    +0.004 C 
ATOM     13  C   LIG    1        5.512   5.659   2.607  0.00  0.00    -0.040 C 
ATOM     14  C   LIG    1        6.365   6.415   3.622  0.00  0.00    +0.069 C 
ATOM     15  C   LIG    1        7.546   7.098   2.894  0.00  0.00    +0.150 C 
ATOM     16  C   LIG    1        7.061   7.995   1.716  0.00  0.00    +0.180 C 
ATOM     17  C   LIG    1        6.155   7.224   0.713  0.00  0.00    +0.175 C 
ATOM     18  C   LIG    1        5.053   6.467   1.476  0.00  0.00    -0.020 C 
ATOM     19  C   LIG    1        3.739   6.542   1.172  0.00  0.00    +0.015 C 
BRANCH  17  20
ATOM     20  O   LIG    1        5.637   8.097  -0.279  0.00  0.00    -0.385 OA
ATOM     21  H   LIG    1        5.291   7.568  -1.000  0.00  0.00    +0.210 HD
ENDBRANCH  17  20
BRANCH  15  22
ATOM     22  O   LIG    1        8.491   6.133   2.463  0.00  0.00    -0.389 OA
ATOM     23  H   LIG    1        8.071   5.566   1.813  0.00  0.00    +0.210 HD
ENDBRANCH  15  22
BRANCH  16  24
ATOM     24  O   LIG    1        8.155   8.573   0.999  0.00  0.00    -0.371 OA
BRANCH  24  25
ATOM     25  C   LIG    1        8.849   9.633   1.650  0.00  0.00    +0.162 C 
BRANCH  25  26
ATOM     26  C   LIG    1       10.000  10.106   0.749  0.00  0.00    +0.056 C 
BRANCH  26  27
ATOM     27  C   LIG    1       11.068   9.024   0.511  0.00  0.00    +0.158 C 
BRANCH  27  28
ATOM     28  O   LIG    1       12.105   9.515  -0.312  0.00  0.00    -0.395 OA
ATOM     29  H   LIG    1       11.763   9.617  -1.203  0.00  0.00    +0.209 HD
ENDBRANCH  27  28
ENDBRANCH  26  27
ENDBRANCH  25  26
ENDBRANCH  24  25
ENDBRANCH  16  24
ENDBRANCH   5  12
BRANCH   9  30
ATOM     30  C   LIG    1       -0.170  -0.139   0.322  0.00  0.00    -0.010 C 
ATOM     31  C   LIG    1       -0.691  -0.899   1.563  0.00  0.00    +0.008 C 
BRANCH  30  32
ATOM     32  C   LIG    1       -0.546  -0.907  -0.979  0.00  0.00    +0.003 C 
BRANCH  32  33
ATOM     33  C   LIG    1       -2.054  -0.947  -1.307  0.00  0.00    +0.003 C 
BRANCH  33  34
ATOM     34  C   LIG    1       -2.352  -1.618  -2.668  0.00  0.00    +0.034 C 
BRANCH  34  35
ATOM     35  C   LIG    1       -3.839  -1.645  -3.116  0.00  0.00    +0.061 C 
ATOM     36  C   LIG    1       -4.756  -2.370  -2.107  0.00  0.00    +0.041 C 
ATOM     37  C   LIG    1       -3.980  -2.244  -4.529  0.00  0.00    +0.041 C 
BRANCH  35  38
ATOM     38  O   LIG    1       -4.312  -0.311  -3.179  0.00  0.00    -0.389 OA
ATOM     39  H   LIG    1       -4.238   0.079  -2.305  0.00  0.00    +0.210 HD
ENDBRANCH  35  38
ENDBRANCH  34  35
ENDBRANCH  33  34
ENDBRANCH  32  33
ENDBRANCH  30  32
ENDBRANCH   9  30
TORSDOF 14
