REMARK  Name = DB05644
REMARK                            x       y       z     vdW  Elec       q    Type
REMARK                         _______ _______ _______ _____ _____    ______ ____
ROOT
ATOM      1  N   LIG    1       -4.586  -2.297  -0.130  0.00  0.00    -0.213 N 
ATOM      2  C   LIG    1       -3.119  -2.580  -0.192  0.00  0.00    +0.359 C 
ATOM      3  N   LIG    1       -2.248  -1.418   0.021  0.00  0.00    -0.096 NA
ATOM      4  C   LIG    1       -2.744  -0.234   0.064  0.00  0.00    +0.384 C 
ATOM      5  N   LIG    1       -4.084  -0.068  -0.101  0.00  0.00    -0.159 N 
ATOM      6  H   LIG    1       -4.426   0.881  -0.131  0.00  0.00    +0.256 HD
ATOM      7  C   LIG    1       -5.047  -1.009  -0.262  0.00  0.00    +0.371 C 
ATOM      8  O   LIG    1       -6.215  -0.668  -0.456  0.00  0.00    -0.233 OA
ENDROOT
BRANCH   1   9
ATOM      9  C1* LIG    1       -5.535  -3.378  -0.307  0.00  0.00    +0.217 C 
ATOM     10  C2* LIG    1       -5.850  -3.781  -1.742  0.00  0.00    +0.086 C 
ATOM     11  C3* LIG    1       -6.402  -5.182  -1.518  0.00  0.00    +0.150 C 
ATOM     12  C4* LIG    1       -5.590  -5.711  -0.323  0.00  0.00    +0.174 C 
ATOM     13  O4* LIG    1       -5.078  -4.543   0.314  0.00  0.00    -0.350 OA
BRANCH  11  14
ATOM     14  O3* LIG    1       -7.795  -5.165  -1.259  0.00  0.00    -0.389 OA
ATOM     15  H3* LIG    1       -7.950  -4.644  -0.467  0.00  0.00    +0.210 HD
ENDBRANCH  11  14
BRANCH  12  16
ATOM     16  C5* LIG    1       -4.406  -6.646  -0.659  0.00  0.00    +0.190 C 
BRANCH  16  17
ATOM     17  O5* LIG    1       -3.518  -6.085  -1.608  0.00  0.00    -0.392 OA
ATOM     18  H5* LIG    1       -2.806  -6.710  -1.766  0.00  0.00    +0.210 HD
ENDBRANCH  16  17
ENDBRANCH  12  16
ENDBRANCH   1   9
BRANCH   4  19
ATOM     19  N   LIG    1       -2.053   0.930   0.245  0.00  0.00    -0.140 N 
ATOM     20  H   LIG    1       -2.618   1.765   0.289  0.00  0.00    +0.258 HD
ATOM     21  C   LIG    1       -0.671   1.168   0.338  0.00  0.00    +0.469 C 
ATOM     22  O   LIG    1       -0.193   2.296   0.468  0.00  0.00    -0.209 OA
BRANCH  21  23
ATOM     23  O   LIG    1        0.080   0.042   0.256  0.00  0.00    -0.438 OA
BRANCH  23  24
ATOM     24  C   LIG    1        1.498   0.087   0.168  0.00  0.00    +0.235 C 
BRANCH  24  25
ATOM     25  C   LIG    1        2.044  -1.346   0.056  0.00  0.00    +0.041 C 
BRANCH  25  26
ATOM     26  C   LIG    1        1.518  -2.114  -1.174  0.00  0.00    +0.003 C 
BRANCH  26  27
ATOM     27  C   LIG    1        2.049  -3.556  -1.261  0.00  0.00    +0.000 C 
BRANCH  27  28
ATOM     28  C   LIG    1        1.456  -4.337  -2.447  0.00  0.00    -0.000 C 
BRANCH  28  29
ATOM     29  C   LIG    1        1.967  -5.786  -2.529  0.00  0.00    -0.003 C 
ATOM     30  C   LIG    1        1.351  -6.571  -3.696  0.00  0.00    +0.004 C 
ENDBRANCH  28  29
ENDBRANCH  27  28
ENDBRANCH  26  27
ENDBRANCH  25  26
ENDBRANCH  24  25
ENDBRANCH  23  24
ENDBRANCH  21  23
ENDBRANCH   4  19
TORSDOF 12
