REMARK  Name = DB05501
REMARK                            x       y       z     vdW  Elec       q    Type
REMARK                         _______ _______ _______ _____ _____    ______ ____
ROOT
ATOM      1  N   LIG    1       -0.212  -0.176  -0.521  0.00  0.00    -0.287 NA
ENDROOT
BRANCH   1   2
ATOM      2  C   LIG    1       -0.501  -0.911  -1.769  0.00  0.00    +0.106 C 
ATOM      3  C   LIG    1       -0.025  -2.383  -1.777  0.00  0.00    +0.062 A 
ATOM      4  N   LIG    1       -0.002  -3.053  -0.587  0.00  0.00    -0.258 NA
ATOM      5  C   LIG    1        0.318  -4.367  -0.563  0.00  0.00    +0.111 A 
ATOM      6  C   LIG    1        0.620  -5.084  -1.714  0.00  0.00    +0.020 A 
ATOM      7  C   LIG    1        0.601  -4.410  -2.932  0.00  0.00    +0.007 A 
ATOM      8  C   LIG    1        0.285  -3.046  -2.991  0.00  0.00    -0.025 A 
ATOM      9  C   LIG    1        0.315  -2.310  -4.330  0.00  0.00    +0.037 C 
ATOM     10  C   LIG    1       -0.505  -1.010  -4.308  0.00  0.00    +0.007 C 
ATOM     11  C   LIG    1       -0.120  -0.175  -3.082  0.00  0.00    +0.025 C 
ENDBRANCH   1   2
BRANCH   1  12
ATOM     12  C   LIG    1       -1.023   1.047  -0.387  0.00  0.00    +0.159 C 
BRANCH  12  18
ATOM     13  C   LIG    1       -2.907   2.877   5.023  0.00  0.00    +0.002 A 
ATOM     14  C   LIG    1       -2.525   3.395   3.783  0.00  0.00    +0.028 A 
ATOM     15  C   LIG    1       -2.159   2.466   2.805  0.00  0.00    +0.066 A 
ATOM     16  N   LIG    1       -1.734   2.574   1.501  0.00  0.00    -0.341 N 
ATOM     17  H   LIG    1       -1.591   3.406   0.946  0.00  0.00    +0.167 HD
ATOM     18  C   LIG    1       -1.509   1.300   1.033  0.00  0.00    +0.122 A 
ATOM     19  N   LIG    1       -1.773   0.375   1.928  0.00  0.00    -0.231 NA
ATOM     20  C   LIG    1       -2.171   1.068   3.041  0.00  0.00    +0.089 A 
ATOM     21  C   LIG    1       -2.561   0.580   4.297  0.00  0.00    +0.030 A 
ATOM     22  C   LIG    1       -2.925   1.504   5.277  0.00  0.00    +0.002 A 
ENDBRANCH  12  18
ENDBRANCH   1  12
BRANCH   1  23
ATOM     23  C   LIG    1        1.228   0.055  -0.324  0.00  0.00    +0.085 C 
BRANCH  23  24
ATOM     24  C   LIG    1        1.595   0.455   1.122  0.00  0.00    +0.013 C 
BRANCH  24  25
ATOM     25  C   LIG    1        3.095   0.343   1.444  0.00  0.00    -0.018 C 
BRANCH  25  26
ATOM     26  C   LIG    1        3.585  -1.114   1.535  0.00  0.00    -0.086 C 
BRANCH  26  27
ATOM     27  N   LIG    1        5.069  -1.143   1.913  0.00  0.00    +0.378 N 
ATOM     28  H   LIG    1        5.616  -0.661   1.215  0.00  0.00    -0.090 HD
ATOM     29  H   LIG    1        5.209  -0.691   2.806  0.00  0.00    -0.090 HD
ATOM     30  H   LIG    1        5.392  -2.098   1.978  0.00  0.00    -0.090 HD
ENDBRANCH  26  27
ENDBRANCH  25  26
ENDBRANCH  24  25
ENDBRANCH  23  24
ENDBRANCH   1  23
TORSDOF 8
