REMARK  Name = DB05482
REMARK                            x       y       z     vdW  Elec       q    Type
REMARK                         _______ _______ _______ _____ _____    ______ ____
ROOT
ATOM      1  O   LIG    1       -1.012  -1.849  -1.373  0.00  0.00    -0.457 OA
ATOM      2  C   LIG    1       -0.517  -0.575  -1.384  0.00  0.00    +0.344 C 
ATOM      3  C   LIG    1       -0.017   0.016  -0.037  0.00  0.00    +0.188 C 
ATOM      4  C   LIG    1       -0.608  -0.663   1.206  0.00  0.00    +0.008 A 
ATOM      5  C   LIG    1       -0.662  -0.003   2.510  0.00  0.00    +0.035 A 
ATOM      6  C   LIG    1       -1.173  -0.684   3.554  0.00  0.00    +0.071 A 
ATOM      7  C   LIG    1       -1.373  -0.308   4.958  0.00  0.00    +0.093 A 
ATOM      8  C   LIG    1       -1.947  -1.360   5.647  0.00  0.00    +0.003 A 
ATOM      9  C   LIG    1       -2.237  -1.213   7.007  0.00  0.00    -0.031 A 
ATOM     10  C   LIG    1       -1.932   0.042   7.637  0.00  0.00    +0.007 A 
ATOM     11  C   LIG    1       -2.188   0.331   9.008  0.00  0.00    +0.055 A 
ATOM     12  C   LIG    1       -1.866   1.574   9.547  0.00  0.00    +0.118 A 
ATOM     13  C   LIG    1       -1.285   2.558   8.755  0.00  0.00    +0.047 A 
ATOM     14  C   LIG    1       -1.016   2.318   7.411  0.00  0.00    +0.032 A 
ATOM     15  C   LIG    1       -1.334   1.066   6.831  0.00  0.00    +0.072 A 
ATOM     16  C   LIG    1       -2.154  -2.517   4.707  0.00  0.00    +0.163 C 
ATOM     17  N   LIG    1       -1.059   0.887   5.509  0.00  0.00    -0.245 NA
ATOM     18  N   LIG    1       -1.642  -1.972   3.453  0.00  0.00    -0.302 N 
ATOM     19  C   LIG    1       -1.621  -2.676   2.275  0.00  0.00    +0.259 A 
ATOM     20  O   LIG    1       -2.040  -3.833   2.195  0.00  0.00    -0.267 OA
ATOM     21  C   LIG    1       -1.057  -1.947   1.124  0.00  0.00    +0.061 A 
ATOM     22  O   LIG    1       -0.556  -0.001  -2.473  0.00  0.00    -0.247 OA
ATOM     23  C   LIG    1       -0.979  -2.693  -0.210  0.00  0.00    +0.273 C 
ENDROOT
BRANCH   3  24
ATOM     24  C   LIG    1        1.543  -0.011   0.012  0.00  0.00    +0.048 C 
ATOM     25  C   LIG    1        2.213  -1.401   0.003  0.00  0.00    +0.007 C 
ENDBRANCH   3  24
BRANCH   9  26
ATOM     26  C   LIG    1       -2.878  -2.347   7.806  0.00  0.00    +0.033 C 
ATOM     27  C   LIG    1       -4.396  -2.173   7.973  0.00  0.00    +0.009 C 
ENDBRANCH   9  26
BRANCH  12  28
ATOM     28  O   LIG    1       -2.127   1.831  10.866  0.00  0.00    -0.507 OA
ATOM     29  H   LIG    1       -2.532   1.090  11.321  0.00  0.00    +0.292 HD
ENDBRANCH  12  28
BRANCH   3  30
ATOM     30  O   LIG    1       -0.349   1.398  -0.041  0.00  0.00    -0.373 OA
ATOM     31  H   LIG    1       -1.305   1.481  -0.074  0.00  0.00    +0.211 HD
ENDBRANCH   3  30
TORSDOF 4
