REMARK  Name = DB05520
REMARK                            x       y       z     vdW  Elec       q    Type
REMARK                         _______ _______ _______ _____ _____    ______ ____
ROOT
ATOM      1  C   LIG    1       -4.454  -1.196   0.159  0.00  0.00    +0.065 C 
ATOM      2  C   LIG    1       -3.639  -0.947  -1.111  0.00  0.00    +0.026 A 
ATOM      3  N   LIG    1       -4.050  -1.665  -2.213  0.00  0.00    -0.326 N 
ATOM      4  H   LIG    1       -4.831  -2.299  -2.138  0.00  0.00    +0.169 HD
ATOM      5  C   LIG    1       -3.471  -1.599  -3.443  0.00  0.00    +0.249 A 
ATOM      6  O   LIG    1       -3.849  -2.289  -4.386  0.00  0.00    -0.268 OA
ATOM      7  C   LIG    1       -2.369  -0.652  -3.525  0.00  0.00    +0.070 A 
ATOM      8  C   LIG    1       -1.935   0.049  -2.454  0.00  0.00    +0.013 A 
ATOM      9  C   LIG    1       -2.568  -0.096  -1.138  0.00  0.00    +0.004 A 
ATOM     10  C   LIG    1       -2.084   0.714   0.114  0.00  0.00    +0.113 C 
ATOM     11  C   LIG    1       -2.728   0.102   1.395  0.00  0.00    -0.035 C 
ATOM     12  C   LIG    1       -2.060  -0.198   2.537  0.00  0.00    -0.028 C 
ATOM     13  C   LIG    1       -2.612  -0.810   3.813  0.00  0.00    +0.035 C 
ATOM     14  C   LIG    1       -2.649   2.167  -0.013  0.00  0.00    +0.069 C 
ATOM     15  C   LIG    1       -4.165   2.255   0.185  0.00  0.00    -0.073 C 
ATOM     16  C   LIG    1       -4.832   3.565  -0.194  0.00  0.00    +0.039 C 
ATOM     17  C   LIG    1       -4.852   1.242   0.755  0.00  0.00    -0.020 C 
ATOM     18  C   LIG    1       -4.241  -0.086   1.211  0.00  0.00    +0.046 C 
ENDROOT
BRANCH  10  19
ATOM     19  N   LIG    1       -0.620   0.867   0.222  0.00  0.00    -0.275 NA
ATOM     20  C   LIG    1        0.165  -0.115  -0.018  0.00  0.00    +0.118 C 
BRANCH  20  21
ATOM     21  C   LIG    1        1.638  -0.041   0.053  0.00  0.00    +0.039 A 
ATOM     22  C   LIG    1        2.451  -1.148  -0.276  0.00  0.00    +0.167 A 
ATOM     23  C   LIG    1        3.852  -1.068  -0.204  0.00  0.00    +0.163 A 
ATOM     24  C   LIG    1        4.444   0.138   0.203  0.00  0.00    +0.069 A 
ATOM     25  C   LIG    1        3.657   1.237   0.529  0.00  0.00    +0.045 A 
ATOM     26 CL   LIG    1        4.401   2.713   1.027  0.00  0.00    -0.083 Cl
ATOM     27  C   LIG    1        2.270   1.147   0.454  0.00  0.00    +0.033 A 
BRANCH  22  28
ATOM     28  O   LIG    1        1.898  -2.343  -0.682  0.00  0.00    -0.503 OA
ATOM     29  H   LIG    1        2.563  -3.006  -0.882  0.00  0.00    +0.292 HD
ENDBRANCH  22  28
BRANCH  23  30
ATOM     30  O   LIG    1        4.576  -2.199  -0.544  0.00  0.00    -0.491 OA
ATOM     31  C   LIG    1        5.998  -2.167  -0.481  0.00  0.00    +0.277 C 
ENDBRANCH  23  30
ENDBRANCH  20  21
ENDBRANCH  10  19
TORSDOF 4
