REMARK  Name = DB05119
REMARK                            x       y       z     vdW  Elec       q    Type
REMARK                         _______ _______ _______ _____ _____    ______ ____
ROOT
ATOM      1  N   LIG    1        0.269   0.114  -0.258  0.00  0.00    -0.293 N 
ATOM      2  C   LIG    1       -0.520  -0.963   0.049  0.00  0.00    +0.236 C 
ATOM      3  O   LIG    1       -0.066  -2.101   0.181  0.00  0.00    -0.274 OA
ENDROOT
BRANCH   1   4
ATOM      4  C   LIG    1        1.751  -0.002  -0.493  0.00  0.00    +0.073 C 
ATOM      5  C   LIG    1        2.253  -1.220  -1.331  0.00  0.00    +0.004 C 
ATOM      6  C   LIG    1        1.677  -1.210  -2.759  0.00  0.00    -0.077 C 
ATOM      7  N   LIG    1        2.193   0.064  -3.474  0.00  0.00    +0.381 N 
ATOM      8  H   LIG    1        3.200  -0.007  -3.523  0.00  0.00    -0.082 HD
ATOM      9  C   LIG    1        1.871   1.355  -2.679  0.00  0.00    -0.077 C 
ATOM     10  C   LIG    1        2.401   1.206  -1.233  0.00  0.00    +0.004 C 
BRANCH   7  11
ATOM     11  C   LIG    1        1.646   0.180  -4.918  0.00  0.00    -0.050 C 
BRANCH  11  12
ATOM     12  C   LIG    1        2.146  -0.962  -5.825  0.00  0.00    +0.141 C 
BRANCH  12  13
ATOM     13  O   LIG    1        3.556  -1.108  -5.704  0.00  0.00    -0.385 OA
ATOM     14  C   LIG    1        4.088  -2.156  -6.500  0.00  0.00    +0.193 C 
ENDBRANCH  12  13
ENDBRANCH  11  12
ENDBRANCH   7  11
ENDBRANCH   1   4
BRANCH   1  15
ATOM     15  C   LIG    1       -0.238   1.488  -0.001  0.00  0.00    +0.143 C 
BRANCH  15  21
ATOM     16  C   LIG    1        0.620   3.413   1.386  0.00  0.00    +0.006 A 
ATOM     17  C   LIG    1        0.976   3.992   2.601  0.00  0.00    +0.009 A 
ATOM     18  C   LIG    1        0.876   3.267   3.795  0.00  0.00    -0.018 A 
ATOM     19  C   LIG    1        0.418   1.945   3.743  0.00  0.00    +0.009 A 
ATOM     20  C   LIG    1        0.064   1.362   2.530  0.00  0.00    +0.006 A 
ATOM     21  C   LIG    1        0.162   2.095   1.344  0.00  0.00    -0.030 A 
BRANCH  18  22
ATOM     22  C   LIG    1        1.243   3.891   5.099  0.00  0.00    -0.018 A 
ATOM     23  C   LIG    1        1.949   3.163   6.066  0.00  0.00    +0.009 A 
ATOM     24  C   LIG    1        2.283   3.740   7.288  0.00  0.00    +0.013 A 
ATOM     25  C   LIG    1        1.915   5.060   7.566  0.00  0.00    +0.055 A 
ATOM     26  C   LIG    1        1.215   5.793   6.605  0.00  0.00    +0.013 A 
ATOM     27  C   LIG    1        0.883   5.213   5.384  0.00  0.00    +0.009 A 
BRANCH  25  28
ATOM     28  C   LIG    1        2.264   5.716   8.901  0.00  0.00    +0.417 C 
ATOM     29  F   LIG    1        1.144   6.080   9.526  0.00  0.00    -0.166 F 
ATOM     30  F   LIG    1        3.009   6.801   8.687  0.00  0.00    -0.166 F 
ATOM     31  F   LIG    1        2.943   4.900   9.710  0.00  0.00    -0.166 F 
ENDBRANCH  25  28
ENDBRANCH  18  22
ENDBRANCH  15  21
ENDBRANCH   1  15
BRANCH   2  32
ATOM     32  C   LIG    1       -2.047  -0.759   0.254  0.00  0.00    +0.218 C 
BRANCH  32  33
ATOM     33  N   LIG    1       -2.799  -2.036   0.367  0.00  0.00    -0.326 N 
ATOM     34  C   LIG    1       -3.173  -2.567   1.619  0.00  0.00    +0.081 A 
ATOM     35  C   LIG    1       -3.584  -3.842   1.776  0.00  0.00    +0.084 A 
ATOM     36  C   LIG    1       -3.758  -4.779   0.677  0.00  0.00    +0.190 A 
ATOM     37  O   LIG    1       -4.120  -5.946   0.825  0.00  0.00    -0.287 OA
ATOM     38  C   LIG    1       -3.473  -4.167  -0.666  0.00  0.00    +0.045 A 
ATOM     39  C   LIG    1       -3.662  -4.953  -1.815  0.00  0.00    +0.014 A 
ATOM     40  C   LIG    1       -3.405  -4.446  -3.084  0.00  0.00    +0.001 A 
ATOM     41  C   LIG    1       -2.949  -3.142  -3.228  0.00  0.00    +0.002 A 
ATOM     42  C   LIG    1       -2.751  -2.345  -2.105  0.00  0.00    +0.026 A 
ATOM     43  C   LIG    1       -3.009  -2.832  -0.808  0.00  0.00    +0.054 A 
BRANCH  34  44
ATOM     44  S   LIG    1       -3.068  -1.516   3.069  0.00  0.00    -0.103 S 
BRANCH  44  45
ATOM     45  C   LIG    1       -4.426  -0.328   2.813  0.00  0.00    +0.114 C 
BRANCH  45  46
ATOM     46  C   LIG    1       -5.790  -1.003   2.881  0.00  0.00    +0.001 A 
ATOM     47  C   LIG    1       -6.424  -1.475   1.722  0.00  0.00    +0.162 A 
ATOM     48  F   LIG    1       -5.843  -1.322   0.509  0.00  0.00    -0.202 F 
ATOM     49  C   LIG    1       -7.668  -2.103   1.810  0.00  0.00    +0.159 A 
ATOM     50  F   LIG    1       -8.278  -2.561   0.693  0.00  0.00    -0.202 F 
ATOM     51  C   LIG    1       -8.288  -2.257   3.050  0.00  0.00    +0.041 A 
ATOM     52  C   LIG    1       -7.666  -1.784   4.205  0.00  0.00    +0.003 A 
ATOM     53  C   LIG    1       -6.422  -1.158   4.120  0.00  0.00    +0.007 A 
ENDBRANCH  45  46
ENDBRANCH  44  45
ENDBRANCH  34  44
ENDBRANCH  32  33
ENDBRANCH   2  32
TORSDOF 13
