REMARK  Name = DB05087
REMARK                            x       y       z     vdW  Elec       q    Type
REMARK                         _______ _______ _______ _____ _____    ______ ____
ROOT
ATOM      1  C   LIG    1       -5.715  -3.115   6.189  0.00  0.00    +0.064 C 
ATOM      2  C   LIG    1       -6.146  -4.250   7.135  0.00  0.00    +0.041 C 
ATOM      3  C   LIG    1       -4.385  -2.440   6.649  0.00  0.00    +0.035 C 
ATOM      4  C   LIG    1       -3.628  -1.643   5.568  0.00  0.00    +0.010 C 
ATOM      5  C   LIG    1       -3.405  -2.428   4.246  0.00  0.00    -0.026 C 
ATOM      6  C   LIG    1       -2.613  -3.747   4.509  0.00  0.00    +0.012 C 
ATOM      7  C   LIG    1       -4.841  -2.713   3.687  0.00  0.00    -0.002 C 
ATOM      8  C   LIG    1       -4.803  -3.370   2.285  0.00  0.00    +0.004 C 
ATOM      9  C   LIG    1       -4.052  -2.488   1.277  0.00  0.00    +0.004 C 
ATOM     10  C   LIG    1       -2.617  -2.170   1.759  0.00  0.00    -0.004 C 
ATOM     11  C   LIG    1       -1.877  -1.229   0.769  0.00  0.00    -0.001 C 
ATOM     12  C   LIG    1       -1.771  -1.613  -0.714  0.00  0.00    +0.005 C 
ATOM     13  C   LIG    1       -0.589  -0.777  -1.243  0.00  0.00    +0.012 C 
ATOM     14  C   LIG    1       -0.013  -0.036  -0.006  0.00  0.00    +0.061 C 
ATOM     15  C   LIG    1       -0.427  -0.916   1.213  0.00  0.00    -0.019 C 
ATOM     16  C   LIG    1        0.471  -2.191   1.360  0.00  0.00    +0.012 C 
ATOM     17  C   LIG    1       -0.534  -0.154   2.559  0.00  0.00    +0.008 C 
ATOM     18  C   LIG    1       -1.259  -0.993   3.641  0.00  0.00    +0.005 C 
ATOM     19  C   LIG    1       -2.663  -1.515   3.187  0.00  0.00    -0.001 C 
ATOM     20  C   LIG    1       -5.745  -3.504   4.675  0.00  0.00    +0.038 C 
ENDROOT
BRANCH  14  21
ATOM     21  C   LIG    1        1.502   0.255  -0.106  0.00  0.00    +0.134 C 
ATOM     22  C   LIG    1        2.014   1.512   0.591  0.00  0.00    +0.086 C 
ATOM     23  O   LIG    1        2.272  -0.456  -0.753  0.00  0.00    -0.297 OA
ENDBRANCH  14  21
BRANCH   1  24
ATOM     24  O   LIG    1       -6.591  -2.000   6.196  0.00  0.00    -0.389 OA
ATOM     25  H   LIG    1       -6.492  -1.541   7.034  0.00  0.00    +0.210 HD
ENDBRANCH   1  24
TORSDOF 2
