REMARK  Name = DB05039
REMARK                            x       y       z     vdW  Elec       q    Type
REMARK                         _______ _______ _______ _____ _____    ______ ____
ROOT
ATOM      1  C   LIG    1       -2.039   1.362   0.143  0.00  0.00    +0.159 C 
ENDROOT
BRANCH   1   2
ATOM      2  C   LIG    1       -2.556   0.606   1.380  0.00  0.00    -0.009 A 
ATOM      3  C   LIG    1       -2.621   1.277   2.611  0.00  0.00    +0.010 A 
ATOM      4  C   LIG    1       -3.084   0.637   3.759  0.00  0.00    +0.048 A 
ATOM      5  C   LIG    1       -3.490  -0.694   3.707  0.00  0.00    +0.141 A 
ATOM      6  C   LIG    1       -3.423  -1.390   2.494  0.00  0.00    +0.091 A 
ATOM      7  N   LIG    1       -3.824  -2.744   2.419  0.00  0.00    -0.319 N 
ATOM      8  H   LIG    1       -4.163  -3.187   3.260  0.00  0.00    +0.169 HD
ATOM      9  C   LIG    1       -3.813  -3.541   1.322  0.00  0.00    +0.249 A 
ATOM     10  C   LIG    1       -3.315  -2.876   0.128  0.00  0.00    +0.071 A 
ATOM     11  C   LIG    1       -2.916  -1.585   0.106  0.00  0.00    +0.016 A 
ATOM     12  O   LIG    1       -4.193  -4.708   1.350  0.00  0.00    -0.268 OA
ATOM     13  C   LIG    1       -2.955  -0.746   1.329  0.00  0.00    +0.008 A 
BRANCH   5  14
ATOM     14  O   LIG    1       -3.946  -1.296   4.854  0.00  0.00    -0.505 OA
ATOM     15  H   LIG    1       -3.957  -0.704   5.610  0.00  0.00    +0.292 HD
ENDBRANCH   5  14
ENDBRANCH   1   2
BRANCH   1  16
ATOM     16  O   LIG    1       -2.486   2.705   0.094  0.00  0.00    -0.386 OA
ATOM     17  H   LIG    1       -2.025   3.155  -0.618  0.00  0.00    +0.210 HD
ENDBRANCH   1  16
BRANCH   1  18
ATOM     18  C   LIG    1       -0.497   1.378   0.037  0.00  0.00    +0.117 C 
BRANCH  18  19
ATOM     19  N   LIG    1        0.041   0.032  -0.134  0.00  0.00    -0.310 NA
ATOM     20  H   LIG    1       -0.344  -0.381  -0.971  0.00  0.00    +0.122 HD
BRANCH  19  21
ATOM     21  C   LIG    1        1.496   0.018  -0.222  0.00  0.00    +0.062 C 
ATOM     22  C   LIG    1        2.122  -1.377  -0.164  0.00  0.00    +0.054 C 
ATOM     23  C   LIG    1        3.486  -1.157  -0.783  0.00  0.00    -0.042 A 
ATOM     24  C   LIG    1        4.595  -2.000  -0.816  0.00  0.00    +0.007 A 
ATOM     25  C   LIG    1        5.732  -1.651  -1.554  0.00  0.00    -0.044 A 
ATOM     26  C   LIG    1        5.734  -0.454  -2.301  0.00  0.00    -0.044 A 
ATOM     27  C   LIG    1        4.598   0.365  -2.294  0.00  0.00    +0.007 A 
ATOM     28  C   LIG    1        3.488   0.027  -1.523  0.00  0.00    -0.042 A 
ATOM     29  C   LIG    1        2.126   0.685  -1.450  0.00  0.00    +0.054 C 
BRANCH  25  30
ATOM     30  C   LIG    1        6.931  -2.596  -1.521  0.00  0.00    +0.032 C 
ATOM     31  C   LIG    1        7.927  -2.257  -0.402  0.00  0.00    +0.009 C 
ENDBRANCH  25  30
BRANCH  26  32
ATOM     32  C   LIG    1        6.928  -0.020  -3.150  0.00  0.00    +0.032 C 
ATOM     33  C   LIG    1        6.871  -0.569  -4.584  0.00  0.00    +0.009 C 
ENDBRANCH  26  32
ENDBRANCH  19  21
ENDBRANCH  18  19
ENDBRANCH   1  18
TORSDOF 8
