REMARK  Name = DB05075
REMARK                            x       y       z     vdW  Elec       q    Type
REMARK                         _______ _______ _______ _____ _____    ______ ____
ROOT
ATOM      1  C   LIG    1       -1.882  -3.459   1.144  0.00  0.00    +0.046 C 
ATOM      2  C   LIG    1       -2.776  -2.309   0.700  0.00  0.00    -0.022 A 
ATOM      3  C   LIG    1       -2.202  -1.060   0.327  0.00  0.00    +0.097 A 
ATOM      4  N   LIG    1       -0.853  -0.857   0.357  0.00  0.00    -0.211 NA
ATOM      5  C   LIG    1       -0.408   0.367  -0.014  0.00  0.00    +0.240 A 
ATOM      6  N   LIG    1       -1.212   1.393  -0.399  0.00  0.00    -0.112 NA
ATOM      7  N   LIG    1       -2.541   1.207  -0.440  0.00  0.00    -0.144 NA
ATOM      8  C   LIG    1       -3.064  -0.001  -0.084  0.00  0.00    +0.112 A 
ATOM      9  C   LIG    1       -4.462  -0.205  -0.119  0.00  0.00    +0.040 A 
ATOM     10  C   LIG    1       -5.012  -1.434   0.259  0.00  0.00    -0.014 A 
ATOM     11  C   LIG    1       -4.162  -2.469   0.657  0.00  0.00    +0.014 A 
ENDROOT
BRANCH  10  12
ATOM     12  C   LIG    1       -6.486  -1.637   0.216  0.00  0.00    +0.004 A 
ATOM     13  C   LIG    1       -7.231  -2.002   1.353  0.00  0.00    +0.049 A 
ATOM     14 CL   LIG    1       -6.489  -2.202   2.906  0.00  0.00    -0.083 Cl
ATOM     15  C   LIG    1       -8.612  -2.186   1.261  0.00  0.00    +0.024 A 
ATOM     16  C   LIG    1       -9.267  -2.012   0.044  0.00  0.00    +0.048 A 
ATOM     17  C   LIG    1       -8.542  -1.656  -1.095  0.00  0.00    +0.133 A 
ATOM     18  C   LIG    1       -7.163  -1.457  -0.998  0.00  0.00    +0.056 A 
BRANCH  17  19
ATOM     19  O   LIG    1       -9.181  -1.465  -2.299  0.00  0.00    -0.422 OA
BRANCH  19  20
ATOM     20  C   LIG    1       -9.438  -2.538  -3.112  0.00  0.00    +0.344 C 
ATOM     21  O   LIG    1       -9.134  -3.704  -2.834  0.00  0.00    -0.245 OA
BRANCH  20  22
ATOM     22  C   LIG    1      -10.131  -2.157  -4.389  0.00  0.00    +0.059 A 
ATOM     23  C   LIG    1      -10.457  -3.158  -5.316  0.00  0.00    +0.015 A 
ATOM     24  C   LIG    1      -11.096  -2.836  -6.510  0.00  0.00    +0.001 A 
ATOM     25  C   LIG    1      -11.415  -1.510  -6.788  0.00  0.00    +0.000 A 
ATOM     26  C   LIG    1      -11.100  -0.503  -5.880  0.00  0.00    +0.001 A 
ATOM     27  C   LIG    1      -10.461  -0.823  -4.685  0.00  0.00    +0.015 A 
ENDBRANCH  20  22
ENDBRANCH  19  20
ENDBRANCH  17  19
ENDBRANCH  10  12
BRANCH   5  28
ATOM     28  N   LIG    1        0.983   0.543   0.054  0.00  0.00    -0.282 N 
ATOM     29  H   LIG    1        1.468  -0.266   0.415  0.00  0.00    +0.155 HD
BRANCH  28  30
ATOM     30  C   LIG    1        1.835   1.611  -0.281  0.00  0.00    +0.034 A 
ATOM     31  C   LIG    1        3.100   1.632   0.310  0.00  0.00    +0.027 A 
ATOM     32  C   LIG    1        3.997   2.657   0.022  0.00  0.00    +0.047 A 
ATOM     33  C   LIG    1        3.640   3.679  -0.871  0.00  0.00    +0.121 A 
ATOM     34  C   LIG    1        2.383   3.644  -1.475  0.00  0.00    +0.047 A 
ATOM     35  C   LIG    1        1.486   2.618  -1.189  0.00  0.00    +0.027 A 
BRANCH  33  36
ATOM     36  O   LIG    1        4.458   4.739  -1.212  0.00  0.00    -0.494 OA
BRANCH  36  37
ATOM     37  C   LIG    1        5.743   4.857  -0.603  0.00  0.00    +0.210 C 
BRANCH  37  38
ATOM     38  C   LIG    1        6.426   6.159  -1.060  0.00  0.00    -0.037 C 
BRANCH  38  39
ATOM     39  N   LIG    1        5.504   7.379  -0.841  0.00  0.00    +0.382 N 
ATOM     40  H   LIG    1        4.634   7.198  -1.323  0.00  0.00    -0.082 HD
ATOM     41  C   LIG    1        6.079   8.689  -1.400  0.00  0.00    -0.079 C 
ATOM     42  C   LIG    1        5.239   9.756  -0.708  0.00  0.00    -0.020 C 
ATOM     43  C   LIG    1        4.986   9.216   0.699  0.00  0.00    -0.020 C 
ATOM     44  C   LIG    1        5.192   7.696   0.637  0.00  0.00    -0.079 C 
ENDBRANCH  38  39
ENDBRANCH  37  38
ENDBRANCH  36  37
ENDBRANCH  33  36
ENDBRANCH  28  30
ENDBRANCH   5  28
TORSDOF 10
