REMARK  Name = DB05152
REMARK                            x       y       z     vdW  Elec       q    Type
REMARK                         _______ _______ _______ _____ _____    ______ ____
ROOT
ATOM      1  C   LIG    1        1.473   0.045  -0.020  0.00  0.00    +0.134 C 
ATOM      2  S   LIG    1        2.220   0.829  -1.470  0.00  0.00    -0.123 S 
ATOM      3  C   LIG    1        3.077  -0.662  -2.045  0.00  0.00    +0.078 C 
ATOM      4  C   LIG    1        2.546  -1.115  -3.424  0.00  0.00    +0.018 C 
ATOM      5  C   LIG    1        2.805  -0.070  -4.535  0.00  0.00    -0.076 C 
ATOM      6  N   LIG    1        4.311   0.300  -4.600  0.00  0.00    +0.378 N 
ATOM      7  H   LIG    1        4.383   1.127  -5.178  0.00  0.00    -0.082 HD
ATOM      8  C   LIG    1        5.128  -0.786  -5.332  0.00  0.00    -0.096 C 
ATOM      9  C   LIG    1        4.943   0.656  -3.228  0.00  0.00    -0.076 C 
ATOM     10  C   LIG    1        4.598  -0.420  -2.172  0.00  0.00    +0.018 C 
ATOM     11  N   LIG    1        2.787  -1.652  -1.021  0.00  0.00    -0.300 N 
ATOM     12  H   LIG    1        3.197  -2.571  -1.109  0.00  0.00    +0.150 HD
ATOM     13  C   LIG    1        1.989  -1.400   0.025  0.00  0.00    +0.227 C 
ATOM     14  O   LIG    1        1.711  -2.206   0.911  0.00  0.00    -0.275 OA
ENDROOT
BRANCH   1  16
ATOM     15  C   LIG    1       -0.656   1.509   0.086  0.00  0.00    +0.005 C 
ATOM     16  C   LIG    1       -0.074   0.091  -0.036  0.00  0.00    +0.020 C 
ENDBRANCH   1  16
TORSDOF 1
