REMARK  Name = DB05871
REMARK                            x       y       z     vdW  Elec       q    Type
REMARK                         _______ _______ _______ _____ _____    ______ ____
ROOT
ATOM      1 CL   LIG    1        0.958  -2.445   0.015  0.00  0.00    -0.080 Cl
ATOM      2  C   LIG    1        1.987  -1.057  -0.033  0.00  0.00    +0.083 A 
ATOM      3  C   LIG    1        3.367  -1.239   0.046  0.00  0.00    +0.025 A 
ATOM      4  C   LIG    1        4.225  -0.142   0.010  0.00  0.00    +0.025 A 
ATOM      5  C   LIG    1        3.706   1.156  -0.091  0.00  0.00    +0.035 A 
ATOM      6  C   LIG    1        2.322   1.329  -0.190  0.00  0.00    +0.070 A 
ATOM      7  C   LIG    1        1.446   0.230  -0.157  0.00  0.00    +0.141 A 
ENDROOT
BRANCH   5   8
ATOM      8  N   LIG    1        4.487   2.327  -0.158  0.00  0.00    -0.308 N 
ATOM      9  H   LIG    1        3.990   3.088  -0.596  0.00  0.00    +0.153 HD
BRANCH   8  10
ATOM     10  C   LIG    1        5.720   2.678   0.330  0.00  0.00    +0.087 C 
ATOM     11  S   LIG    1        6.684   1.755   1.349  0.00  0.00    -0.035 S 
BRANCH  10  12
ATOM     12  C   LIG    1        6.114   4.019  -0.093  0.00  0.00    +0.044 A 
ATOM     13  C   LIG    1        7.301   4.719   0.227  0.00  0.00    +0.051 A 
ATOM     14  C   LIG    1        7.275   5.957  -0.377  0.00  0.00    +0.196 A 
ATOM     15  O   LIG    1        6.127   6.090  -1.071  0.00  0.00    -0.467 OA
ATOM     16  C   LIG    1        5.422   4.939  -0.916  0.00  0.00    +0.111 A 
ATOM     17  C   LIG    1        4.090   4.924  -1.641  0.00  0.00    +0.087 C 
ENDBRANCH  10  12
ENDBRANCH   8  10
ENDBRANCH   5   8
BRANCH   7  18
ATOM     18  O   LIG    1        0.069   0.337  -0.244  0.00  0.00    -0.486 OA
BRANCH  18  19
ATOM     19  C   LIG    1       -0.532   1.621  -0.381  0.00  0.00    +0.256 C 
BRANCH  19  20
ATOM     20  C   LIG    1       -2.035   1.465  -0.532  0.00  0.00    +0.012 C 
ATOM     21  C   LIG    1       -3.009   2.207   0.037  0.00  0.00    -0.076 C 
ATOM     22  C   LIG    1       -2.773   3.409   0.942  0.00  0.00    +0.038 C 
ATOM     23  C   LIG    1       -4.477   1.896  -0.204  0.00  0.00    +0.038 C 
ENDBRANCH  19  20
ENDBRANCH  18  19
ENDBRANCH   7  18
TORSDOF 6
