REMARK  Name = DB05479
REMARK                            x       y       z     vdW  Elec       q    Type
REMARK                         _______ _______ _______ _____ _____    ______ ____
ROOT
ATOM      1  C   UNK A  1        1.546   3.127   0.272  0.00  0.00    +0.163 C 
ENDROOT
BRANCH   1   3
ATOM      2  C   UNK A  1       -0.738   2.833  -0.715  0.00  0.00    +0.234 C 
ATOM      3  N   UNK A  1        0.203   2.547   0.204  0.00  0.00    -0.302 N 
ATOM      4  H   UNK A  1        0.016   1.822   0.881  0.00  0.00    +0.150 HD
ATOM      5  O   UNK A  1       -0.602   3.689  -1.589  0.00  0.00    -0.274 OA
BRANCH   2   6
ATOM      6  C   UNK A  1       -2.044   2.013  -0.671  0.00  0.00    +0.161 C 
BRANCH   6   8
ATOM      7  C   UNK A  1       -2.351  -0.082   0.642  0.00  0.00    +0.234 C 
ATOM      8  N   UNK A  1       -2.169   1.246   0.572  0.00  0.00    -0.302 N 
ATOM      9  H   UNK A  1       -2.111   1.780   1.428  0.00  0.00    +0.150 HD
ATOM     10  O   UNK A  1       -2.430  -0.828  -0.334  0.00  0.00    -0.274 OA
BRANCH   7  11
ATOM     11  C   UNK A  1       -2.464  -0.671   2.060  0.00  0.00    +0.159 C 
BRANCH  11  13
ATOM     12  C   UNK A  1       -4.904  -1.117   2.180  0.00  0.00    +0.234 C 
ATOM     13  N   UNK A  1       -3.631  -1.546   2.168  0.00  0.00    -0.302 N 
ATOM     14  H   UNK A  1       -3.436  -2.536   2.211  0.00  0.00    +0.150 HD
ATOM     15  O   UNK A  1       -5.239   0.067   2.133  0.00  0.00    -0.274 OA
BRANCH  12  16
ATOM     16  C   UNK A  1       -5.989  -2.210   2.225  0.00  0.00    +0.160 C 
BRANCH  16  17
ATOM     17  N   UNK A  1       -7.077  -1.853   3.138  0.00  0.00    -0.302 N 
ATOM     18  H   UNK A  1       -7.961  -1.634   2.702  0.00  0.00    +0.150 HD
ATOM     19  C   UNK A  1       -6.962  -1.746   4.473  0.00  0.00    +0.236 C 
ATOM     20  O   UNK A  1       -5.932  -1.990   5.103  0.00  0.00    -0.274 OA
BRANCH  19  21
ATOM     21  C   UNK A  1       -8.214  -1.239   5.210  0.00  0.00    +0.184 C 
BRANCH  21  22
ATOM     22  N   UNK A  1       -8.301  -1.750   6.577  0.00  0.00    -0.301 N 
ATOM     23  H   UNK A  1       -8.100  -1.081   7.306  0.00  0.00    +0.150 HD
ATOM     24  C   UNK A  1       -8.604  -3.013   6.924  0.00  0.00    +0.234 C 
ATOM     25  O   UNK A  1       -8.859  -3.908   6.117  0.00  0.00    -0.274 OA
BRANCH  24  26
ATOM     26  C   UNK A  1       -8.632  -3.301   8.437  0.00  0.00    +0.163 C 
BRANCH  26  27
ATOM     27  N   UNK A  1       -9.430  -2.289   9.133  0.00  0.00    -0.302 N 
ATOM     28  H   UNK A  1      -10.431  -2.405   9.072  0.00  0.00    +0.150 HD
ATOM     29  C   UNK A  1       -8.929  -1.263   9.836  0.00  0.00    +0.236 C 
ATOM     30  O   UNK A  1       -7.727  -1.028   9.968  0.00  0.00    -0.274 OA
BRANCH  29  31
ATOM     31  C   UNK A  1       -9.973  -0.325  10.471  0.00  0.00    +0.184 C 
BRANCH  31  32
ATOM     32  N   UNK A  1       -9.510   0.263  11.730  0.00  0.00    -0.302 N 
ATOM     33  H   UNK A  1       -9.289   1.247  11.701  0.00  0.00    +0.150 HD
ATOM     34  C   UNK A  0       -9.332  -0.417  12.877  0.00  0.00    +0.211 C 
ATOM     35  C   UNK A  0       -8.807   0.378  14.068  0.00  0.00    +0.109 C 
ATOM     36  O   UNK A  0       -9.574  -1.617  13.002  0.00  0.00    -0.276 OA
ENDBRANCH  31  32
BRANCH  31  37
ATOM     37  C   UNK A  1      -10.412   0.807   9.514  0.00  0.00    +0.187 C 
BRANCH  37  38
ATOM     38  O   UNK A  1       -9.325   1.499   8.928  0.00  0.00    -0.393 OA
ATOM     39  H   UNK A  1       -8.871   1.995   9.613  0.00  0.00    +0.209 HD
ENDBRANCH  37  38
ENDBRANCH  31  37
ENDBRANCH  29  31
ENDBRANCH  26  27
BRANCH  26  40
ATOM     40  C   UNK A  1       -9.184  -4.701   8.789  0.00  0.00    +0.067 C 
BRANCH  40  41
ATOM     41  C   UNK A  1       -9.178  -5.003  10.278  0.00  0.00    -0.045 A 
ATOM     42  C   UNK A  1      -10.365  -4.894  11.033  0.00  0.00    +0.007 A 
ATOM     43  C   UNK A  1      -10.348  -5.135  12.420  0.00  0.00    +0.045 A 
ATOM     44  C   UNK A  1       -9.143  -5.489  13.059  0.00  0.00    +0.117 A 
ATOM     45  C   UNK A  1       -7.957  -5.603  12.308  0.00  0.00    +0.045 A 
ATOM     46  C   UNK A  1       -7.974  -5.361  10.921  0.00  0.00    +0.007 A 
BRANCH  44  47
ATOM     47  O   UNK A  1       -9.123  -5.718  14.403  0.00  0.00    -0.507 OA
ATOM     48  H   UNK A  1       -9.981  -5.601  14.818  0.00  0.00    +0.292 HD
ENDBRANCH  44  47
ENDBRANCH  40  41
ENDBRANCH  26  40
ENDBRANCH  24  26
ENDBRANCH  21  22
BRANCH  21  49
ATOM     49  C   UNK A  1       -8.214   0.302   5.263  0.00  0.00    +0.187 C 
BRANCH  49  50
ATOM     50  O   UNK A  1       -9.517   0.786   5.516  0.00  0.00    -0.393 OA
ATOM     51  H   UNK A  1       -9.729   0.621   6.439  0.00  0.00    +0.209 HD
ENDBRANCH  49  50
ENDBRANCH  21  49
ENDBRANCH  19  21
ENDBRANCH  16  17
BRANCH  16  52
ATOM     52  C   UNK A  1       -6.598  -2.488   0.831  0.00  0.00    +0.042 C 
BRANCH  52  53
ATOM     53  C   UNK A  1       -5.582  -2.865  -0.265  0.00  0.00    +0.071 C 
BRANCH  53  54
ATOM     54  S   UNK A  1       -6.311  -3.270  -1.876  0.00  0.00    -0.164 S 
ATOM     55  C   UNK A  1       -7.048  -4.887  -1.516  0.00  0.00    +0.084 C 
ENDBRANCH  53  54
ENDBRANCH  52  53
ENDBRANCH  16  52
ENDBRANCH  12  16
ENDBRANCH  11  13
BRANCH  11  56
ATOM     56  C   UNK A  1       -1.206  -1.464   2.471  0.00  0.00    +0.043 C 
BRANCH  56  57
ATOM     57  C   UNK A  1        0.097  -0.627   2.507  0.00  0.00    +0.123 C 
BRANCH  57  58
ATOM     58  C   UNK A  1        1.354  -1.384   2.974  0.00  0.00    +0.305 C 
ATOM     59  O   UNK A  1        2.356  -0.686   3.241  0.00  0.00    -0.251 OA
BRANCH  58  60
ATOM     60  O   UNK A  1        1.325  -2.633   3.043  0.00  0.00    -0.481 OA
ATOM     61  H   UNK A  1        1.074  -3.053   3.842  0.00  0.00    +0.295 HD
ENDBRANCH  58  60
ENDBRANCH  57  58
ENDBRANCH  56  57
ENDBRANCH  11  56
ENDBRANCH   7  11
ENDBRANCH   6   8
BRANCH   6  62
ATOM     62  C   UNK A  1       -3.293   2.908  -0.850  0.00  0.00    +0.057 C 
BRANCH  62  63
ATOM     63  C   UNK A  1       -4.608   2.172  -0.977  0.00  0.00    +0.059 C 
ATOM     64  C   UNK A  1       -5.732   2.203  -0.171  0.00  0.00    +0.096 C 
ATOM     65  N   UNK A  1       -6.605   1.231  -0.629  0.00  0.00    -0.293 NA
ATOM     66  H   UNK A  1       -7.517   1.014  -0.252  0.00  0.00    +0.124 HD
ATOM     67  C   UNK A  1       -5.991   0.607  -1.631  0.00  0.00    +0.155 C 
ATOM     68  N   UNK A  1       -4.781   1.114  -1.858  0.00  0.00    -0.290 NA
ATOM     69  H   UNK A  1       -4.114   0.786  -2.543  0.00  0.00    +0.124 HD
ENDBRANCH  62  63
ENDBRANCH   6  62
ENDBRANCH   2   6
ENDBRANCH   1   3
BRANCH   1  70
ATOM     70  C   UNK A  1        2.408   2.801  -0.963  0.00  0.00    +0.234 C 
ATOM     71  N   UNK A  1        3.239   3.771  -1.380  0.00  0.00    -0.302 N 
ATOM     72  H   UNK A  1        3.263   4.649  -0.883  0.00  0.00    +0.150 HD
ATOM     73  O   UNK A  1        2.313   1.695  -1.491  0.00  0.00    -0.274 OA
BRANCH  71  74
ATOM     74  C   UNK A  1        4.185   3.638  -2.487  0.00  0.00    +0.159 C 
BRANCH  74  75
ATOM     75  C   UNK A  1        5.425   2.845  -2.038  0.00  0.00    +0.234 C 
ATOM     76  N   UNK A  1        5.425   1.535  -2.333  0.00  0.00    -0.302 N 
ATOM     77  H   UNK A  1        4.629   1.135  -2.808  0.00  0.00    +0.150 HD
ATOM     78  O   UNK A  1        6.331   3.423  -1.436  0.00  0.00    -0.274 OA
BRANCH  76  79
ATOM     79  C   UNK A  1        6.510   0.607  -2.011  0.00  0.00    +0.163 C 
BRANCH  79  80
ATOM     80  C   UNK A  1        7.760   0.846  -2.873  0.00  0.00    +0.234 C 
ATOM     81  N   UNK A  1        8.932   0.532  -2.296  0.00  0.00    -0.305 N 
ATOM     82  H   UNK A  1        8.940   0.229  -1.333  0.00  0.00    +0.149 HD
ATOM     83  O   UNK A  1        7.638   1.234  -4.036  0.00  0.00    -0.274 OA
BRANCH  81  84
ATOM     84  C   UNK A  1       10.204   0.466  -3.018  0.00  0.00    +0.200 C 
BRANCH  84  85
ATOM     85  C   UNK A  1       10.344  -0.864  -3.784  0.00  0.00    +0.231 C 
ATOM     86  N   UNK A  1        9.546  -1.885  -3.420  0.00  0.00    -0.303 N 
ATOM     87  H   UNK A  1        8.907  -1.746  -2.651  0.00  0.00    +0.149 HD
ATOM     88  O   UNK A  1       11.154  -0.944  -4.706  0.00  0.00    -0.274 OA
BRANCH  86  89
ATOM     89  C   UNK A  1        9.431  -3.178  -4.091  0.00  0.00    +0.159 C 
BRANCH  89  90
ATOM     90  C   UNK A  1        7.934  -3.545  -4.167  0.00  0.00    +0.237 C 
ATOM     91  N   UNK A  1        7.180  -2.943  -5.120  0.00  0.00    -0.288 N 
ATOM     92  C   UNK A  1        7.643  -1.961  -6.105  0.00  0.00    +0.109 C 
ATOM     93  C   UNK A  1        6.465  -1.748  -7.049  0.00  0.00    +0.021 C 
ATOM     94  C   UNK A  1        5.263  -2.047  -6.169  0.00  0.00    +0.033 C 
ATOM     95  C   UNK A  1        5.731  -3.202  -5.269  0.00  0.00    +0.162 C 
ATOM     96  O   UNK A  1        7.476  -4.340  -3.345  0.00  0.00    -0.274 OA
BRANCH  95  97
ATOM     97  C   UNK A  1        5.370  -4.579  -5.868  0.00  0.00    +0.234 C 
ATOM     98  N   UNK A  1        6.379  -5.335  -6.330  0.00  0.00    -0.302 N 
ATOM     99  H   UNK A  1        7.323  -4.981  -6.273  0.00  0.00    +0.150 HD
ATOM    100  O   UNK A  1        4.189  -4.923  -5.887  0.00  0.00    -0.274 OA
BRANCH  98 101
ATOM    101  C   UNK A  1        6.250  -6.670  -6.915  0.00  0.00    +0.161 C 
BRANCH 101 102
ATOM    102  C   UNK A  1        7.579  -7.456  -6.762  0.00  0.00    +0.231 C 
ATOM    103  N   UNK A  1        7.493  -8.789  -6.731  0.00  0.00    -0.328 N 
ATOM    104  H   UNK A  1        6.595  -9.245  -6.807  0.00  0.00    +0.145 HD
ATOM    105  H   UNK A  1        8.328  -9.348  -6.635  0.00  0.00    +0.145 HD
ATOM    106  O   UNK A  1        8.657  -6.865  -6.671  0.00  0.00    -0.274 OA
ENDBRANCH 101 102
BRANCH 101 107
ATOM    107  C   UNK A  1        5.797  -6.595  -8.414  0.00  0.00    +0.012 C 
ATOM    108  C   UNK A  1        6.803  -5.900  -9.357  0.00  0.00    +0.009 C 
ATOM    109  C   UNK A  1        5.356  -7.949  -9.002  0.00  0.00    +0.009 C 
ENDBRANCH 101 107
ENDBRANCH  98 101
ENDBRANCH  95  97
ENDBRANCH  89  90
BRANCH  89 110
ATOM    110  C   UNK A  1       10.271  -4.249  -3.354  0.00  0.00    +0.032 C 
BRANCH 110 111
ATOM    111  C   UNK A  1       11.791  -4.046  -3.477  0.00  0.00    +0.000 C 
BRANCH 111 112
ATOM    112  C   UNK A  1       12.593  -5.197  -2.853  0.00  0.00    -0.019 C 
BRANCH 112 113
ATOM    113  C   UNK A  1       14.110  -4.989  -2.989  0.00  0.00    -0.086 C 
BRANCH 113 114
ATOM    114  N   UNK A  1       14.870  -6.097  -2.384  0.00  0.00    +0.378 N 
ATOM    115  H   UNK A  1       14.653  -6.157  -1.399  0.00  0.00    -0.090 HD
ATOM    116  H   UNK A  1       14.621  -6.965  -2.836  0.00  0.00    -0.090 HD
ATOM    117  H   UNK A  1       15.859  -5.929  -2.500  0.00  0.00    -0.090 HD
ENDBRANCH 113 114
ENDBRANCH 112 113
ENDBRANCH 111 112
ENDBRANCH 110 111
ENDBRANCH  89 110
ENDBRANCH  86  89
ENDBRANCH  84  85
ENDBRANCH  81  84
ENDBRANCH  79  80
BRANCH  79 118
ATOM    118  C   UNK A  1        6.019  -0.842  -2.203  0.00  0.00    +0.069 C 
BRANCH 118 119
ATOM    119  C   UNK A  1        4.780  -1.232  -1.454  0.00  0.00    -0.020 A 
ATOM    120  C   UNK A  1        4.732  -1.567  -0.145  0.00  0.00    +0.087 A 
ATOM    121  N   UNK A  1        3.426  -1.814   0.221  0.00  0.00    -0.360 N 
ATOM    122  H   UNK A  1        3.163  -2.070   1.164  0.00  0.00    +0.165 HD
ATOM    123  C   UNK A  1        2.556  -1.635  -0.833  0.00  0.00    +0.047 A 
ATOM    124  C   UNK A  1        1.160  -1.745  -0.960  0.00  0.00    +0.026 A 
ATOM    125  C   UNK A  1        0.560  -1.472  -2.203  0.00  0.00    +0.002 A 
ATOM    126  C   UNK A  1        1.361  -1.102  -3.301  0.00  0.00    +0.001 A 
ATOM    127  C   UNK A  1        2.760  -1.001  -3.163  0.00  0.00    +0.010 A 
ATOM    128  C   UNK A  1        3.397  -1.261  -1.925  0.00  0.00    +0.003 A 
ENDBRANCH 118 119
ENDBRANCH  79 118
ENDBRANCH  76  79
ENDBRANCH  74  75
BRANCH  74 129
ATOM    129  C   UNK A  1        4.523   5.050  -3.019  0.00  0.00    +0.033 C 
BRANCH 129 130
ATOM    130  C   UNK A  1        5.488   5.071  -4.219  0.00  0.00    +0.017 C 
BRANCH 130 131
ATOM    131  C   UNK A  1        5.768   6.497  -4.720  0.00  0.00    +0.084 C 
BRANCH 131 132
ATOM    132  N   UNK A  1        6.545   6.502  -5.972  0.00  0.00    -0.283 NA
ATOM    133  H   UNK A  1        7.548   6.495  -5.856  0.00  0.00    +0.125 HD
BRANCH 132 134
ATOM    134  C   UNK A  1        6.064   6.461  -7.231  0.00  0.00    +0.167 C 
BRANCH 134 135
ATOM    135  N   UNK A  1        6.930   6.460  -8.252  0.00  0.00    -0.297 NA
ATOM    136  H   UNK A  1        6.595   6.431  -9.204  0.00  0.00    +0.121 HD
ATOM    137  H   UNK A  1        7.924   6.487  -8.075  0.00  0.00    +0.121 HD
ENDBRANCH 134 135
BRANCH 134 138
ATOM    138  N   UNK A  1        4.748   6.421  -7.498  0.00  0.00    -0.297 NA
ATOM    139  H   UNK A  1        4.079   6.419  -6.740  0.00  0.00    +0.121 HD
ATOM    140  H   UNK A  1        4.420   6.390  -8.452  0.00  0.00    +0.121 HD
ENDBRANCH 134 138
ENDBRANCH 132 134
ENDBRANCH 131 132
ENDBRANCH 130 131
ENDBRANCH 129 130
ENDBRANCH  74 129
ENDBRANCH  71  74
ENDBRANCH   1  70
BRANCH   1 141
ATOM    141  C   UNK A  1        2.191   2.690   1.608  0.00  0.00    +0.067 C 
BRANCH 141 142
ATOM    142  C   UNK A  1        3.690   2.893   1.764  0.00  0.00    -0.045 A 
ATOM    143  C   UNK A  1        4.217   4.182   1.985  0.00  0.00    +0.004 A 
ATOM    144  C   UNK A  1        5.592   4.367   2.050  0.00  0.00    +0.000 A 
ATOM    145  C   UNK A  1        6.453   3.289   1.880  0.00  0.00    +0.000 A 
ATOM    146  C   UNK A  1        5.948   2.019   1.630  0.00  0.00    +0.000 A 
ATOM    147  C   UNK A  1        4.577   1.815   1.554  0.00  0.00    +0.004 A 
ENDBRANCH 141 142
ENDBRANCH   1 141
TORSDOF 58
