REMARK  Name = DB05668
REMARK                            x       y       z     vdW  Elec       q    Type
REMARK                         _______ _______ _______ _____ _____    ______ ____
ROOT
ATOM      1  P   LIG    1        1.983   0.223  -0.102  0.00  0.00    +0.341 P 
ATOM      2  O   LIG    1        2.614   0.545   1.235  0.00  0.00    -0.255 OA
ENDROOT
BRANCH   1   3
ATOM      3  N   LIG    1        0.212   0.181   0.120  0.00  0.00    -0.232 NA
ATOM      4  H   LIG    1       -0.193  -0.526   0.734  0.00  0.00    +0.133 HD
BRANCH   3   5
ATOM      5  C   LIG    1       -0.530   1.436   0.094  0.00  0.00    +0.107 C 
BRANCH   5   6
ATOM      6  C   LIG    1       -2.047   1.231   0.028  0.00  0.00    +0.124 C 
ATOM      7 CL   LIG    1       -2.884   2.805   0.011  0.00  0.00    -0.124 Cl
ENDBRANCH   5   6
ENDBRANCH   3   5
ENDBRANCH   1   3
BRANCH   1   8
ATOM      8  O   LIG    1        2.291   1.047  -1.332  0.00  0.00    -0.321 OA
ATOM      9  H   LIG    1        2.114   1.983  -1.147  0.00  0.00    +0.220 HD
ENDBRANCH   1   8
BRANCH   1  10
ATOM     10  N   LIG    1        2.321  -1.487  -0.485  0.00  0.00    -0.232 NA
ATOM     11  H   LIG    1        1.742  -1.962  -1.177  0.00  0.00    +0.133 HD
BRANCH  10  12
ATOM     12  C   LIG    1        3.703  -1.952  -0.452  0.00  0.00    +0.107 C 
BRANCH  12  13
ATOM     13  C   LIG    1        3.825  -3.472  -0.603  0.00  0.00    +0.124 C 
ATOM     14 CL   LIG    1        5.538  -3.962  -0.559  0.00  0.00    -0.124 Cl
ENDBRANCH  12  13
ENDBRANCH  10  12
ENDBRANCH   1  10
TORSDOF 7
