REMARK  Name = DB05964
REMARK                            x       y       z     vdW  Elec       q    Type
REMARK                         _______ _______ _______ _____ _____    ______ ____
ROOT
ATOM      1  C   LIG    1       -0.709   1.363   0.042  0.00  0.00    -0.071 C 
ATOM      2  N   LIG    1       -1.636   1.310   1.265  0.00  0.00    +0.380 N 
ATOM      3  H   LIG    1       -2.431   1.927   1.178  0.00  0.00    -0.086 HD
ATOM      4  H   LIG    1       -1.119   1.593   2.086  0.00  0.00    -0.086 HD
ATOM      5  C   LIG    1       -2.040  -0.161   1.405  0.00  0.00    -0.078 C 
ATOM      6  C   LIG    1       -0.812  -0.918   0.891  0.00  0.00    -0.019 C 
ATOM      7  C   LIG    1       -0.791  -1.136  -0.603  0.00  0.00    +0.012 C 
ATOM      8  C   LIG    1        0.008   0.001   0.018  0.00  0.00    -0.018 C 
ENDROOT
BRANCH   8   9
ATOM      9  C   LIG    1        1.528  -0.010   0.009  0.00  0.00    -0.041 A 
ATOM     10  C   LIG    1        2.219  -0.021  -1.204  0.00  0.00    +0.005 A 
ATOM     11  C   LIG    1        3.613  -0.019  -1.217  0.00  0.00    +0.022 A 
ATOM     12  C   LIG    1        4.328  -0.004  -0.018  0.00  0.00    +0.059 A 
ATOM     13 CL   LIG    1        6.057  -0.001  -0.076  0.00  0.00    -0.082 Cl
ATOM     14  C   LIG    1        3.639   0.009   1.202  0.00  0.00    +0.060 A 
ATOM     15 CL   LIG    1        4.483   0.030   2.712  0.00  0.00    -0.082 Cl
ATOM     16  C   LIG    1        2.243   0.008   1.210  0.00  0.00    +0.025 A 
ENDBRANCH   8   9
TORSDOF 1
