REMARK  Name = DB05645
REMARK                            x       y       z     vdW  Elec       q    Type
REMARK                         _______ _______ _______ _____ _____    ______ ____
ROOT
ATOM      1  CA  VAL A  5       -1.726   2.752  -0.406  0.00  0.00    +0.161 C 
ENDROOT
BRANCH   1   4
ATOM      2  N   GLN A  6       -3.740   1.667  -1.255  0.00  0.00    -0.302 N 
ATOM      3  H   GLN A  6       -4.064   1.742  -0.302  0.00  0.00    +0.150 HD
ATOM      4  C   VAL A  5       -2.520   2.129  -1.570  0.00  0.00    +0.234 C 
ATOM      5  O   VAL A  5       -2.027   2.100  -2.698  0.00  0.00    -0.274 OA
BRANCH   2   6
ATOM      6  CA  GLN A  6       -4.696   1.096  -2.201  0.00  0.00    +0.160 C 
BRANCH   6   8
ATOM      7  O   GLN A  6       -6.280   2.857  -1.940  0.00  0.00    -0.274 OA
ATOM      8  C   GLN A  6       -5.595   2.226  -2.747  0.00  0.00    +0.237 C 
ATOM      9  N   PRO A  7       -5.596   2.473  -4.082  0.00  0.00    -0.288 N 
ATOM     10  CD  PRO A  7       -4.684   1.908  -5.076  0.00  0.00    +0.109 C 
ATOM     11  CG  PRO A  7       -4.718   2.895  -6.233  0.00  0.00    +0.021 C 
ATOM     12  CB  PRO A  7       -6.149   3.401  -6.209  0.00  0.00    +0.033 C 
ATOM     13  CA  PRO A  7       -6.538   3.422  -4.718  0.00  0.00    +0.162 C 
BRANCH  13  14
ATOM     14  C   PRO A  7       -8.035   3.096  -4.535  0.00  0.00    +0.234 C 
ATOM     15  N   GLY A  8       -8.370   1.796  -4.436  0.00  0.00    -0.303 N 
ATOM     16  H   GLY A  8       -7.640   1.102  -4.505  0.00  0.00    +0.149 HD
ATOM     17  O   PRO A  7       -8.840   4.026  -4.483  0.00  0.00    -0.274 OA
BRANCH  15  18
ATOM     18  CA  GLY A  8       -9.730   1.288  -4.206  0.00  0.00    +0.224 C 
BRANCH  18  19
ATOM     19  C   GLY A  8      -10.095   1.093  -2.711  0.00  0.00    +0.322 C 
ATOM     20  O   GLY A  8      -11.306   0.888  -2.469  0.00  0.00    -0.249 OA
BRANCH  19  21
ATOM     21  OXT GLY A  8       -9.203   1.112  -1.830  0.00  0.00    -0.480 OA
ATOM     22  HXT GLY A  8       -8.311   1.270  -2.071  0.00  0.00    +0.295 HD
ENDBRANCH  19  21
ENDBRANCH  18  19
ENDBRANCH  15  18
ENDBRANCH  13  14
ENDBRANCH   6   8
BRANCH   6  23
ATOM     23  CB  GLN A  6       -5.548   0.052  -1.447  0.00  0.00    +0.041 C 
BRANCH  23  24
ATOM     24  CG  GLN A  6       -4.736  -1.178  -0.993  0.00  0.00    +0.098 C 
BRANCH  24  25
ATOM     25  CD  GLN A  6       -5.575  -2.212  -0.236  0.00  0.00    +0.211 C 
ATOM     26  NE2 GLN A  6       -4.924  -2.997   0.625  0.00  0.00    -0.329 N 
ATOM     27 HE21 GLN A  6       -3.930  -2.890   0.765  0.00  0.00    +0.145 HD
ATOM     28 HE22 GLN A  6       -5.425  -3.702   1.145  0.00  0.00    +0.145 HD
ATOM     29  OE1 GLN A  6       -6.782  -2.327  -0.439  0.00  0.00    -0.276 OA
ENDBRANCH  24  25
ENDBRANCH  23  24
ENDBRANCH   6  23
ENDBRANCH   2   6
ENDBRANCH   1   4
BRANCH   1  30
ATOM     30  N   VAL A  5       -0.368   2.209  -0.345  0.00  0.00    -0.302 N 
ATOM     31  H   VAL A  5        0.367   2.837  -0.637  0.00  0.00    +0.150 HD
ATOM     32  C   LEU A  4       -0.054   0.953   0.016  0.00  0.00    +0.234 C 
ATOM     33  O   LEU A  4       -0.875   0.105   0.372  0.00  0.00    -0.274 OA
BRANCH  32  34
ATOM     34  CA  LEU A  4        1.436   0.590  -0.058  0.00  0.00    +0.159 C 
BRANCH  34  35
ATOM     35  N   LEU A  4        1.776  -0.286   1.061  0.00  0.00    -0.302 N 
ATOM     36  H   LEU A  4        1.014  -0.838   1.430  0.00  0.00    +0.150 HD
ATOM     37  C   VAL A  3        2.994  -0.386   1.617  0.00  0.00    +0.234 C 
ATOM     38  O   VAL A  3        3.983   0.251   1.249  0.00  0.00    -0.274 OA
BRANCH  37  39
ATOM     39  CA  VAL A  3        3.112  -1.356   2.805  0.00  0.00    +0.161 C 
BRANCH  39  40
ATOM     40  N   VAL A  3        4.374  -2.083   2.682  0.00  0.00    -0.302 N 
ATOM     41  H   VAL A  3        5.184  -1.507   2.508  0.00  0.00    +0.150 HD
ATOM     42  C   GLY A  2        4.534  -3.416   2.770  0.00  0.00    +0.231 C 
ATOM     43  O   GLY A  2        3.598  -4.186   2.977  0.00  0.00    -0.274 OA
BRANCH  42  44
ATOM     44  CA  GLY A  2        5.950  -3.999   2.607  0.00  0.00    +0.200 C 
BRANCH  44  45
ATOM     45  N   GLY A  2        6.979  -2.971   2.417  0.00  0.00    -0.308 N 
ATOM     46  H   GLY A  2        7.282  -2.815   1.466  0.00  0.00    +0.149 HD
ATOM     47  C   GLY A  1        7.525  -2.241   3.409  0.00  0.00    +0.196 C 
ATOM     48  O   GLY A  1        7.227  -2.390   4.594  0.00  0.00    -0.278 OA
BRANCH  47  49
ATOM     49  CA  GLY A  1        8.577  -1.195   3.019  0.00  0.00    +0.011 C 
BRANCH  49  50
ATOM     50  N   GLY A  1        7.854   0.010   2.531  0.00  0.00    +0.384 N 
ATOM     51  H1  GLY A  1        7.285  -0.200   1.723  0.00  0.00    -0.089 HD
ATOM     52  H2  GLY A  1        7.257   0.392   3.252  0.00  0.00    -0.089 HD
ATOM     53  H3  GLY A  1        8.506   0.734   2.265  0.00  0.00    -0.089 HD
ENDBRANCH  49  50
ENDBRANCH  47  49
ENDBRANCH  44  45
ENDBRANCH  42  44
ENDBRANCH  39  40
BRANCH  39  54
ATOM     54  CB  VAL A  3        3.061  -0.541   4.135  0.00  0.00    +0.012 C 
ATOM     55  CG2 VAL A  3        1.852   0.412   4.262  0.00  0.00    +0.009 C 
ATOM     56  CG1 VAL A  3        3.106  -1.468   5.363  0.00  0.00    +0.009 C 
ENDBRANCH  39  54
ENDBRANCH  37  39
ENDBRANCH  34  35
BRANCH  34  57
ATOM     57  CB  LEU A  4        1.826  -0.106  -1.390  0.00  0.00    +0.034 C 
BRANCH  57  58
ATOM     58  CG  LEU A  4        1.533   0.683  -2.689  0.00  0.00    -0.015 C 
ATOM     59  CD2 LEU A  4        2.240   2.056  -2.724  0.00  0.00    +0.007 C 
ATOM     60  CD1 LEU A  4        1.856  -0.171  -3.934  0.00  0.00    +0.007 C 
ENDBRANCH  57  58
ENDBRANCH  34  57
ENDBRANCH  32  34
ENDBRANCH   1  30
BRANCH   1  61
ATOM     61  CB  VAL A  5       -1.700   4.301  -0.579  0.00  0.00    +0.012 C 
ATOM     62  CG2 VAL A  5       -3.078   4.948  -0.850  0.00  0.00    +0.009 C 
ATOM     63  CG1 VAL A  5       -1.050   4.980   0.641  0.00  0.00    +0.009 C 
ENDBRANCH   1  61
TORSDOF 23
