REMARK  Name = DB05531
REMARK                            x       y       z     vdW  Elec       q    Type
REMARK                         _______ _______ _______ _____ _____    ______ ____
ROOT
ATOM      1  C   LIG    1        3.748  -1.374   0.025  0.00  0.00    +0.004 C 
ENDROOT
BRANCH   1   2
ATOM      2  N   LIG    1        4.238  -0.674   1.329  0.00  0.00    +0.386 N 
ATOM      3  H   LIG    1        3.994   0.304   1.256  0.00  0.00    -0.081 HD
ATOM      4  C   LIG    1        5.754  -0.789   1.592  0.00  0.00    -0.078 C 
ATOM      5  C   LIG    1        5.913  -0.464   3.075  0.00  0.00    -0.020 C 
ATOM      6  C   LIG    1        4.595  -0.846   3.746  0.00  0.00    -0.020 C 
ATOM      7  C   LIG    1        3.622  -1.233   2.629  0.00  0.00    -0.078 C 
ENDBRANCH   1   2
BRANCH   1   8
ATOM      8  C   LIG    1        4.413  -0.829  -1.270  0.00  0.00    +0.150 C 
ATOM      9  O   LIG    1        4.922   0.295  -1.258  0.00  0.00    -0.294 OA
BRANCH   8  10
ATOM     10  C   LIG    1        4.349  -1.667  -2.516  0.00  0.00    +0.016 A 
ATOM     11  C   LIG    1        4.773  -1.113  -3.734  0.00  0.00    +0.011 A 
ATOM     12  C   LIG    1        4.743  -1.867  -4.904  0.00  0.00    +0.001 A 
ATOM     13  C   LIG    1        4.291  -3.182  -4.866  0.00  0.00    +0.000 A 
ATOM     14  C   LIG    1        3.870  -3.750  -3.668  0.00  0.00    +0.001 A 
ATOM     15  C   LIG    1        3.901  -2.998  -2.496  0.00  0.00    +0.011 A 
ENDBRANCH   8  10
ENDBRANCH   1   8
BRANCH   1  16
ATOM     16  C   LIG    1        2.192  -1.323  -0.060  0.00  0.00    -0.008 C 
BRANCH  16  17
ATOM     17  C   LIG    1        1.563   0.089  -0.079  0.00  0.00    -0.001 C 
BRANCH  17  18
ATOM     18  C   LIG    1        0.024   0.054  -0.113  0.00  0.00    -0.000 C 
BRANCH  18  19
ATOM     19  C   LIG    1       -0.608   1.457  -0.088  0.00  0.00    -0.000 C 
BRANCH  19  20
ATOM     20  C   LIG    1       -2.146   1.423  -0.083  0.00  0.00    -0.000 C 
BRANCH  20  22
ATOM     21  C   LIG    1       -4.309   2.796  -0.003  0.00  0.00    +0.004 C 
ATOM     22  C   LIG    1       -2.775   2.827  -0.029  0.00  0.00    -0.003 C 
ENDBRANCH  20  22
ENDBRANCH  19  20
ENDBRANCH  18  19
ENDBRANCH  17  18
ENDBRANCH  16  17
ENDBRANCH   1  16
TORSDOF 9
