REMARK  Name = DB05903
REMARK                            x       y       z     vdW  Elec       q    Type
REMARK                         _______ _______ _______ _____ _____    ______ ____
ROOT
ATOM      1  C   LIG    1        0.038  -0.097   0.064  0.00  0.00    +0.206 C 
ATOM      2  O   LIG    1       -0.650   1.156   0.104  0.00  0.00    -0.457 OA
ATOM      3  C   LIG    1       -1.858   1.293   0.704  0.00  0.00    +0.310 C 
ATOM      4  O   LIG    1       -2.411   0.440   1.400  0.00  0.00    -0.251 OA
ATOM      5  C   LIG    1       -2.559   2.629   0.418  0.00  0.00    +0.152 C 
ATOM      6  C   LIG    1       -2.110   3.398  -0.863  0.00  0.00    +0.138 C 
ATOM      7  C   LIG    1       -3.201   4.342  -1.484  0.00  0.00    +0.050 C 
ATOM      8  C   LIG    1       -2.658   5.138  -2.706  0.00  0.00    +0.021 C 
ATOM      9  C   LIG    1       -3.631   5.403  -0.423  0.00  0.00    +0.021 C 
ATOM     10  C   LIG    1       -4.453   3.515  -1.929  0.00  0.00    +0.147 C 
ATOM     11  O   LIG    1       -5.548   3.655  -1.377  0.00  0.00    -0.296 OA
ATOM     12  C   LIG    1       -4.306   2.495  -3.089  0.00  0.00    +0.082 C 
ATOM     13  C   LIG    1       -5.460   2.648  -4.110  0.00  0.00    +0.018 C 
ATOM     14  C   LIG    1       -4.106   1.023  -2.595  0.00  0.00    +0.131 C 
ATOM     15  C   LIG    1       -3.760  -0.035  -3.693  0.00  0.00    +0.038 C 
ATOM     16  C   LIG    1       -2.679   0.464  -4.684  0.00  0.00    +0.014 C 
ATOM     17  C   LIG    1       -3.430  -1.399  -3.073  0.00  0.00    -0.025 C 
ATOM     18  C   LIG    1       -2.313  -2.129  -3.263  0.00  0.00    -0.026 C 
ATOM     19  C   LIG    1       -1.980  -3.422  -2.538  0.00  0.00    +0.057 C 
ATOM     20  C   LIG    1       -0.670  -3.461  -1.737  0.00  0.00    -0.073 C 
ATOM     21  C   LIG    1       -0.035  -4.841  -1.674  0.00  0.00    +0.039 C 
ATOM     22  C   LIG    1       -0.071  -2.406  -1.134  0.00  0.00    -0.024 C 
ATOM     23  C   LIG    1       -0.592  -0.980  -1.044  0.00  0.00    +0.076 C 
ENDROOT
BRANCH   1  25
ATOM     24  C   LIG    1        2.424  -0.478   0.703  0.00  0.00    +0.031 C 
ATOM     25  C   LIG    1        1.539   0.149  -0.109  0.00  0.00    -0.030 C 
ATOM     26  C   LIG    1        1.918   1.107  -1.238  0.00  0.00    +0.043 C 
BRANCH  24  27
ATOM     27  C   LIG    1        3.881  -0.423   0.809  0.00  0.00    +0.071 A 
ATOM     28  C   LIG    1        4.678  -1.327   1.504  0.00  0.00    +0.074 A 
ATOM     29  S   LIG    1        6.343  -0.850   1.384  0.00  0.00    -0.080 S 
ATOM     30  C   LIG    1        5.839   0.515   0.440  0.00  0.00    +0.076 A 
ATOM     31  C   LIG    1        6.797   1.544  -0.114  0.00  0.00    +0.073 C 
ATOM     32  N   LIG    1        4.543   0.576   0.251  0.00  0.00    -0.245 NA
ENDBRANCH  24  27
ENDBRANCH   1  25
BRANCH   6  33
ATOM     33  O   LIG    1       -0.920   4.108  -0.560  0.00  0.00    -0.390 OA
ATOM     34  H   LIG    1       -1.116   4.756   0.121  0.00  0.00    +0.210 HD
ENDBRANCH   6  33
BRANCH  14  35
ATOM     35  O   LIG    1       -5.250   0.591  -1.870  0.00  0.00    -0.391 OA
ATOM     36  H   LIG    1       -5.446   1.241  -1.191  0.00  0.00    +0.210 HD
ENDBRANCH  14  35
TORSDOF 4
