REMARK  Name = DB05298
REMARK                            x       y       z     vdW  Elec       q    Type
REMARK                         _______ _______ _______ _____ _____    ______ ____
ROOT
ATOM      1  S   LIG    1        3.481   4.162   0.000  0.00  0.00    -0.075 S 
ATOM      2  C   LIG    1        5.046   4.908   0.000  0.00  0.00    +0.077 A 
ATOM      3  C   LIG    1        6.051   3.934   0.000  0.00  0.00    +0.097 A 
ATOM      4  N   LIG    1        5.585   2.693   0.000  0.00  0.00    -0.238 NA
ATOM      5  C   LIG    1        4.273   2.612   0.000  0.00  0.00    +0.109 A 
ENDROOT
BRANCH   3   6
ATOM      6  C   LIG    1        7.531   4.190   0.000  0.00  0.00    +0.091 A 
ATOM      7  C   LIG    1        8.483   3.164   0.000  0.00  0.00    +0.030 A 
ATOM      8  C   LIG    1        9.835   3.501   0.000  0.00  0.00    +0.004 A 
ATOM      9  C   LIG    1       10.211   4.844   0.000  0.00  0.00    +0.035 A 
ATOM     10  CA  LIG    1        9.222   5.850   0.000  0.00  0.00    +0.148 A 
ATOM     11  N   LIG    1        7.899   5.499   0.000  0.00  0.00    -0.239 NA
BRANCH  10  12
ATOM     12  C   LIG    1        9.595   7.319   0.000  0.00  0.00    +0.355 C 
ATOM     13  OXT LIG    1       10.809   7.635   0.000  0.00  0.00    -0.243 OA
BRANCH  12  14
ATOM     14  O   LIG    1        8.677   8.175   0.000  0.00  0.00    -0.476 OA
ATOM     15  H   LIG    1        7.932   8.064   0.557  0.00  0.00    +0.295 HD
ENDBRANCH  12  14
ENDBRANCH  10  12
ENDBRANCH   3   6
BRANCH   5  16
ATOM     16  C   LIG    1        3.514   1.310   0.000  0.00  0.00    +0.011 A 
ATOM     17  C   LIG    1        4.213   0.098   0.000  0.00  0.00    +0.014 A 
ATOM     18  C   LIG    1        3.539  -1.119   0.000  0.00  0.00    +0.050 A 
ATOM     19  C   LIG    1        2.136  -1.161   0.000  0.00  0.00    +0.162 A 
ATOM     20  C   LIG    1        1.416   0.042   0.000  0.00  0.00    +0.163 A 
ATOM     21  C   LIG    1        2.113   1.263   0.000  0.00  0.00    +0.060 A 
BRANCH  20  22
ATOM     22  O   LIG    1        0.035  -0.055   0.000  0.00  0.00    -0.489 OA
BRANCH  22  23
ATOM     23  C   LIG    1       -0.759   1.128   0.000  0.00  0.00    +0.226 C 
ATOM     24  C   LIG    1       -2.238   0.730   0.000  0.00  0.00    +0.048 C 
ENDBRANCH  22  23
ENDBRANCH  20  22
BRANCH  19  25
ATOM     25  O   LIG    1        1.402  -2.334   0.000  0.00  0.00    -0.489 OA
BRANCH  25  26
ATOM     26  C   LIG    1        2.077  -3.588   0.000  0.00  0.00    +0.226 C 
ATOM     27  C   LIG    1        1.033  -4.708   0.000  0.00  0.00    +0.048 C 
ENDBRANCH  25  26
ENDBRANCH  19  25
ENDBRANCH   5  16
TORSDOF 8
