REMARK  Name = DB05993
REMARK                            x       y       z     vdW  Elec       q    Type
REMARK                         _______ _______ _______ _____ _____    ______ ____
ROOT
ATOM      1  C   LIG    1       -1.789   1.633  -0.452  0.00  0.00    +0.054 A 
ATOM      2  C   LIG    1       -1.916   3.009  -0.719  0.00  0.00    +0.109 A 
ATOM      3  C   LIG    1       -2.966   3.460  -1.521  0.00  0.00    +0.030 A 
ATOM      4  C   LIG    1       -3.885   2.565  -2.059  0.00  0.00    +0.025 A 
ATOM      5  C   LIG    1       -3.798   1.190  -1.798  0.00  0.00    +0.031 A 
ATOM      6  C   LIG    1       -2.736   0.749  -0.993  0.00  0.00    +0.048 A 
ENDROOT
BRANCH   5   7
ATOM      7  N   LIG    1       -4.708   0.279  -2.343  0.00  0.00    -0.333 N 
ATOM      8  C   LIG    1       -5.692   0.671  -3.374  0.00  0.00    +0.086 C 
ATOM      9  C   LIG    1       -6.242  -0.492  -4.231  0.00  0.00    -0.063 C 
ATOM     10  N   LIG    1       -6.831  -1.576  -3.322  0.00  0.00    +0.381 N 
ATOM     11  H   LIG    1       -7.617  -1.204  -2.807  0.00  0.00    -0.086 HD
ATOM     12  H   LIG    1       -7.163  -2.353  -3.876  0.00  0.00    -0.086 HD
ATOM     13  C   LIG    1       -5.744  -2.046  -2.349  0.00  0.00    -0.063 C 
ATOM     14  C   LIG    1       -5.232  -0.840  -1.532  0.00  0.00    +0.086 C 
ENDBRANCH   5   7
BRANCH   2  15
ATOM     15  S   LIG    1       -0.764   4.233  -0.056  0.00  0.00    -0.004 S 
ATOM     16  C   LIG    1       -1.191   4.286   1.781  0.00  0.00    +0.200 C 
ATOM     17  O   LIG    1       -1.104   5.536  -0.637  0.00  0.00    -0.170 OA
ATOM     18  O   LIG    1        0.595   3.700  -0.205  0.00  0.00    -0.170 OA
ENDBRANCH   2  15
BRANCH   1  19
ATOM     19  N   LIG    1       -0.729   1.179   0.359  0.00  0.00    -0.336 N 
ATOM     20  H   LIG    1        0.004   1.876   0.379  0.00  0.00    +0.147 HD
BRANCH  19  22
ATOM     21  C   LIG    1       -0.812  -1.150   1.238  0.00  0.00    +0.033 C 
ATOM     22  C   LIG    1       -0.192  -0.175   0.212  0.00  0.00    +0.101 C 
BRANCH  22  23
ATOM     23  C   LIG    1        1.344  -0.098   0.183  0.00  0.00    +0.019 A 
ATOM     24  C   LIG    1        1.994   0.552  -0.885  0.00  0.00    +0.166 A 
ATOM     25  C   LIG    1        3.394   0.656  -0.921  0.00  0.00    +0.163 A 
ATOM     26  C   LIG    1        4.145   0.071   0.111  0.00  0.00    +0.069 A 
ATOM     27  C   LIG    1        3.513  -0.594   1.157  0.00  0.00    +0.045 A 
ATOM     28 CL   LIG    1        4.452  -1.307   2.417  0.00  0.00    -0.083 Cl
ATOM     29  C   LIG    1        2.124  -0.679   1.193  0.00  0.00    +0.029 A 
BRANCH  24  30
ATOM     30  O   LIG    1        1.248   1.125  -1.888  0.00  0.00    -0.491 OA
ATOM     31  C   LIG    1        1.141   0.339  -3.068  0.00  0.00    +0.277 C 
ENDBRANCH  24  30
BRANCH  25  32
ATOM     32  O   LIG    1        3.951   1.341  -1.986  0.00  0.00    -0.491 OA
ATOM     33  C   LIG    1        5.365   1.483  -2.064  0.00  0.00    +0.277 C 
ENDBRANCH  25  32
ENDBRANCH  22  23
ENDBRANCH  19  22
ENDBRANCH   1  19
TORSDOF 7
