REMARK  Name = DB05695
REMARK                            x       y       z     vdW  Elec       q    Type
REMARK                         _______ _______ _______ _____ _____    ______ ____
ROOT
ATOM      1  N   LIG    1        0.063   0.170   0.027  0.00  0.00    +0.384 N 
ATOM      2  H   LIG    1       -0.284  -0.336  -0.776  0.00  0.00    -0.085 HD
ATOM      3  H   LIG    1       -0.278  -0.308   0.849  0.00  0.00    -0.085 HD
ENDROOT
BRANCH   1   5
ATOM      4  C   LIG    1       -0.032   2.376  -1.209  0.00  0.00    -0.010 C 
ATOM      5  C   LIG    1       -0.583   1.579  -0.001  0.00  0.00    -0.070 C 
ATOM      6  C   LIG    1       -0.239   2.297   1.325  0.00  0.00    -0.010 C 
BRANCH   5   7
ATOM      7  C   LIG    1       -2.127   1.382  -0.098  0.00  0.00    +0.022 C 
BRANCH   7   8
ATOM      8  C   LIG    1       -2.637   0.657  -1.345  0.00  0.00    -0.048 A 
ATOM      9  C   LIG    1       -2.956   1.384  -2.493  0.00  0.00    +0.012 A 
ATOM     10  C   LIG    1       -3.421   0.727  -3.659  0.00  0.00    -0.018 A 
ATOM     11  C   LIG    1       -3.736   1.440  -4.843  0.00  0.00    +0.008 A 
ATOM     12  C   LIG    1       -4.188   0.763  -5.973  0.00  0.00    +0.001 A 
ATOM     13  C   LIG    1       -4.340  -0.619  -5.955  0.00  0.00    +0.001 A 
ATOM     14  C   LIG    1       -4.042  -1.351  -4.808  0.00  0.00    +0.008 A 
ATOM     15  C   LIG    1       -3.576  -0.693  -3.642  0.00  0.00    -0.018 A 
ATOM     16  C   LIG    1       -3.259  -1.405  -2.460  0.00  0.00    +0.009 A 
ATOM     17  C   LIG    1       -2.799  -0.729  -1.333  0.00  0.00    +0.004 A 
ENDBRANCH   7   8
ENDBRANCH   5   7
ENDBRANCH   1   5
BRANCH   1  18
ATOM     18  C   LIG    1        1.603   0.056   0.009  0.00  0.00    -0.047 C 
BRANCH  18  19
ATOM     19  C   LIG    1        2.048  -1.423   0.095  0.00  0.00    +0.135 C 
BRANCH  19  20
ATOM     20  O   LIG    1        1.473  -2.184  -0.954  0.00  0.00    -0.390 OA
ATOM     21  H   LIG    1        1.778  -3.092  -0.879  0.00  0.00    +0.210 HD
ENDBRANCH  19  20
BRANCH  19  22
ATOM     22  C   LIG    1        3.580  -1.567   0.015  0.00  0.00    +0.258 C 
BRANCH  22  23
ATOM     23  O   LIG    1        4.163  -0.933   1.150  0.00  0.00    -0.488 OA
BRANCH  23  24
ATOM     24  C   LIG    1        5.543  -0.870   1.282  0.00  0.00    +0.139 A 
ATOM     25  C   LIG    1        6.080  -0.177   2.387  0.00  0.00    +0.112 A 
ATOM     26  C   LIG    1        7.476  -0.092   2.554  0.00  0.00    +0.062 A 
ATOM     27 CL   LIG    1        8.207   0.746   3.886  0.00  0.00    -0.082 Cl
ATOM     28  C   LIG    1        8.325  -0.694   1.626  0.00  0.00    +0.021 A 
ATOM     29  C   LIG    1        7.802  -1.380   0.536  0.00  0.00    +0.005 A 
ATOM     30  C   LIG    1        6.424  -1.468   0.364  0.00  0.00    +0.047 A 
BRANCH  25  31
ATOM     31  C   LIG    1        5.179   0.455   3.352  0.00  0.00    +0.104 C 
ATOM     32  N   LIG    1        4.465   0.955   4.113  0.00  0.00    -0.191 NA
ENDBRANCH  25  31
ENDBRANCH  23  24
ENDBRANCH  22  23
ENDBRANCH  19  22
ENDBRANCH  18  19
ENDBRANCH   1  18
TORSDOF 10
