REMARK  Name = DB05187
REMARK                            x       y       z     vdW  Elec       q    Type
REMARK                         _______ _______ _______ _____ _____    ______ ____
ROOT
ATOM      1  C   LIG    1        1.611   0.263   0.153  0.00  0.00    -0.024 A 
ATOM      2  C   LIG    1        2.297   1.381  -0.336  0.00  0.00    +0.015 A 
ATOM      3  C   LIG    1        3.691   1.381  -0.452  0.00  0.00    -0.008 A 
ATOM      4  C   LIG    1        4.383   2.643  -0.939  0.00  0.00    +0.047 C 
ATOM      5  C   LIG    1        4.422   0.237  -0.087  0.00  0.00    +0.128 A 
ATOM      6  C   LIG    1        3.743  -0.880   0.426  0.00  0.00    -0.008 A 
ATOM      7  C   LIG    1        4.500  -2.115   0.890  0.00  0.00    +0.047 C 
ATOM      8  C   LIG    1        2.350  -0.859   0.537  0.00  0.00    +0.015 A 
ENDROOT
BRANCH   1  10
ATOM      9  C   LIG    1       -0.734   1.171  -0.124  0.00  0.00    +0.052 C 
ATOM     10  C   LIG    1        0.138   0.223   0.287  0.00  0.00    +0.012 C 
BRANCH   9  11
ATOM     11  C   LIG    1       -2.186   1.054   0.054  0.00  0.00    +0.186 C 
ATOM     12  O   LIG    1       -2.692  -0.041   0.320  0.00  0.00    -0.287 OA
BRANCH  11  16
ATOM     13  C   LIG    1       -4.715   4.477  -0.596  0.00  0.00    +0.008 A 
ATOM     14  C   LIG    1       -5.239   3.189  -0.673  0.00  0.00    +0.015 A 
ATOM     15  C   LIG    1       -4.413   2.087  -0.466  0.00  0.00    +0.013 A 
ATOM     16  C   LIG    1       -3.048   2.260  -0.192  0.00  0.00    +0.022 A 
ATOM     17  C   LIG    1       -2.537   3.564  -0.098  0.00  0.00    +0.013 A 
ATOM     18  C   LIG    1       -3.363   4.666  -0.305  0.00  0.00    +0.015 A 
BRANCH  13  20
ATOM     19  C   LIG    1       -4.856   7.391  -0.711  0.00  0.00    +0.090 C 
ATOM     20  S   LIG    1       -5.803   5.851  -0.868  0.00  0.00    -0.129 S 
ENDBRANCH  13  20
ENDBRANCH  11  16
ENDBRANCH   9  11
ENDBRANCH   1  10
BRANCH   5  21
ATOM     21  O   LIG    1        5.801   0.203  -0.184  0.00  0.00    -0.475 OA
BRANCH  21  22
ATOM     22  C   LIG    1        6.442  -0.160  -1.436  0.00  0.00    +0.200 C 
ATOM     23  C   LIG    1        5.473  -0.729  -2.527  0.00  0.00    +0.067 C 
ATOM     24  C   LIG    1        7.467  -1.256  -1.051  0.00  0.00    +0.067 C 
BRANCH  22  25
ATOM     25  C   LIG    1        7.242   1.095  -1.942  0.00  0.00    +0.348 C 
ATOM     26  O   LIG    1        7.780   1.840  -1.088  0.00  0.00    -0.247 OA
BRANCH  25  27
ATOM     27  O   LIG    1        7.351   1.301  -3.175  0.00  0.00    -0.478 OA
ATOM     28  H   LIG    1        6.935   0.724  -3.784  0.00  0.00    +0.295 HD
ENDBRANCH  25  27
ENDBRANCH  22  25
ENDBRANCH  21  22
ENDBRANCH   5  21
TORSDOF 8
