REMARK  Name = DB05419
REMARK                            x       y       z     vdW  Elec       q    Type
REMARK                         _______ _______ _______ _____ _____    ______ ____
ROOT
ATOM      1  N   LIG    1       -0.122  -0.033   0.058  0.00  0.00    +0.379 N 
ATOM      2  H   LIG    1       -0.523   0.887   0.172  0.00  0.00    -0.082 HD
ATOM      3  C   LIG    1        1.407   0.164  -0.008  0.00  0.00    -0.096 C 
ATOM      4  C   LIG    1       -0.510  -0.825   1.326  0.00  0.00    -0.066 C 
ATOM      5  C   LIG    1       -2.037  -0.932   1.555  0.00  0.00    +0.036 C 
ATOM      6  C   LIG    1       -2.702  -2.040   0.717  0.00  0.00    -0.035 A 
ATOM      7  C   LIG    1       -3.241  -3.198   1.295  0.00  0.00    +0.052 A 
ATOM      8  C   LIG    1       -3.886  -4.186   0.541  0.00  0.00    +0.147 A 
ATOM      9  C   LIG    1       -4.012  -4.029  -0.862  0.00  0.00    +0.163 A 
ATOM     10  C   LIG    1       -3.462  -2.868  -1.427  0.00  0.00    +0.040 A 
ATOM     11  C   LIG    1       -2.815  -1.881  -0.676  0.00  0.00    -0.043 A 
ATOM     12  C   LIG    1       -2.187  -0.683  -1.388  0.00  0.00    +0.017 C 
ATOM     13  C   LIG    1       -0.653  -0.567  -1.291  0.00  0.00    -0.074 C 
ENDROOT
BRANCH   5  14
ATOM     14  C   LIG    1       -2.394  -0.966   3.051  0.00  0.00    +0.000 A 
ATOM     15  C   LIG    1       -1.643  -1.738   3.954  0.00  0.00    +0.008 A 
ATOM     16  C   LIG    1       -1.948  -1.748   5.319  0.00  0.00    +0.001 A 
ATOM     17  C   LIG    1       -3.007  -0.982   5.811  0.00  0.00    +0.007 A 
ATOM     18  C   LIG    1       -3.770  -0.224   4.925  0.00  0.00    -0.002 A 
ATOM     19  C   LIG    1       -4.901   0.727   5.142  0.00  0.00    +0.080 C 
ATOM     20  C   LIG    1       -5.310   1.064   3.703  0.00  0.00    +0.234 C 
ATOM     21  O   LIG    1       -4.262   0.616   2.844  0.00  0.00    -0.491 OA
ATOM     22  C   LIG    1       -3.455  -0.219   3.577  0.00  0.00    +0.127 A 
ENDBRANCH   5  14
BRANCH   8  23
ATOM     23  O   LIG    1       -4.329  -5.190   1.192  0.00  0.00    -0.504 OA
ATOM     24  H   LIG    1       -4.214  -5.234   2.121  0.00  0.00    +0.292 HD
ENDBRANCH   8  23
BRANCH   9  25
ATOM     25  N   LIG    1       -4.681  -5.011  -1.779  0.00  0.00    +0.010 N 
ATOM     26  O   LIG    1       -5.176  -6.044  -1.342  0.00  0.00    -0.130 OA
BRANCH  25  27
ATOM     27  O   LIG    1       -4.719  -4.752  -2.980  0.00  0.00    -0.396 OA
ATOM     28  H   LIG    1       -4.336  -3.959  -3.300  0.00  0.00    +0.329 HD
ENDBRANCH  25  27
ENDBRANCH   9  25
TORSDOF 4
