REMARK  Name = DB05983
REMARK                            x       y       z     vdW  Elec       q    Type
REMARK                         _______ _______ _______ _____ _____    ______ ____
ROOT
ATOM      1  C   LIG    1       -2.176   1.537  -3.229  0.00  0.00    +0.013 C 
ATOM      2  C   LIG    1       -0.695   1.579  -2.687  0.00  0.00    -0.013 C 
ATOM      3  C   LIG    1        0.256   2.313  -3.761  0.00  0.00    -0.004 C 
ATOM      4  C   LIG    1        1.751   2.403  -3.295  0.00  0.00    +0.016 C 
ATOM      5  C   LIG    1       -0.262   3.771  -3.996  0.00  0.00    +0.012 C 
ATOM      6  C   LIG    1        0.212   4.434  -5.290  0.00  0.00    +0.006 C 
ATOM      7  C   LIG    1       -0.161   3.553  -6.501  0.00  0.00    +0.016 C 
ATOM      8  C   LIG    1       -0.175   4.327  -7.883  0.00  0.00    +0.033 C 
ATOM      9  C   LIG    1        1.171   5.037  -8.195  0.00  0.00    +0.019 C 
ATOM     10  C   LIG    1       -1.349   5.354  -7.880  0.00  0.00    +0.019 C 
ATOM     11  C   LIG    1       -0.443   3.354  -9.074  0.00  0.00    +0.179 C 
ATOM     12  O   LIG    1       -0.835   3.759 -10.172  0.00  0.00    -0.291 OA
ATOM     13  C   LIG    1       -0.228   1.921  -8.862  0.00  0.00    +0.092 C 
ATOM     14  C   LIG    1        0.238   1.406  -7.707  0.00  0.00    +0.006 C 
ATOM     15  C   LIG    1        0.627   2.188  -6.441  0.00  0.00    +0.013 C 
ATOM     16  C   LIG    1        2.178   2.305  -6.519  0.00  0.00    +0.020 C 
ATOM     17  C   LIG    1        0.267   1.463  -5.093  0.00  0.00    -0.050 C 
ATOM     18  C   LIG    1        0.081   0.112  -5.027  0.00  0.00    +0.047 C 
ATOM     19  C   LIG    1       -0.166  -0.671  -3.819  0.00  0.00    +0.160 C 
ATOM     20  O   LIG    1       -0.362  -1.884  -3.880  0.00  0.00    -0.292 OA
ATOM     21  C   LIG    1       -0.130   0.122  -2.495  0.00  0.00    +0.070 C 
ATOM     22  C   LIG    1       -0.535  -0.676  -1.207  0.00  0.00    +0.017 C 
ATOM     23  C   LIG    1       -1.998  -1.224  -1.159  0.00  0.00    +0.011 C 
ATOM     24  C   LIG    1       -2.263  -2.149   0.058  0.00  0.00    -0.035 C 
ATOM     25  C   LIG    1       -3.745  -2.588  -0.003  0.00  0.00    +0.011 C 
ATOM     26  C   LIG    1       -1.326  -3.385   0.094  0.00  0.00    +0.011 C 
ATOM     27  C   LIG    1       -2.089  -1.233   1.299  0.00  0.00    +0.007 C 
ATOM     28  C   LIG    1       -0.670  -0.619   1.387  0.00  0.00    +0.019 C 
ATOM     29  C   LIG    1       -0.227   0.163   0.097  0.00  0.00    +0.071 C 
ATOM     30  C   LIG    1       -0.996   1.521  -0.020  0.00  0.00    +0.019 C 
ATOM     31  C   LIG    1       -0.768   2.345  -1.313  0.00  0.00    +0.009 C 
ENDROOT
BRANCH  13  32
ATOM     32  C   LIG    1       -0.488   1.024  -9.945  0.00  0.00    +0.102 C 
ATOM     33  N   LIG    1       -0.696   0.281 -10.807  0.00  0.00    -0.191 NA
ENDBRANCH  13  32
BRANCH  29  34
ATOM     34  C   LIG    1        1.303   0.438   0.275  0.00  0.00    +0.313 C 
ATOM     35  O   LIG    1        1.733   1.529   0.660  0.00  0.00    -0.250 OA
BRANCH  34  36
ATOM     36  O   LIG    1        2.081  -0.628  -0.030  0.00  0.00    -0.468 OA
ATOM     37  C   LIG    1        3.496  -0.542   0.052  0.00  0.00    +0.280 C 
ENDBRANCH  34  36
ENDBRANCH  29  34
TORSDOF 3
