REMARK  Name = DB05035
REMARK                            x       y       z     vdW  Elec       q    Type
REMARK                         _______ _______ _______ _____ _____    ______ ____
ROOT
ATOM      1  C   LIG    1       -1.258   1.930   0.123  0.00  0.00    +0.063 A 
ATOM      2 BR   LIG    1       -1.640   0.420   1.221  0.00  0.00    -0.046 Br
ATOM      3  C   LIG    1       -0.356   1.826  -0.942  0.00  0.00    +0.156 A 
ATOM      4  C   LIG    1       -0.104   2.944  -1.746  0.00  0.00    +0.063 A 
ATOM      5 BR   LIG    1        1.091   2.827  -3.227  0.00  0.00    -0.046 Br
ATOM      6  C   LIG    1       -0.731   4.160  -1.472  0.00  0.00    +0.042 A 
ATOM      7  C   LIG    1       -1.617   4.274  -0.389  0.00  0.00    +0.036 A 
ATOM      8  C   LIG    1       -1.884   3.147   0.393  0.00  0.00    +0.042 A 
ENDROOT
BRANCH   7   9
ATOM      9  N   LIG    1       -2.302   5.453  -0.043  0.00  0.00    -0.285 N 
ATOM     10  H   LIG    1       -3.093   5.319   0.569  0.00  0.00    +0.155 HD
ATOM     11  C   LIG    1       -2.010   6.732  -0.369  0.00  0.00    +0.228 C 
ATOM     12  O   LIG    1       -1.027   7.086  -1.022  0.00  0.00    -0.275 OA
BRANCH  11  13
ATOM     13  C   LIG    1       -2.980   7.801   0.161  0.00  0.00    +0.216 C 
BRANCH  13  14
ATOM     14  C   LIG    1       -4.385   7.749  -0.474  0.00  0.00    +0.314 C 
ATOM     15  O   LIG    1       -4.540   8.288  -1.594  0.00  0.00    -0.250 OA
BRANCH  14  16
ATOM     16  O   LIG    1       -5.291   7.178   0.174  0.00  0.00    -0.480 OA
ATOM     17  H   LIG    1       -6.158   7.126  -0.179  0.00  0.00    +0.295 HD
ENDBRANCH  14  16
ENDBRANCH  13  14
ENDBRANCH  11  13
ENDBRANCH   7   9
BRANCH   3  18
ATOM     18  O   LIG    1        0.258   0.624  -1.210  0.00  0.00    -0.454 OA
BRANCH  18  19
ATOM     19  C   LIG    1        1.531   0.374  -0.739  0.00  0.00    +0.129 A 
ATOM     20  C   LIG    1        2.087   1.015   0.377  0.00  0.00    +0.050 A 
ATOM     21  C   LIG    1        3.379   0.705   0.795  0.00  0.00    +0.049 A 
ATOM     22  C   LIG    1        4.133  -0.250   0.112  0.00  0.00    +0.120 A 
ATOM     23  C   LIG    1        3.589  -0.913  -1.003  0.00  0.00    +0.000 A 
ATOM     24  C   LIG    1        2.287  -0.589  -1.410  0.00  0.00    +0.053 A 
BRANCH  23  25
ATOM     25  C   LIG    1        4.380  -1.971  -1.786  0.00  0.00    +0.017 C 
ATOM     26  C   LIG    1        3.688  -3.348  -1.762  0.00  0.00    +0.012 C 
ATOM     27  C   LIG    1        4.686  -1.508  -3.223  0.00  0.00    +0.012 C 
ENDBRANCH  23  25
BRANCH  22  28
ATOM     28  O   LIG    1        5.401  -0.516   0.562  0.00  0.00    -0.506 OA
ATOM     29  H   LIG    1        5.643   0.007   1.330  0.00  0.00    +0.292 HD
ENDBRANCH  22  28
ENDBRANCH  18  19
ENDBRANCH   3  18
TORSDOF 8
