REMARK  Name = DB05494
REMARK                            x       y       z     vdW  Elec       q    Type
REMARK                         _______ _______ _______ _____ _____    ______ ____
ROOT
ATOM      1  O   LIG    1       -0.608  -3.884   3.799  0.00  0.00    -0.462 OA
ENDROOT
BRANCH   1   2
ATOM      2  C   LIG    1        0.102  -4.849   3.187  0.00  0.00    +0.307 C 
ATOM      3  O   LIG    1       -0.346  -5.893   2.709  0.00  0.00    -0.251 OA
BRANCH   2   4
ATOM      4  C   LIG    1        1.596  -4.516   3.116  0.00  0.00    +0.120 C 
BRANCH   4   5
ATOM      5  C   LIG    1        1.996  -3.722   1.852  0.00  0.00    +0.011 C 
BRANCH   5   6
ATOM      6  C   LIG    1        1.409  -2.297   1.778  0.00  0.00    +0.001 C 
BRANCH   6   7
ATOM      7  C   LIG    1        1.876  -1.508   0.541  0.00  0.00    +0.000 C 
BRANCH   7   8
ATOM      8  C   LIG    1        1.361  -0.055   0.485  0.00  0.00    +0.000 C 
BRANCH   8   9
ATOM      9  C   LIG    1       -0.172   0.072   0.345  0.00  0.00    +0.004 C 
BRANCH   9  10
ATOM     10  C   LIG    1       -0.675   1.519   0.197  0.00  0.00    +0.027 C 
BRANCH  10  12
ATOM     11  C   LIG    1       -1.114   2.520  -2.096  0.00  0.00    -0.031 C 
ATOM     12  C   LIG    1       -0.269   2.193  -1.102  0.00  0.00    -0.031 C 
BRANCH  11  13
ATOM     13  C   LIG    1       -0.705   3.194  -3.392  0.00  0.00    +0.027 C 
BRANCH  13  14
ATOM     14  C   LIG    1       -0.988   2.334  -4.636  0.00  0.00    +0.004 C 
BRANCH  14  15
ATOM     15  C   LIG    1       -0.544   3.011  -5.945  0.00  0.00    +0.000 C 
BRANCH  15  16
ATOM     16  C   LIG    1       -0.860   2.172  -7.196  0.00  0.00    +0.000 C 
BRANCH  16  17
ATOM     17  C   LIG    1       -0.377   2.835  -8.501  0.00  0.00    -0.000 C 
BRANCH  17  18
ATOM     18  C   LIG    1       -0.774   2.081  -9.786  0.00  0.00    -0.000 C 
BRANCH  18  20
ATOM     19  C   LIG    1       -0.464   0.015 -11.270  0.00  0.00    +0.004 C 
ATOM     20  C   LIG    1       -0.135   0.686  -9.930  0.00  0.00    -0.003 C 
ENDBRANCH  18  20
ENDBRANCH  17  18
ENDBRANCH  16  17
ENDBRANCH  15  16
ENDBRANCH  14  15
ENDBRANCH  13  14
ENDBRANCH  11  13
ENDBRANCH  10  12
ENDBRANCH   9  10
ENDBRANCH   8   9
ENDBRANCH   7   8
ENDBRANCH   6   7
ENDBRANCH   5   6
ENDBRANCH   4   5
ENDBRANCH   2   4
ENDBRANCH   1   2
BRANCH   1  21
ATOM     21  C   LIG    1       -2.022  -3.976   3.927  0.00  0.00    +0.266 C 
BRANCH  21  22
ATOM     22  C   LIG    1       -2.603  -2.653   4.463  0.00  0.00    +0.189 C 
ATOM     23  C   LIG    1       -2.292  -1.400   3.642  0.00  0.00    +0.179 C 
ATOM     24  C   LIG    1       -2.432  -0.267   4.656  0.00  0.00    +0.195 C 
ATOM     25  C   LIG    1       -2.053  -0.977   5.977  0.00  0.00    +0.255 C 
ATOM     26  O   LIG    1       -2.028  -2.355   5.726  0.00  0.00    -0.345 OA
BRANCH  25  27
ATOM     27  N   LIG    1       -0.854  -0.564   6.718  0.00  0.00    -0.270 N 
ATOM     28  C   LIG    1       -1.000   0.113   7.908  0.00  0.00    +0.096 A 
ATOM     29  C   LIG    1        0.046   0.556   8.621  0.00  0.00    +0.061 A 
ATOM     30  C   LIG    1        1.350   0.294   8.090  0.00  0.00    +0.123 A 
ATOM     31  N   LIG    1        1.503  -0.330   6.973  0.00  0.00    -0.178 NA
ATOM     32  C   LIG    1        0.416  -0.790   6.197  0.00  0.00    +0.352 A 
ATOM     33  O   LIG    1        0.536  -1.367   5.116  0.00  0.00    -0.244 OA
BRANCH  30  34
ATOM     34  N   LIG    1        2.407   0.719   8.796  0.00  0.00    -0.343 N 
ATOM     35  H   LIG    1        3.344   0.554   8.457  0.00  0.00    +0.144 HD
ATOM     36  H   LIG    1        2.280   1.206   9.671  0.00  0.00    +0.144 HD
ENDBRANCH  30  34
ENDBRANCH  25  27
BRANCH  23  37
ATOM     37  O   LIG    1       -3.148  -1.244   2.526  0.00  0.00    -0.386 OA
ATOM     38  H   LIG    1       -2.960  -1.945   1.897  0.00  0.00    +0.210 HD
ENDBRANCH  23  37
BRANCH  24  39
ATOM     39  O   LIG    1       -1.672   0.897   4.381  0.00  0.00    -0.385 OA
ATOM     40  H   LIG    1       -1.944   1.592   4.984  0.00  0.00    +0.210 HD
ENDBRANCH  24  39
ENDBRANCH  21  22
ENDBRANCH   1  21
TORSDOF 22
