REMARK  Name = DB05266
REMARK                            x       y       z     vdW  Elec       q    Type
REMARK                         _______ _______ _______ _____ _____    ______ ____
ROOT
ATOM      1  C   LIG    1        0.016  -0.046  -0.281  0.00  0.00    +0.066 A 
ATOM      2  C   LIG    1       -0.907  -1.136  -0.231  0.00  0.00    +0.078 A 
ATOM      3  C   LIG    1       -0.894  -2.549  -0.285  0.00  0.00    +0.028 A 
ATOM      4  C   LIG    1       -2.094  -3.259  -0.201  0.00  0.00    +0.004 A 
ATOM      5  C   LIG    1       -3.313  -2.598  -0.069  0.00  0.00    +0.020 A 
ATOM      6  C   LIG    1       -3.343  -1.209  -0.024  0.00  0.00    +0.113 A 
ATOM      7  N   LIG    1       -2.162  -0.518  -0.106  0.00  0.00    -0.239 N 
ATOM      8  N   LIG    1       -2.070   0.822  -0.081  0.00  0.00    -0.170 NA
ATOM      9  C   LIG    1       -0.785   1.114  -0.164  0.00  0.00    +0.077 A 
ENDROOT
BRANCH   9  10
ATOM     10  C   LIG    1       -0.370   2.587  -0.128  0.00  0.00    +0.034 C 
ATOM     11  C   LIG    1       -0.650   3.277  -1.476  0.00  0.00    +0.014 C 
ATOM     12  C   LIG    1       -1.013   3.357   1.046  0.00  0.00    +0.014 C 
ENDBRANCH   9  10
BRANCH   1  14
ATOM     13  O   LIG    1        2.128   0.836  -0.853  0.00  0.00    -0.292 OA
ATOM     14  C   LIG    1        1.475  -0.113  -0.415  0.00  0.00    +0.170 C 
BRANCH  14  15
ATOM     15  C   LIG    1        2.221  -1.383   0.042  0.00  0.00    +0.054 C 
ATOM     16  C   LIG    1        2.660  -2.228  -1.172  0.00  0.00    +0.015 C 
ATOM     17  C   LIG    1        3.426  -1.045   0.946  0.00  0.00    +0.015 C 
ENDBRANCH  14  15
ENDBRANCH   1  14
TORSDOF 3
