REMARK  Name = DB05022
REMARK                            x       y       z     vdW  Elec       q    Type
REMARK                         _______ _______ _______ _____ _____    ______ ____
ROOT
ATOM      1  O   LIG    1        3.515  -1.345  -2.413  0.00  0.00    -0.267 OA
ATOM      2  C   LIG    1        4.125  -1.374  -1.338  0.00  0.00    +0.262 A 
ATOM      3  C   LIG    1        5.640  -1.416  -1.267  0.00  0.00    +0.050 A 
ATOM      4  C   LIG    1        6.384  -1.450  -2.453  0.00  0.00    +0.036 A 
ATOM      5  C   LIG    1        7.779  -1.489  -2.427  0.00  0.00    +0.026 A 
ATOM      6  C   LIG    1        8.468  -1.495  -1.214  0.00  0.00    +0.031 A 
ATOM      7  C   LIG    1        7.758  -1.460   0.010  0.00  0.00    -0.015 A 
ATOM      8  C   LIG    1        8.397  -1.461   1.273  0.00  0.00    +0.008 A 
ATOM      9  C   LIG    1        7.637  -1.423   2.441  0.00  0.00    +0.001 A 
ATOM     10  C   LIG    1        6.244  -1.386   2.389  0.00  0.00    +0.014 A 
ATOM     11  C   LIG    1        5.570  -1.385   1.162  0.00  0.00    +0.048 A 
ATOM     12  C   LIG    1        4.054  -1.344   1.146  0.00  0.00    +0.262 A 
ATOM     13  O   LIG    1        3.384  -1.290   2.183  0.00  0.00    -0.267 OA
ATOM     14  C   LIG    1        6.337  -1.421  -0.031  0.00  0.00    +0.007 A 
ATOM     15  N   LIG    1        3.493  -1.366  -0.113  0.00  0.00    -0.277 N 
ENDROOT
BRANCH   5  16
ATOM     16  N   LIG    1        8.492  -1.522  -3.624  0.00  0.00    -0.358 N 
ATOM     17  H   LIG    1        7.993  -1.520  -4.502  0.00  0.00    +0.142 HD
ATOM     18  H   LIG    1        9.502  -1.541  -3.602  0.00  0.00    +0.142 HD
ENDBRANCH   5  16
BRANCH  15  19
ATOM     19  C   LIG    1        2.004  -1.364  -0.157  0.00  0.00    +0.110 C 
BRANCH  19  20
ATOM     20  C   LIG    1        1.399   0.056  -0.195  0.00  0.00    -0.058 C 
BRANCH  20  21
ATOM     21  N   LIG    1       -0.134   0.015  -0.005  0.00  0.00    +0.377 N 
ATOM     22  H   LIG    1       -0.314  -0.509   0.841  0.00  0.00    -0.083 HD
ATOM     23  C   LIG    1       -0.706   1.429   0.218  0.00  0.00    -0.097 C 
ATOM     24  C   LIG    1       -0.872  -0.696  -1.158  0.00  0.00    -0.097 C 
ENDBRANCH  20  21
ENDBRANCH  19  20
ENDBRANCH  15  19
TORSDOF 4
