REMARK  Name = DB05706
REMARK                            x       y       z     vdW  Elec       q    Type
REMARK                         _______ _______ _______ _____ _____    ______ ____
ROOT
ATOM      1  C   LIG    1        1.326  -0.159  -0.112  0.00  0.00    +0.158 C 
ATOM      2  C   LIG    1        1.752  -1.645  -0.198  0.00  0.00    +0.030 A 
ATOM      3  C   LIG    1        1.549  -2.357  -1.393  0.00  0.00    +0.134 A 
ATOM      4  C   LIG    1        1.825  -3.740  -1.503  0.00  0.00    +0.078 A 
ATOM      5  C   LIG    1        1.601  -4.489  -2.808  0.00  0.00    +0.202 C 
ATOM      6  O   LIG    1        0.924  -4.020  -3.724  0.00  0.00    -0.286 OA
ATOM      7  C   LIG    1        2.388  -5.765  -2.993  0.00  0.00    +0.075 A 
ATOM      8  C   LIG    1        2.657  -6.296  -4.281  0.00  0.00    +0.132 A 
ATOM      9  C   LIG    1        3.376  -7.499  -4.390  0.00  0.00    +0.046 A 
ATOM     10  C   LIG    1        3.830  -8.166  -3.262  0.00  0.00    +0.004 A 
ATOM     11  C   LIG    1        3.582  -7.641  -2.003  0.00  0.00    +0.012 A 
ATOM     12  C   LIG    1        2.868  -6.445  -1.848  0.00  0.00    +0.037 A 
ATOM     13  C   LIG    1        2.644  -5.907  -0.465  0.00  0.00    +0.198 C 
ATOM     14  O   LIG    1        2.862  -6.612   0.524  0.00  0.00    -0.286 OA
ATOM     15  C   LIG    1        2.325  -4.426  -0.369  0.00  0.00    +0.078 A 
ATOM     16  C   LIG    1        2.535  -3.705   0.829  0.00  0.00    +0.132 A 
ATOM     17  C   LIG    1        2.246  -2.335   0.935  0.00  0.00    +0.007 A 
ATOM     18  C   LIG    1        2.510  -1.584   2.260  0.00  0.00    +0.074 C 
ATOM     19  C   LIG    1        1.622  -0.333   2.428  0.00  0.00    +0.075 C 
ATOM     20  C   LIG    1        1.847   0.528   1.170  0.00  0.00    +0.071 C 
ENDROOT
BRANCH   3  21
ATOM     21  O   LIG    1        1.070  -1.643  -2.469  0.00  0.00    -0.506 OA
ATOM     22  H   LIG    1        0.913  -0.719  -2.262  0.00  0.00    +0.292 HD
ENDBRANCH   3  21
BRANCH   8  23
ATOM     23  O   LIG    1        2.213  -5.609  -5.401  0.00  0.00    -0.494 OA
ATOM     24  C   LIG    1        2.481  -6.108  -6.707  0.00  0.00    +0.277 C 
ENDBRANCH   8  23
BRANCH  16  25
ATOM     25  O   LIG    1        3.062  -4.322   1.942  0.00  0.00    -0.506 OA
ATOM     26  H   LIG    1        3.167  -3.725   2.687  0.00  0.00    +0.292 HD
ENDBRANCH  16  25
BRANCH  19  27
ATOM     27  O   LIG    1        0.266  -0.722   2.571  0.00  0.00    -0.388 OA
ATOM     28  H   LIG    1        0.219  -1.423   3.226  0.00  0.00    +0.210 HD
ENDBRANCH  19  27
BRANCH   1  29
ATOM     29  O   LIG    1       -0.092  -0.073  -0.284  0.00  0.00    -0.343 OA
BRANCH  29  33
ATOM     30  C   LIG    1       -2.419   1.928   2.634  0.00  0.00    +0.040 C 
ATOM     31  C   LIG    1       -2.172   1.209   1.297  0.00  0.00    +0.145 C 
ATOM     32  O   LIG    1       -1.064   1.834   0.631  0.00  0.00    -0.346 OA
ATOM     33  C   LIG    1       -0.622   1.198  -0.547  0.00  0.00    +0.250 C 
ATOM     34  C   LIG    1       -1.769   1.042  -1.558  0.00  0.00    +0.048 C 
ATOM     35  C   LIG    1       -3.001   0.382  -0.910  0.00  0.00    -0.039 C 
ATOM     36  C   LIG    1       -3.421   1.114   0.387  0.00  0.00    +0.129 C 
BRANCH  35  37
ATOM     37  N   LIG    1       -4.152   0.366  -1.933  0.00  0.00    +0.382 N 
ATOM     38  H   LIG    1       -3.868  -0.122  -2.771  0.00  0.00    -0.090 HD
ATOM     39  H   LIG    1       -4.960  -0.097  -1.543  0.00  0.00    -0.090 HD
ATOM     40  H   LIG    1       -4.406   1.313  -2.176  0.00  0.00    -0.090 HD
ENDBRANCH  35  37
BRANCH  36  41
ATOM     41  O   LIG    1       -4.012   2.391   0.175  0.00  0.00    -0.391 OA
ATOM     42  H   LIG    1       -4.344   2.718   1.015  0.00  0.00    +0.210 HD
ENDBRANCH  36  41
ENDBRANCH  29  33
ENDBRANCH   1  29
BRANCH  19  43
ATOM     43  C   LIG    1        1.909   0.438   3.749  0.00  0.00    +0.063 C 
BRANCH  43  44
ATOM     44  C   LIG    1        3.325   1.033   3.898  0.00  0.00    +0.158 C 
BRANCH  44  45
ATOM     45  O   LIG    1        3.451   1.719   5.125  0.00  0.00    -0.395 OA
ATOM     46  H   LIG    1        4.338   2.081   5.185  0.00  0.00    +0.209 HD
ENDBRANCH  44  45
ENDBRANCH  43  44
ENDBRANCH  19  43
TORSDOF 11
