REMARK  Name = DB05448
REMARK                            x       y       z     vdW  Elec       q    Type
REMARK                         _______ _______ _______ _____ _____    ______ ____
ROOT
ATOM      1  S   LIG    1       -0.149   2.838   0.189  0.00  0.00    -0.019 S 
ENDROOT
BRANCH   1   2
ATOM      2  C   LIG    1       -0.910   2.414   1.712  0.00  0.00    +0.177 A 
ATOM      3  N   LIG    1       -0.354   2.584   2.891  0.00  0.00    -0.230 NA
ATOM      4  C   LIG    1       -1.243   2.143   3.767  0.00  0.00    +0.131 A 
ATOM      5  C   LIG    1       -2.397   1.683   3.151  0.00  0.00    +0.104 A 
ATOM      6  N   LIG    1       -2.164   1.869   1.818  0.00  0.00    -0.339 N 
ATOM      7  H   LIG    1       -2.790   1.646   1.057  0.00  0.00    +0.167 HD
ENDBRANCH   1   2
BRANCH   1   8
ATOM      8  S   LIG    1        0.015   1.062  -0.806  0.00  0.00    -0.082 S 
BRANCH   8   9
ATOM      9  C   LIG    1        1.615   0.354  -0.299  0.00  0.00    +0.055 C 
ATOM     10  C   LIG    1        1.649  -0.029   1.191  0.00  0.00    +0.020 C 
BRANCH   9  11
ATOM     11  C   LIG    1        2.059  -0.832  -1.185  0.00  0.00    +0.011 C 
ATOM     12  C   LIG    1        2.285  -0.468  -2.661  0.00  0.00    +0.005 C 
ENDBRANCH   9  11
ENDBRANCH   8   9
ENDBRANCH   1   8
TORSDOF 4
