REMARK  Name = DB05490
REMARK                            x       y       z     vdW  Elec       q    Type
REMARK                         _______ _______ _______ _____ _____    ______ ____
ROOT
ATOM      1  C   LIG    1        1.679   0.795   1.342  0.00  0.00    +0.051 A 
ATOM      2  C   LIG    1        1.929  -0.582   1.336  0.00  0.00    +0.048 A 
ATOM      3  C   LIG    1        3.186  -1.096   1.019  0.00  0.00    +0.086 A 
ATOM      4 CL   LIG    1        3.418  -2.809   0.994  0.00  0.00    -0.080 Cl
ATOM      5  C   LIG    1        4.236  -0.227   0.709  0.00  0.00    +0.165 A 
ATOM      6  C   LIG    1        4.022   1.153   0.759  0.00  0.00    +0.086 A 
ATOM      7 CL   LIG    1        5.306   2.259   0.418  0.00  0.00    -0.080 Cl
ATOM      8  C   LIG    1        2.760   1.652   1.079  0.00  0.00    +0.048 A 
ENDROOT
BRANCH   1   9
ATOM      9  N   LIG    1        0.406   1.216   1.635  0.00  0.00    -0.216 N 
ATOM     10  H   LIG    1       -0.094   0.719   2.322  0.00  0.00    +0.174 HD
BRANCH   9  11
ATOM     11  S   LIG    1       -0.307   2.440   0.949  0.00  0.00    +0.074 S 
ATOM     12  O   LIG    1       -1.230   3.137   1.852  0.00  0.00    -0.150 OA
ATOM     13  O   LIG    1        0.525   3.298   0.098  0.00  0.00    -0.150 OA
BRANCH  11  19
ATOM     14 CL   LIG    1       -4.150  -0.695  -3.006  0.00  0.00    -0.083 Cl
ATOM     15  C   LIG    1       -3.089   0.154  -1.943  0.00  0.00    +0.042 A 
ATOM     16  C   LIG    1       -1.740   0.291  -2.265  0.00  0.00    +0.042 A 
ATOM     17  C   LIG    1       -0.871   0.975  -1.412  0.00  0.00    +0.069 A 
ATOM     18 CL   LIG    1        0.790   1.079  -1.891  0.00  0.00    -0.081 Cl
ATOM     19  C   LIG    1       -1.361   1.537  -0.214  0.00  0.00    +0.127 A 
ATOM     20  C   LIG    1       -2.720   1.388   0.097  0.00  0.00    +0.032 A 
ATOM     21  C   LIG    1       -3.579   0.703  -0.760  0.00  0.00    +0.022 A 
ENDBRANCH  11  19
ENDBRANCH   9  11
ENDBRANCH   1   9
BRANCH   5  22
ATOM     22  O   LIG    1        5.471  -0.726   0.359  0.00  0.00    -0.452 OA
BRANCH  22  23
ATOM     23  C   LIG    1        5.766  -0.994  -0.964  0.00  0.00    +0.147 A 
ATOM     24  C   LIG    1        4.864  -0.829  -2.026  0.00  0.00    +0.057 A 
ATOM     25  C   LIG    1        5.267  -1.138  -3.347  0.00  0.00    +0.004 A 
ATOM     26  C   LIG    1        4.405  -0.996  -4.462  0.00  0.00    +0.010 A 
ATOM     27  C   LIG    1        4.859  -1.316  -5.740  0.00  0.00    +0.001 A 
ATOM     28  C   LIG    1        6.158  -1.776  -5.937  0.00  0.00    +0.002 A 
ATOM     29  C   LIG    1        7.029  -1.926  -4.860  0.00  0.00    +0.028 A 
ATOM     30  C   LIG    1        6.599  -1.610  -3.548  0.00  0.00    +0.071 A 
ATOM     31  N   LIG    1        7.470  -1.767  -2.513  0.00  0.00    -0.251 NA
ATOM     32  C   LIG    1        7.044  -1.461  -1.263  0.00  0.00    +0.157 A 
ENDBRANCH  22  23
ENDBRANCH   5  22
TORSDOF 5
