REMARK  Name = DB05260
REMARK                            x       y       z     vdW  Elec       q    Type
REMARK                         _______ _______ _______ _____ _____    ______ ____
ROOT
ATOM      1  N   LIG    1        0.600  -0.080   0.631  0.00  0.00    +0.168 N 
ATOM      2  O   LIG    1       -0.114   0.562  -0.130  0.00  0.00    -0.094 OA
ENDROOT
BRANCH   1   3
ATOM      3  O   LIG    1        1.445  -0.843   0.180  0.00  0.00    -0.370 OA
ATOM      4  H   LIG    1        1.992  -1.333   0.763  0.00  0.00    +0.332 HD
ENDBRANCH   1   3
BRANCH   1   5
ATOM      5  O   LIG    1        0.469   0.043   1.843  0.00  0.00    -0.370 OA
ATOM      6  H   LIG    1        1.015  -0.448   2.425  0.00  0.00    +0.332 HD
ENDBRANCH   1   5
TORSDOF 2
