REMARK  Name = DB05422
REMARK                            x       y       z     vdW  Elec       q    Type
REMARK                         _______ _______ _______ _____ _____    ______ ____
ROOT
ATOM      1  C   LIG    1        0.012  -0.014   0.055  0.00  0.00    +0.001 C 
ENDROOT
BRANCH   1   2
ATOM      2  C   LIG    1        1.547  -0.156  -0.030  0.00  0.00    +0.112 C 
BRANCH   2   6
ATOM      3  C   LIG    1        2.243  -0.197   4.839  0.00  0.00    +0.125 A 
ATOM      4  C   LIG    1        2.406   0.428   3.590  0.00  0.00    +0.016 A 
ATOM      5  C   LIG    1        2.115  -0.268   2.399  0.00  0.00    +0.043 A 
ATOM      6  N   LIG    1        2.273   0.397   1.144  0.00  0.00    -0.271 N 
ATOM      7  C   LIG    1        3.074   1.487   0.917  0.00  0.00    +0.220 C 
ATOM      8  O   LIG    1        3.246   2.039  -0.172  0.00  0.00    -0.275 OA
ATOM      9  C   LIG    1        3.792   1.998   2.190  0.00  0.00    +0.101 C 
ATOM     10  C   LIG    1        1.640  -1.588   2.487  0.00  0.00    +0.024 A 
ATOM     11  C   LIG    1        1.476  -2.207   3.721  0.00  0.00    +0.005 A 
ATOM     12  C   LIG    1        2.907   1.860   3.449  0.00  0.00    +0.050 C 
ATOM     13  C   LIG    1        1.776  -1.519   4.890  0.00  0.00    +0.046 A 
BRANCH   3  15
ATOM     14  C   LIG    1        2.400  -0.037   7.256  0.00  0.00    +0.277 C 
ATOM     15  O   LIG    1        2.549   0.546   5.965  0.00  0.00    -0.495 OA
ENDBRANCH   3  15
ENDBRANCH   2   6
ENDBRANCH   1   2
BRANCH   1  16
ATOM     16  C   LIG    1       -0.452   1.451   0.179  0.00  0.00    -0.077 C 
BRANCH  16  17
ATOM     17  N   LIG    1       -1.995   1.560   0.157  0.00  0.00    +0.382 N 
ATOM     18  H   LIG    1       -2.357   1.048  -0.635  0.00  0.00    -0.082 HD
ATOM     19  C   LIG    1       -2.640   1.011   1.449  0.00  0.00    -0.060 C 
ATOM     20  C   LIG    1       -4.173   1.203   1.368  0.00  0.00    +0.086 C 
ATOM     21  N   LIG    1       -4.583   2.610   1.201  0.00  0.00    -0.333 N 
ATOM     22  C   LIG    1       -3.957   3.121  -0.032  0.00  0.00    +0.086 C 
ATOM     23  C   LIG    1       -2.414   3.038   0.002  0.00  0.00    -0.060 C 
BRANCH  21  24
ATOM     24  C   LIG    1       -4.825   3.465   2.276  0.00  0.00    +0.031 A 
ATOM     25  C   LIG    1       -4.426   3.150   3.587  0.00  0.00    +0.043 A 
ATOM     26  C   LIG    1       -4.677   4.024   4.645  0.00  0.00    +0.043 A 
ATOM     27 CL   LIG    1       -4.167   3.614   6.242  0.00  0.00    -0.083 Cl
ATOM     28  C   LIG    1       -5.338   5.228   4.413  0.00  0.00    +0.020 A 
ATOM     29  C   LIG    1       -5.749   5.555   3.123  0.00  0.00    +0.003 A 
ATOM     30  C   LIG    1       -5.495   4.681   2.067  0.00  0.00    +0.023 A 
ENDBRANCH  21  24
ENDBRANCH  16  17
ENDBRANCH   1  16
TORSDOF 6
