REMARK  Name = DB05048
REMARK                            x       y       z     vdW  Elec       q    Type
REMARK                         _______ _______ _______ _____ _____    ______ ____
ROOT
ATOM      1  C   LIG    1       -1.974   0.985  -0.021  0.00  0.00    +0.139 A 
ATOM      2  C   LIG    1       -0.576   1.008   0.006  0.00  0.00    +0.051 A 
ATOM      3  C   LIG    1        0.180  -0.171   0.060  0.00  0.00    -0.035 A 
ATOM      4  C   LIG    1       -0.522  -1.381   0.109  0.00  0.00    +0.050 A 
ATOM      5  C   LIG    1       -1.916  -1.426   0.101  0.00  0.00    +0.124 A 
ATOM      6  C   LIG    1       -2.674  -0.240   0.021  0.00  0.00    +0.040 A 
ENDROOT
BRANCH   6   7
ATOM      7  C   LIG    1       -4.225  -0.236   0.028  0.00  0.00    +0.037 C 
ATOM      8  C   LIG    1       -4.940  -1.267  -0.923  0.00  0.00    +0.083 C 
ATOM      9  C   LIG    1       -6.239  -1.861  -0.319  0.00  0.00    +0.138 C 
ATOM     10  O   LIG    1       -7.014  -2.564  -0.964  0.00  0.00    -0.297 OA
ATOM     11  C   LIG    1       -6.483  -1.477   1.170  0.00  0.00    +0.061 C 
ATOM     12  C   LIG    1       -5.157  -1.624   1.954  0.00  0.00    +0.016 C 
ATOM     13  C   LIG    1       -6.379   0.052   1.471  0.00  0.00    -0.022 C 
ATOM     14  C   LIG    1       -6.960   1.040   0.416  0.00  0.00    +0.012 C 
ATOM     15  C   LIG    1       -6.956   0.470   2.853  0.00  0.00    +0.012 C 
ATOM     16  C   LIG    1       -4.830  -0.189   1.471  0.00  0.00    +0.004 C 
ENDBRANCH   6   7
BRANCH   3  17
ATOM     17  C   LIG    1        1.735  -0.175   0.078  0.00  0.00    -0.010 C 
ATOM     18  C   LIG    1        2.247  -0.983  -1.145  0.00  0.00    +0.016 C 
ATOM     19  C   LIG    1        2.222  -0.874   1.377  0.00  0.00    +0.016 C 
BRANCH  17  20
ATOM     20  C   LIG    1        2.340   1.271   0.022  0.00  0.00    +0.011 C 
BRANCH  20  21
ATOM     21  C   LIG    1        3.881   1.414   0.036  0.00  0.00    +0.001 C 
BRANCH  21  22
ATOM     22  C   LIG    1        4.340   2.883  -0.031  0.00  0.00    +0.000 C 
BRANCH  22  23
ATOM     23  C   LIG    1        5.871   3.035  -0.016  0.00  0.00    -0.000 C 
BRANCH  23  24
ATOM     24  C   LIG    1        6.329   4.502  -0.084  0.00  0.00    -0.003 C 
ATOM     25  C   LIG    1        7.856   4.654  -0.081  0.00  0.00    +0.004 C 
ENDBRANCH  23  24
ENDBRANCH  22  23
ENDBRANCH  21  22
ENDBRANCH  20  21
ENDBRANCH  17  20
ENDBRANCH   3  17
BRANCH   5  26
ATOM     26  O   LIG    1       -2.489  -2.667   0.191  0.00  0.00    -0.506 OA
ATOM     27  H   LIG    1       -1.840  -3.373   0.246  0.00  0.00    +0.292 HD
ENDBRANCH   5  26
BRANCH   1  28
ATOM     28  O   LIG    1       -2.634   2.197  -0.026  0.00  0.00    -0.422 OA
BRANCH  28  29
ATOM     29  C   LIG    1       -2.842   2.854  -1.204  0.00  0.00    +0.337 C 
ATOM     30  O   LIG    1       -2.460   2.463  -2.312  0.00  0.00    -0.245 OA
BRANCH  29  31
ATOM     31  C   LIG    1       -3.592   4.087  -0.997  0.00  0.00    +0.099 C 
ATOM     32  C   LIG    1       -3.908   4.934  -2.005  0.00  0.00    +0.098 C 
BRANCH  32  33
ATOM     33  C   LIG    1       -4.707   6.252  -1.837  0.00  0.00    +0.330 C 
ATOM     34  O   LIG    1       -4.610   7.027  -2.814  0.00  0.00    -0.246 OA
BRANCH  33  35
ATOM     35  O   LIG    1       -5.367   6.382  -0.779  0.00  0.00    -0.478 OA
ATOM     36  H   LIG    1       -5.343   5.710  -0.126  0.00  0.00    +0.295 HD
ENDBRANCH  33  35
ENDBRANCH  32  33
ENDBRANCH  29  31
ENDBRANCH  28  29
ENDBRANCH   1  28
TORSDOF 13
