REMARK  Name = DB05407
REMARK                            x       y       z     vdW  Elec       q    Type
REMARK                         _______ _______ _______ _____ _____    ______ ____
ROOT
ATOM      1  C   LIG    1        1.603  -0.140  -0.138  0.00  0.00    +0.101 A 
ATOM      2  S   LIG    1        2.469  -1.645  -0.370  0.00  0.00    -0.090 S 
ATOM      3  C   LIG    1        3.979  -0.794  -0.479  0.00  0.00    +0.048 A 
ATOM      4  C   LIG    1        3.817   0.570  -0.307  0.00  0.00    +0.037 A 
ATOM      5  C   LIG    1        2.481   0.962  -0.110  0.00  0.00    +0.128 A 
ENDROOT
BRANCH   1   8
ATOM      6  N   LIG    1       -0.497  -1.019  -0.700  0.00  0.00    -0.280 N 
ATOM      7  H   LIG    1        0.035  -1.575  -1.353  0.00  0.00    +0.155 HD
ATOM      8  C   LIG    1        0.181  -0.172   0.104  0.00  0.00    +0.257 C 
ATOM      9  O   LIG    1       -0.340   0.527   0.976  0.00  0.00    -0.269 OA
BRANCH   6  10
ATOM     10  C   LIG    1       -1.849  -1.369  -0.533  0.00  0.00    +0.047 A 
ATOM     11  C   LIG    1       -2.853  -0.427  -0.852  0.00  0.00    -0.028 A 
ATOM     12  C   LIG    1       -2.533   0.953  -1.419  0.00  0.00    +0.046 C 
ATOM     13  C   LIG    1       -4.196  -0.765  -0.681  0.00  0.00    +0.008 A 
ATOM     14  C   LIG    1       -4.558  -2.024  -0.214  0.00  0.00    -0.049 A 
ATOM     15  C   LIG    1       -6.022  -2.373  -0.016  0.00  0.00    +0.044 C 
ATOM     16  C   LIG    1       -3.569  -2.960   0.083  0.00  0.00    +0.016 A 
ATOM     17  C   LIG    1       -2.202  -2.668  -0.076  0.00  0.00    +0.039 A 
BRANCH  17  18
ATOM     18  C   LIG    1       -1.184  -3.746   0.243  0.00  0.00    +0.162 C 
ATOM     19  O   LIG    1        0.033  -3.623   0.094  0.00  0.00    -0.292 OA
ATOM     20  C   LIG    1       -1.683  -5.085   0.796  0.00  0.00    +0.091 C 
ENDBRANCH  17  18
ENDBRANCH   6  10
ENDBRANCH   1   8
BRANCH   5  21
ATOM     21  S   LIG    1        2.010   2.706   0.143  0.00  0.00    +0.076 S 
ATOM     22  O   LIG    1        3.240   3.455  -0.142  0.00  0.00    -0.150 OA
ATOM     23  O   LIG    1        1.525   2.734   1.527  0.00  0.00    -0.150 OA
BRANCH  21  24
ATOM     24  N   LIG    1        0.883   2.972  -0.910  0.00  0.00    -0.183 N 
ATOM     25  H   LIG    1        0.595   2.229  -1.489  0.00  0.00    +0.177 HD
BRANCH  24  26
ATOM     26  C   LIG    1        0.293   4.170  -1.057  0.00  0.00    +0.240 A 
ATOM     27  C   LIG    1       -0.678   4.635  -1.936  0.00  0.00    +0.035 A 
ATOM     28  C   LIG    1       -1.344   3.883  -3.068  0.00  0.00    +0.051 C 
ATOM     29  C   LIG    1       -0.829   5.989  -1.604  0.00  0.00    +0.085 A 
ATOM     30  C   LIG    1       -1.722   7.029  -2.243  0.00  0.00    +0.069 C 
ATOM     31  N   LIG    1       -0.073   6.341  -0.592  0.00  0.00    -0.081 NA
ATOM     32  O   LIG    1        0.640   5.201  -0.241  0.00  0.00    -0.338 OA
ENDBRANCH  24  26
ENDBRANCH  21  24
ENDBRANCH   5  21
TORSDOF 6
