REMARK  Name = DB05185
REMARK                            x       y       z     vdW  Elec       q    Type
REMARK                         _______ _______ _______ _____ _____    ______ ____
ROOT
ATOM      1  C   LIG    1        2.271  -1.050   0.094  0.00  0.00    -0.002 C 
ATOM      2  C   LIG    1        3.827  -1.112  -0.083  0.00  0.00    -0.026 C 
ATOM      3  C   LIG    1        3.977  -2.573  -0.584  0.00  0.00    -0.001 C 
ATOM      4  C   LIG    1        5.443  -2.945  -0.947  0.00  0.00    -0.003 C 
ATOM      5  C   LIG    1        6.353  -2.783   0.312  0.00  0.00    +0.002 C 
ATOM      6  C   LIG    1        7.867  -3.150   0.042  0.00  0.00    -0.007 C 
ATOM      7  C   LIG    1        7.952  -4.515  -0.694  0.00  0.00    -0.062 C 
ATOM      8  C   LIG    1        8.855  -5.467  -0.364  0.00  0.00    +0.026 C 
ATOM      9  C   LIG    1        9.889  -5.375   0.628  0.00  0.00    +0.080 C 
ATOM     10  N   LIG    1       10.696  -6.351   0.802  0.00  0.00    -0.092 NA
ATOM     11  C   LIG    1        9.967  -4.025   1.380  0.00  0.00    +0.059 C 
ATOM     12  C   LIG    1        6.999  -4.706  -1.877  0.00  0.00    +0.031 C 
ATOM     13  C   LIG    1        8.608  -3.290   1.409  0.00  0.00    +0.017 C 
ATOM     14  C   LIG    1        8.588  -2.094  -0.838  0.00  0.00    +0.016 C 
ATOM     15  C   LIG    1        6.151  -1.387   0.985  0.00  0.00    +0.005 C 
ATOM     16  C   LIG    1        5.559  -4.392  -1.455  0.00  0.00    +0.008 C 
ATOM     17  C   LIG    1        2.880  -2.750  -1.634  0.00  0.00    +0.004 C 
ATOM     18  C   LIG    1        4.661  -1.045   1.230  0.00  0.00    +0.007 C 
ATOM     19  C   LIG    1        4.308  -0.047  -1.121  0.00  0.00    +0.012 C 
ATOM     20  C   LIG    1        1.735  -1.865  -1.119  0.00  0.00    +0.004 C 
ENDROOT
BRANCH   1  21
ATOM     21  C   LIG    1        1.583   0.352   0.244  0.00  0.00    -0.010 C 
ATOM     22  C   LIG    1        2.163   1.189   1.407  0.00  0.00    +0.008 C 
BRANCH  21  23
ATOM     23  C   LIG    1        0.037   0.222   0.382  0.00  0.00    +0.003 C 
BRANCH  23  24
ATOM     24  C   LIG    1       -0.750   1.538   0.202  0.00  0.00    +0.001 C 
BRANCH  24  25
ATOM     25  C   LIG    1       -2.277   1.326   0.167  0.00  0.00    +0.003 C 
BRANCH  25  27
ATOM     26  C   LIG    1       -2.961   3.670   0.985  0.00  0.00    +0.007 C 
ATOM     27  C   LIG    1       -3.100   2.606  -0.122  0.00  0.00    -0.017 C 
ATOM     28  C   LIG    1       -4.582   2.268  -0.367  0.00  0.00    +0.007 C 
ENDBRANCH  25  27
ENDBRANCH  24  25
ENDBRANCH  23  24
ENDBRANCH  21  23
ENDBRANCH   1  21
BRANCH  10  29
ATOM     29  O   LIG    1       11.705  -6.125   1.756  0.00  0.00    -0.409 OA
ATOM     30  H   LIG    1       12.187  -6.955   1.739  0.00  0.00    +0.328 HD
ENDBRANCH  10  29
TORSDOF 6
