REMARK  Name = DB05223
REMARK                            x       y       z     vdW  Elec       q    Type
REMARK                         _______ _______ _______ _____ _____    ______ ____
ROOT
ATOM      1  C   LIG    1       -0.709   1.253  -0.602  0.00  0.00    +0.111 A 
ATOM      2  N   LIG    1        0.054   0.131  -0.320  0.00  0.00    -0.329 N 
ATOM      3  C   LIG    1       -0.835  -0.902  -0.087  0.00  0.00    +0.069 A 
ATOM      4  C   LIG    1       -0.682  -2.250   0.251  0.00  0.00    +0.028 A 
ATOM      5  C   LIG    1       -1.853  -2.996   0.400  0.00  0.00    +0.010 A 
ATOM      6  C   LIG    1       -3.131  -2.447   0.228  0.00  0.00    -0.023 A 
ATOM      7  C   LIG    1       -3.266  -1.091  -0.107  0.00  0.00    +0.037 A 
ATOM      8  C   LIG    1       -2.109  -0.315  -0.263  0.00  0.00    +0.090 A 
ATOM      9  N   LIG    1       -1.999   1.012  -0.573  0.00  0.00    -0.232 NA
ENDROOT
BRANCH   6  10
ATOM     10  C   LIG    1       -4.301  -3.336   0.406  0.00  0.00    +0.013 C 
ATOM     11  C   LIG    1       -5.602  -3.001   0.255  0.00  0.00    +0.070 C 
BRANCH  11  12
ATOM     12  C   LIG    1       -6.684  -3.955   0.453  0.00  0.00    +0.259 C 
ATOM     13  N   LIG    1       -7.960  -3.538   0.295  0.00  0.00    -0.194 N 
ATOM     14  H   LIG    1       -8.794  -4.093   0.429  0.00  0.00    +0.183 HD
ATOM     15  O   LIG    1       -6.472  -5.130   0.755  0.00  0.00    -0.269 OA
BRANCH  13  16
ATOM     16  O   LIG    1       -8.254  -2.200  -0.001  0.00  0.00    -0.295 OA
ATOM     17  H   LIG    1       -8.636  -1.873   0.818  0.00  0.00    +0.241 HD
ENDBRANCH  13  16
ENDBRANCH  11  12
ENDBRANCH   6  10
BRANCH   1  18
ATOM     18  C   LIG    1       -0.094   2.625  -0.875  0.00  0.00    +0.074 C 
BRANCH  18  19
ATOM     19  C   LIG    1       -1.079   3.719  -1.348  0.00  0.00    +0.007 C 
BRANCH  19  21
ATOM     20  C   LIG    1       -2.587   4.612  -3.219  0.00  0.00    +0.004 C 
ATOM     21  C   LIG    1       -1.634   3.497  -2.769  0.00  0.00    -0.003 C 
ENDBRANCH  19  21
ENDBRANCH  18  19
ENDBRANCH   1  18
BRANCH   2  22
ATOM     22  C   LIG    1        1.508   0.051  -0.219  0.00  0.00    +0.105 C 
BRANCH  22  23
ATOM     23  C   LIG    1        1.944   0.291   1.244  0.00  0.00    -0.057 C 
BRANCH  23  24
ATOM     24  N   LIG    1        3.483   0.227   1.428  0.00  0.00    +0.380 N 
ATOM     25  H   LIG    1        3.636   0.350   2.419  0.00  0.00    -0.082 HD
BRANCH  24  26
ATOM     26  C   LIG    1        4.193   1.425   0.746  0.00  0.00    -0.082 C 
ATOM     27  C   LIG    1        5.606   1.640   1.311  0.00  0.00    -0.017 C 
ENDBRANCH  24  26
BRANCH  24  28
ATOM     28  C   LIG    1        4.124  -1.138   1.060  0.00  0.00    -0.082 C 
ATOM     29  C   LIG    1        3.477  -2.306   1.824  0.00  0.00    -0.017 C 
ENDBRANCH  24  28
ENDBRANCH  23  24
ENDBRANCH  22  23
ENDBRANCH   2  22
TORSDOF 11
