REMARK  Name = DB05412
REMARK                            x       y       z     vdW  Elec       q    Type
REMARK                         _______ _______ _______ _____ _____    ______ ____
ROOT
ATOM      1  C   LIG    1        1.114   1.726   3.276  0.00  0.00    -0.012 C 
ATOM      2  C   LIG    1        1.509   0.257   3.561  0.00  0.00    -0.054 C 
ATOM      3  N   LIG    1        3.033   0.088   3.787  0.00  0.00    +0.386 N 
ATOM      4  H   LIG    1        3.171  -0.886   4.018  0.00  0.00    -0.081 HD
ATOM      5  C   LIG    1        3.826   0.357   2.484  0.00  0.00    -0.055 C 
ATOM      6  C   LIG    1        3.317  -0.511   1.296  0.00  0.00    +0.057 C 
ATOM      7  N   LIG    1        1.832  -0.440   1.225  0.00  0.00    -0.298 N 
ATOM      8  C   LIG    1        1.217  -0.229   0.025  0.00  0.00    +0.248 C 
ATOM      9  O   LIG    1        1.826  -0.048  -1.031  0.00  0.00    -0.270 OA
ATOM     10  C   LIG    1        3.845  -1.958   1.367  0.00  0.00    +0.026 C 
ATOM     11  C   LIG    1        1.086  -0.746   2.468  0.00  0.00    +0.093 C 
ENDROOT
BRANCH   8  12
ATOM     12  C   LIG    1       -0.289  -0.210  -0.018  0.00  0.00    +0.056 A 
ATOM     13  C   LIG    1       -1.006   0.997  -0.019  0.00  0.00    +0.055 A 
ATOM     14 CL   LIG    1       -0.204   2.535   0.017  0.00  0.00    -0.083 Cl
ATOM     15  C   LIG    1       -2.400   1.013  -0.052  0.00  0.00    +0.047 A 
ATOM     16  C   LIG    1       -3.068  -0.217  -0.085  0.00  0.00    +0.051 A 
ATOM     17  N   LIG    1       -4.422  -0.497  -0.128  0.00  0.00    -0.349 N 
ATOM     18  C   LIG    1       -4.593  -1.858  -0.135  0.00  0.00    +0.098 A 
ATOM     19  C   LIG    1       -3.376  -2.512  -0.103  0.00  0.00    +0.052 A 
ATOM     20  C   LIG    1       -5.498   0.482  -0.134  0.00  0.00    +0.149 C 
ATOM     21  C   LIG    1       -2.372  -1.467  -0.080  0.00  0.00    +0.012 A 
ATOM     22  C   LIG    1       -0.966  -1.433  -0.055  0.00  0.00    +0.025 A 
BRANCH  19  23
ATOM     23  C   LIG    1       -3.224  -3.973  -0.092  0.00  0.00    +0.249 C 
ATOM     24  O   LIG    1       -4.181  -4.747  -0.134  0.00  0.00    -0.282 OA
BRANCH  23  25
ATOM     25  C   LIG    1       -1.782  -4.601  -0.002  0.00  0.00    +0.287 C 
ATOM     26  O   LIG    1       -1.267  -4.716   1.113  0.00  0.00    -0.266 OA
ATOM     27  N   LIG    1       -1.210  -4.965  -1.183  0.00  0.00    -0.301 N 
ATOM     28  C   LIG    1       -1.781  -4.819  -2.530  0.00  0.00    +0.132 C 
ATOM     29  C   LIG    1        0.125  -5.570  -1.209  0.00  0.00    +0.132 C 
ENDBRANCH  23  25
ENDBRANCH  19  23
ENDBRANCH   8  12
BRANCH   3  30
ATOM     30  C   LIG    1        3.565   0.919   4.979  0.00  0.00    -0.042 C 
BRANCH  30  31
ATOM     31  C   LIG    1        4.982   0.562   5.404  0.00  0.00    -0.064 A 
ATOM     32  C   LIG    1        5.202  -0.549   6.224  0.00  0.00    +0.004 A 
ATOM     33  C   LIG    1        6.496  -0.870   6.625  0.00  0.00    +0.038 A 
ATOM     34  C   LIG    1        7.565  -0.078   6.212  0.00  0.00    +0.123 A 
ATOM     35  F   LIG    1        8.822  -0.391   6.602  0.00  0.00    -0.205 F 
ATOM     36  C   LIG    1        7.351   1.036   5.403  0.00  0.00    +0.038 A 
ATOM     37  C   LIG    1        6.057   1.359   5.001  0.00  0.00    +0.004 A 
ENDBRANCH  30  31
ENDBRANCH   3  30
TORSDOF 5
