REMARK  Name = DB05421
REMARK                            x       y       z     vdW  Elec       q    Type
REMARK                         _______ _______ _______ _____ _____    ______ ____
ROOT
ATOM      1  N   LIG    1       -0.849   1.005  -0.387  0.00  0.00    -0.310 NA
ATOM      2  H   LIG    1       -0.866   1.610   0.422  0.00  0.00    +0.122 HD
ENDROOT
BRANCH   1   4
ATOM      3  C   LIG    1       -1.934   2.285  -2.201  0.00  0.00    +0.015 C 
ATOM      4  C   LIG    1       -0.596   1.754  -1.619  0.00  0.00    +0.044 C 
ATOM      5  C   LIG    1        0.560   2.817  -1.555  0.00  0.00    -0.024 C 
ATOM      6  N   LIG    1        0.594   3.711  -2.812  0.00  0.00    +0.385 N 
ATOM      7  H   LIG    1        1.241   4.467  -2.634  0.00  0.00    -0.085 HD
ATOM      8  H   LIG    1        0.995   3.194  -3.581  0.00  0.00    -0.085 HD
ATOM      9  C   LIG    1       -0.762   4.317  -3.202  0.00  0.00    -0.082 C 
ATOM     10  C   LIG    1       -1.748   3.167  -3.447  0.00  0.00    -0.018 C 
BRANCH   5  11
ATOM     11  C   LIG    1        0.688   3.695  -0.299  0.00  0.00    -0.060 A 
ATOM     12  C   LIG    1        1.961   3.930   0.236  0.00  0.00    +0.002 A 
ATOM     13  C   LIG    1        2.112   4.691   1.392  0.00  0.00    +0.000 A 
ATOM     14  C   LIG    1        0.988   5.223   2.018  0.00  0.00    +0.000 A 
ATOM     15  C   LIG    1       -0.283   5.000   1.496  0.00  0.00    +0.000 A 
ATOM     16  C   LIG    1       -0.434   4.237   0.342  0.00  0.00    +0.002 A 
ENDBRANCH   5  11
ENDBRANCH   1   4
BRANCH   1  17
ATOM     17  C   LIG    1       -0.026  -0.177  -0.136  0.00  0.00    +0.120 C 
BRANCH  17  18
ATOM     18  C   LIG    1        1.453   0.129   0.082  0.00  0.00    +0.011 A 
ATOM     19  C   LIG    1        2.399  -0.088  -0.933  0.00  0.00    +0.125 A 
ATOM     20  C   LIG    1        3.744   0.225  -0.675  0.00  0.00    +0.049 A 
ATOM     21  C   LIG    1        4.135   0.743   0.558  0.00  0.00    +0.049 A 
ATOM     22  C   LIG    1        3.191   0.957   1.573  0.00  0.00    +0.131 A 
ATOM     23  C   LIG    1        1.857   0.634   1.321  0.00  0.00    +0.054 A 
BRANCH  19  24
ATOM     24  O   LIG    1        1.945  -0.585  -2.142  0.00  0.00    -0.495 OA
ATOM     25  C   LIG    1        2.868  -0.795  -3.204  0.00  0.00    +0.277 C 
ENDBRANCH  19  24
BRANCH  22  26
ATOM     26  O   LIG    1        3.474   1.483   2.820  0.00  0.00    -0.406 OA
BRANCH  26  27
ATOM     27  C   LIG    1        4.793   1.926   3.137  0.00  0.00    +0.575 C 
ATOM     28  F   LIG    1        5.192   2.906   2.324  0.00  0.00    -0.133 F 
ATOM     29  F   LIG    1        5.666   0.918   3.131  0.00  0.00    -0.133 F 
ATOM     30  F   LIG    1        4.758   2.422   4.373  0.00  0.00    -0.133 F 
ENDBRANCH  26  27
ENDBRANCH  22  26
ENDBRANCH  17  18
ENDBRANCH   1  17
TORSDOF 7
