REMARK  Name = DB05869
REMARK                            x       y       z     vdW  Elec       q    Type
REMARK                         _______ _______ _______ _____ _____    ______ ____
ROOT
ATOM      1  C   LIG    1       -0.446   1.204  -0.449  0.00  0.00    +0.375 C 
ATOM      2  O   LIG    1        0.101   2.300  -0.605  0.00  0.00    -0.242 OA
ENDROOT
BRANCH   1   3
ATOM      3  C   LIG    1       -1.989   1.008  -0.573  0.00  0.00    +0.236 C 
ATOM      4  C   LIG    1       -2.790   2.266  -0.906  0.00  0.00    +0.099 C 
ATOM      5  O   LIG    1       -2.543  -0.081  -0.415  0.00  0.00    -0.285 OA
ENDBRANCH   1   3
BRANCH   1   6
ATOM      6  O   LIG    1        0.167   0.034  -0.158  0.00  0.00    -0.459 OA
BRANCH   6   7
ATOM      7  C   LIG    1        1.578  -0.022   0.001  0.00  0.00    +0.229 C 
ATOM      8  C   LIG    1        1.998  -1.460   0.324  0.00  0.00    +0.048 C 
ENDBRANCH   6   7
ENDBRANCH   1   6
TORSDOF 3
