REMARK  Name = DB05212
REMARK                            x       y       z     vdW  Elec       q    Type
REMARK                         _______ _______ _______ _____ _____    ______ ____
ROOT
ATOM      1  C   LIG    1       -0.163   1.432   2.615  0.00  0.00    +0.005 C 
ATOM      2  C   LIG    1        0.199  -0.092   2.527  0.00  0.00    +0.029 C 
ATOM      3  C   LIG    1       -0.274  -0.848   3.804  0.00  0.00    +0.141 C 
ATOM      4  C   LIG    1       -0.027  -0.036   5.064  0.00  0.00    +0.004 C 
ATOM      5  C   LIG    1        0.314   1.268   5.125  0.00  0.00    -0.062 C 
ATOM      6  C   LIG    1        0.601   1.940   6.474  0.00  0.00    +0.062 C 
ATOM      7  C   LIG    1       -0.203   3.244   6.630  0.00  0.00    +0.119 C 
ATOM      8  C   LIG    1        0.030   4.199   5.451  0.00  0.00    +0.032 C 
ATOM      9  C   LIG    1       -0.268   3.507   4.109  0.00  0.00    +0.014 C 
ATOM     10  C   LIG    1       -0.415  -0.722   1.234  0.00  0.00    +0.005 C 
ATOM     11  C   LIG    1       -0.202  -2.214   0.935  0.00  0.00    +0.008 C 
ATOM     12  C   LIG    1       -0.388  -2.355  -0.590  0.00  0.00    +0.049 C 
ATOM     13  C   LIG    1       -0.646  -0.930  -1.164  0.00  0.00    +0.132 C 
ATOM     14  C   LIG    1        0.008   0.005  -0.071  0.00  0.00    +0.011 C 
ATOM     15  C   LIG    1        1.562   0.042  -0.272  0.00  0.00    +0.015 C 
ATOM     16  C   LIG    1       -0.548   1.455   0.049  0.00  0.00    +0.011 C 
ATOM     17  C   LIG    1        0.482   2.156   3.863  0.00  0.00    -0.008 C 
ATOM     18  C   LIG    1        2.001   2.416   3.658  0.00  0.00    +0.016 C 
ATOM     19  C   LIG    1        0.049   2.197   1.265  0.00  0.00    +0.005 C 
ENDROOT
BRANCH   7  20
ATOM     20  O   LIG    1        0.103   3.877   7.855  0.00  0.00    -0.391 OA
ATOM     21  H   LIG    1       -0.696   3.921   8.385  0.00  0.00    +0.210 HD
ENDBRANCH   7  20
BRANCH   3  22
ATOM     22  O   LIG    1        0.359  -2.104   3.942  0.00  0.00    -0.387 OA
ATOM     23  H   LIG    1       -0.046  -2.570   4.677  0.00  0.00    +0.210 HD
ENDBRANCH   3  22
BRANCH  13  24
ATOM     24  C   LIG    1       -2.103  -0.725  -1.384  0.00  0.00    -0.070 C 
ATOM     25  C   LIG    1       -3.303  -0.571  -1.555  0.00  0.00    +0.007 C 
ENDBRANCH  13  24
BRANCH  13  26
ATOM     26  O   LIG    1       -0.060  -0.797  -2.448  0.00  0.00    -0.376 OA
ATOM     27  H   LIG    1       -0.133   0.121  -2.719  0.00  0.00    +0.211 HD
ENDBRANCH  13  26
TORSDOF 4
