REMARK  Name = DB05119
REMARK                            x       y       z     vdW  Elec       q    Type
REMARK                         _______ _______ _______ _____ _____    ______ ____
ROOT
ATOM      1  N   LIG    1        0.231   0.107  -0.282  0.00  0.00    -0.293 N 
ATOM      2  C   LIG    1       -0.597  -0.976  -0.216  0.00  0.00    +0.236 C 
ATOM      3  O   LIG    1       -0.162  -2.130  -0.275  0.00  0.00    -0.274 OA
ENDROOT
BRANCH   1   4
ATOM      4  C   LIG    1        1.705  -0.021  -0.384  0.00  0.00    +0.073 C 
ATOM      5  C   LIG    1        2.406  -0.611   0.867  0.00  0.00    +0.004 C 
ATOM      6  C   LIG    1        3.938  -0.684   0.745  0.00  0.00    -0.077 C 
ATOM      7  N   LIG    1        4.314  -1.448  -0.545  0.00  0.00    +0.381 N 
ATOM      8  H   LIG    1        3.893  -2.366  -0.507  0.00  0.00    -0.082 HD
ATOM      9  C   LIG    1        3.760  -0.718  -1.788  0.00  0.00    -0.077 C 
ATOM     10  C   LIG    1        2.227  -0.650  -1.700  0.00  0.00    +0.004 C 
BRANCH   7  11
ATOM     11  C   LIG    1        5.848  -1.620  -0.683  0.00  0.00    -0.050 C 
BRANCH  11  12
ATOM     12  C   LIG    1        6.434  -2.539   0.415  0.00  0.00    +0.141 C 
BRANCH  12  13
ATOM     13  O   LIG    1        5.678  -3.727   0.637  0.00  0.00    -0.385 OA
ATOM     14  C   LIG    1        5.720  -4.676  -0.421  0.00  0.00    +0.193 C 
ENDBRANCH  12  13
ENDBRANCH  11  12
ENDBRANCH   7  11
ENDBRANCH   1   4
BRANCH   1  15
ATOM     15  C   LIG    1       -0.239   1.498  -0.129  0.00  0.00    +0.143 C 
BRANCH  15  21
ATOM     16  C   LIG    1        0.673   3.382   1.283  0.00  0.00    +0.006 A 
ATOM     17  C   LIG    1        0.963   3.963   2.514  0.00  0.00    +0.009 A 
ATOM     18  C   LIG    1        0.644   3.305   3.709  0.00  0.00    -0.018 A 
ATOM     19  C   LIG    1        0.022   2.052   3.642  0.00  0.00    +0.009 A 
ATOM     20  C   LIG    1       -0.268   1.468   2.414  0.00  0.00    +0.006 A 
ATOM     21  C   LIG    1        0.061   2.129   1.228  0.00  0.00    -0.030 A 
BRANCH  18  22
ATOM     22  C   LIG    1        0.962   3.924   5.027  0.00  0.00    -0.018 A 
ATOM     23  C   LIG    1        1.472   3.147   6.075  0.00  0.00    +0.009 A 
ATOM     24  C   LIG    1        1.768   3.720   7.308  0.00  0.00    +0.013 A 
ATOM     25  C   LIG    1        1.560   5.088   7.516  0.00  0.00    +0.055 A 
ATOM     26  C   LIG    1        1.052   5.869   6.475  0.00  0.00    +0.013 A 
ATOM     27  C   LIG    1        0.757   5.292   5.243  0.00  0.00    +0.009 A 
BRANCH  25  28
ATOM     28  C   LIG    1        1.877   5.741   8.860  0.00  0.00    +0.417 C 
ATOM     29  F   LIG    1        0.742   6.135   9.437  0.00  0.00    -0.166 F 
ATOM     30  F   LIG    1        2.658   6.806   8.677  0.00  0.00    -0.166 F 
ATOM     31  F   LIG    1        2.502   4.909   9.695  0.00  0.00    -0.166 F 
ENDBRANCH  25  28
ENDBRANCH  18  22
ENDBRANCH  15  21
ENDBRANCH   1  15
BRANCH   2  32
ATOM     32  C   LIG    1       -2.125  -0.752  -0.061  0.00  0.00    +0.218 C 
BRANCH  32  33
ATOM     33  N   LIG    1       -2.890  -2.019   0.070  0.00  0.00    -0.326 N 
ATOM     34  C   LIG    1       -3.222  -2.555   1.331  0.00  0.00    +0.081 A 
ATOM     35  C   LIG    1       -3.852  -3.738   1.479  0.00  0.00    +0.084 A 
ATOM     36  C   LIG    1       -4.297  -4.566   0.370  0.00  0.00    +0.190 A 
ATOM     37  O   LIG    1       -4.900  -5.630   0.511  0.00  0.00    -0.287 OA
ATOM     38  C   LIG    1       -3.937  -3.991  -0.971  0.00  0.00    +0.045 A 
ATOM     39  C   LIG    1       -4.295  -4.710  -2.124  0.00  0.00    +0.014 A 
ATOM     40  C   LIG    1       -3.969  -4.243  -3.392  0.00  0.00    +0.001 A 
ATOM     41  C   LIG    1       -3.272  -3.050  -3.531  0.00  0.00    +0.002 A 
ATOM     42  C   LIG    1       -2.909  -2.320  -2.404  0.00  0.00    +0.026 A 
ATOM     43  C   LIG    1       -3.240  -2.761  -1.107  0.00  0.00    +0.054 A 
BRANCH  34  44
ATOM     44  S   LIG    1       -2.738  -1.653   2.807  0.00  0.00    -0.103 S 
BRANCH  44  45
ATOM     45  C   LIG    1       -4.038  -0.383   2.964  0.00  0.00    +0.114 C 
BRANCH  45  46
ATOM     46  C   LIG    1       -5.421  -0.997   3.141  0.00  0.00    +0.001 A 
ATOM     47  C   LIG    1       -6.250  -1.241   2.036  0.00  0.00    +0.162 A 
ATOM     48  F   LIG    1       -5.844  -0.917   0.785  0.00  0.00    -0.202 F 
ATOM     49  C   LIG    1       -7.507  -1.823   2.218  0.00  0.00    +0.159 A 
ATOM     50  F   LIG    1       -8.304  -2.066   1.153  0.00  0.00    -0.202 F 
ATOM     51  C   LIG    1       -7.944  -2.156   3.500  0.00  0.00    +0.041 A 
ATOM     52  C   LIG    1       -7.127  -1.907   4.602  0.00  0.00    +0.003 A 
ATOM     53  C   LIG    1       -5.871  -1.329   4.423  0.00  0.00    +0.007 A 
ENDBRANCH  45  46
ENDBRANCH  44  45
ENDBRANCH  34  44
ENDBRANCH  32  33
ENDBRANCH   2  32
TORSDOF 13
