REMARK  Name = DB05592
REMARK                            x       y       z     vdW  Elec       q    Type
REMARK                         _______ _______ _______ _____ _____    ______ ____
ROOT
ATOM      1  C   LIG    1        1.461  -0.021  -0.165  0.00  0.00    +0.016 C 
ATOM      2  C   LIG    1        1.995  -1.490  -0.168  0.00  0.00    +0.120 C 
ATOM      3  O   LIG    1        1.940  -1.670   1.258  0.00  0.00    -0.364 OA
ATOM      4  C   LIG    1        2.471  -0.532   1.944  0.00  0.00    +0.162 C 
ATOM      5  C   LIG    1        2.290   0.614   0.950  0.00  0.00    +0.033 C 
ENDROOT
BRANCH   2   6
ATOM      6  C   LIG    1        3.438  -1.684  -0.691  0.00  0.00    -0.011 A 
ATOM      7  C   LIG    1        3.911  -0.979  -1.808  0.00  0.00    +0.007 A 
ATOM      8  C   LIG    1        5.217  -1.161  -2.256  0.00  0.00    +0.000 A 
ATOM      9  C   LIG    1        6.058  -2.049  -1.591  0.00  0.00    +0.000 A 
ATOM     10  C   LIG    1        5.603  -2.758  -0.483  0.00  0.00    +0.000 A 
ATOM     11  C   LIG    1        4.298  -2.576  -0.036  0.00  0.00    +0.007 A 
ENDBRANCH   2   6
BRANCH   2  12
ATOM     12  C   LIG    1        1.081  -2.486  -0.904  0.00  0.00    -0.011 A 
ATOM     13  C   LIG    1        0.581  -3.619  -0.249  0.00  0.00    +0.007 A 
ATOM     14  C   LIG    1       -0.252  -4.509  -0.922  0.00  0.00    +0.000 A 
ATOM     15  C   LIG    1       -0.588  -4.270  -2.252  0.00  0.00    +0.000 A 
ATOM     16  C   LIG    1       -0.099  -3.147  -2.915  0.00  0.00    +0.000 A 
ATOM     17  C   LIG    1        0.733  -2.257  -2.242  0.00  0.00    +0.007 A 
ENDBRANCH   2  12
BRANCH   1  18
ATOM     18  C   LIG    1       -0.079   0.095   0.067  0.00  0.00    -0.073 C 
BRANCH  18  20
ATOM     19  C   LIG    1       -2.027   1.608   0.711  0.00  0.00    -0.097 C 
ATOM     20  N   LIG    1       -0.556   1.556   0.253  0.00  0.00    +0.376 N 
ATOM     21  H   LIG    1       -0.004   1.953   1.001  0.00  0.00    -0.083 HD
ATOM     22  C   LIG    1       -0.338   2.434  -0.996  0.00  0.00    -0.097 C 
ENDBRANCH  18  20
ENDBRANCH   1  18
TORSDOF 4
