REMARK  Name = DB05560
REMARK                            x       y       z     vdW  Elec       q    Type
REMARK                         _______ _______ _______ _____ _____    ______ ____
ROOT
ATOM      1  C   GLY A  3        1.235   0.335  -0.904  0.00  0.00    +0.205 C 
ATOM      2  N   ARG A  4        0.202   0.850  -1.459  0.00  0.00    -0.240 NA
ENDROOT
BRANCH   1   3
ATOM      3  O   GLY A  3        2.459   0.431  -1.515  0.00  0.00    -0.494 OA
ATOM      4  H   GLY A  3        3.134   0.033  -0.960  0.00  0.00    +0.293 HD
ENDBRANCH   1   3
BRANCH   2   5
ATOM      5  CA  ARG A  4       -1.137   0.760  -0.870  0.00  0.00    +0.193 C 
BRANCH   5   6
ATOM      6  C   ARG A  4       -2.106   0.151  -1.905  0.00  0.00    +0.209 C 
ATOM      7  N   LYS A  5       -2.217   0.624  -3.090  0.00  0.00    -0.240 NA
BRANCH   6   8
ATOM      8  O   ARG A  4       -2.782  -0.955  -1.438  0.00  0.00    -0.494 OA
ATOM      9  H   ARG A  4       -2.543  -1.124  -0.524  0.00  0.00    +0.293 HD
ENDBRANCH   6   8
BRANCH   7  10
ATOM     10  CA  LYS A  5       -2.965  -0.079  -4.141  0.00  0.00    +0.193 C 
BRANCH  10  11
ATOM     11  C   LYS A  5       -1.955  -0.581  -5.190  0.00  0.00    +0.209 C 
ATOM     12  N   LYS A  6       -1.105   0.215  -5.722  0.00  0.00    -0.240 NA
BRANCH  11  13
ATOM     13  O   LYS A  5       -2.014  -1.938  -5.422  0.00  0.00    -0.494 OA
ATOM     14  H   LYS A  5       -2.725  -2.328  -4.909  0.00  0.00    +0.293 HD
ENDBRANCH  11  13
BRANCH  12  15
ATOM     15  CA  LYS A  6        0.058  -0.259  -6.470  0.00  0.00    +0.193 C 
BRANCH  15  16
ATOM     16  C   LYS A  6        1.303   0.105  -5.631  0.00  0.00    +0.209 C 
ATOM     17  N   ARG A  7        2.200   0.929  -6.032  0.00  0.00    -0.240 NA
BRANCH  16  18
ATOM     18  O   LYS A  6        1.344  -0.549  -4.416  0.00  0.00    -0.494 OA
ATOM     19  H   LYS A  6        0.570  -1.107  -4.320  0.00  0.00    +0.293 HD
ENDBRANCH  16  18
BRANCH  17  20
ATOM     20  CA  ARG A  7        3.243   1.419  -5.127  0.00  0.00    +0.193 C 
BRANCH  20  21
ATOM     21  C   ARG A  7        3.378   2.951  -5.341  0.00  0.00    +0.209 C 
ATOM     22  N   ARG A  8        2.560   3.861  -4.964  0.00  0.00    -0.240 NA
BRANCH  21  23
ATOM     23  O   ARG A  7        4.492   3.343  -6.045  0.00  0.00    -0.494 OA
ATOM     24  H   ARG A  7        4.490   4.297  -6.153  0.00  0.00    +0.293 HD
ENDBRANCH  21  23
BRANCH  22  25
ATOM     25  CA  ARG A  8        1.301   3.599  -4.266  0.00  0.00    +0.193 C 
BRANCH  25  26
ATOM     26  C   ARG A  8        0.066   3.950  -5.143  0.00  0.00    +0.209 C 
ATOM     27  N   GLY A  9       -0.098   4.880  -6.011  0.00  0.00    -0.240 NA
BRANCH  26  28
ATOM     28  O   ARG A  8       -0.981   3.095  -4.919  0.00  0.00    -0.494 OA
ATOM     29  H   ARG A  8       -0.743   2.447  -4.252  0.00  0.00    +0.293 HD
ENDBRANCH  26  28
BRANCH  27  30
ATOM     30  CA  GLY A  9        0.821   5.997  -6.224  0.00  0.00    +0.194 C 
BRANCH  30  31
ATOM     31  C   GLY A  9        0.022   7.313  -6.206  0.00  0.00    +0.209 C 
ATOM     32  N   SER A 10        0.347   8.254  -5.399  0.00  0.00    -0.240 NA
BRANCH  31  33
ATOM     33  O   GLY A  9       -1.054   7.359  -7.069  0.00  0.00    -0.494 OA
ATOM     34  H   GLY A  9       -1.141   6.517  -7.522  0.00  0.00    +0.293 HD
ENDBRANCH  31  33
BRANCH  32  35
ATOM     35  CA  SER A 10       -0.459   9.472  -5.268  0.00  0.00    +0.193 C 
BRANCH  35  36
ATOM     36  C   SER A 10        0.458  10.703  -5.347  0.00  0.00    +0.209 C 
ATOM     37  N   LEU A 11        0.203  11.637  -6.183  0.00  0.00    -0.240 NA
BRANCH  36  38
ATOM     38  O   SER A 10        1.510  10.708  -4.453  0.00  0.00    -0.494 OA
ATOM     39  H   SER A 10        1.506   9.896  -3.939  0.00  0.00    +0.293 HD
ENDBRANCH  36  38
BRANCH  37  40
ATOM     40  CA  LEU A 11        1.038  12.837  -6.300  0.00  0.00    +0.193 C 
BRANCH  40  41
ATOM     41  C   LEU A 11        0.260  14.085  -5.829  0.00  0.00    +0.209 C 
ATOM     42  N   ARG A 12       -0.975  14.269  -6.122  0.00  0.00    -0.238 NA
BRANCH  41  43
ATOM     43  O   LEU A 11        1.020  14.955  -5.078  0.00  0.00    -0.494 OA
ATOM     44  H   LEU A 11        1.911  14.613  -4.982  0.00  0.00    +0.293 HD
ENDBRANCH  41  43
BRANCH  42  45
ATOM     45  CA  ARG A 12       -1.710  15.464  -5.632  0.00  0.00    +0.217 C 
BRANCH  45  46
ATOM     46  C   ARG A 12       -2.422  15.136  -4.299  0.00  0.00    +0.330 C 
ATOM     47  O   ARG A 12       -3.075  14.107  -4.125  0.00  0.00    -0.249 OA
BRANCH  46  48
ATOM     48  OXT ARG A 12       -2.245  16.124  -3.374  0.00  0.00    -0.479 OA
ATOM     49  HXT ARG A 12       -2.688  15.930  -2.545  0.00  0.00    +0.295 HD
ENDBRANCH  46  48
ENDBRANCH  45  46
BRANCH  45  50
ATOM     50  CB  ARG A 12       -2.736  15.938  -6.690  0.00  0.00    +0.041 C 
BRANCH  50  51
ATOM     51  CG  ARG A 12       -2.082  16.559  -7.943  0.00  0.00    +0.039 C 
BRANCH  51  52
ATOM     52  CD  ARG A 12       -3.082  16.981  -9.034  0.00  0.00    +0.196 C 
BRANCH  52  53
ATOM     53  NE  ARG A 12       -3.717  15.834  -9.674  0.00  0.00    -0.276 N 
ATOM     54  HE  ARG A 12       -3.108  15.331 -10.304  0.00  0.00    +0.258 HD
BRANCH  53  55
ATOM     55  CZ  ARG A 12       -4.940  15.218  -9.418  0.00  0.00    +0.376 C 
ATOM     56  NH1 ARG A 12       -5.349  14.223 -10.071  0.00  0.00    -0.130 NA
ATOM     57  HH1 ARG A 12       -4.700  13.919 -10.783  0.00  0.00    +0.306 HD
BRANCH  55  58
ATOM     58  NH2 ARG A 12       -5.688  15.804  -8.410  0.00  0.00    -0.289 N 
ATOM     59 HH21 ARG A 12       -5.536  16.784  -8.225  0.00  0.00    +0.255 HD
ATOM     60 HH22 ARG A 12       -6.650  15.512  -8.316  0.00  0.00    +0.255 HD
ENDBRANCH  55  58
ENDBRANCH  53  55
ENDBRANCH  52  53
ENDBRANCH  51  52
ENDBRANCH  50  51
ENDBRANCH  45  50
ENDBRANCH  42  45
ENDBRANCH  40  41
BRANCH  40  61
ATOM     61  CB  LEU A 11        1.535  12.981  -7.768  0.00  0.00    +0.039 C 
BRANCH  61  62
ATOM     62  CG  LEU A 11        0.448  13.002  -8.870  0.00  0.00    +0.039 C 
BRANCH  62  63
ATOM     63  CD  LEU A 11        1.024  13.177 -10.288  0.00  0.00    +0.196 C 
BRANCH  63  64
ATOM     64  NE  LEU A 11       -0.037  13.132 -11.297  0.00  0.00    -0.276 N 
ATOM     65  HE  LEU A 11       -0.466  12.220 -11.364  0.00  0.00    +0.258 HD
BRANCH  64  66
ATOM     66  CZ  LEU A 11       -0.906  14.239 -11.533  0.00  0.00    +0.376 C 
ATOM     67  NH1 LEU A 11       -2.043  14.093 -12.054  0.00  0.00    -0.130 NA
ATOM     68  HH1 LEU A 11       -2.256  13.130 -12.272  0.00  0.00    +0.306 HD
BRANCH  66  69
ATOM     69  NH2 LEU A 11       -0.415  15.516 -11.170  0.00  0.00    -0.289 N 
ATOM     70 HH21 LEU A 11        0.549  15.658 -10.908  0.00  0.00    +0.255 HD
ATOM     71 HH22 LEU A 11       -0.923  16.359 -11.395  0.00  0.00    +0.255 HD
ENDBRANCH  66  69
ENDBRANCH  64  66
ENDBRANCH  63  64
ENDBRANCH  62  63
ENDBRANCH  61  62
ENDBRANCH  40  61
ENDBRANCH  37  40
ENDBRANCH  35  36
BRANCH  35  72
ATOM     72  CB  SER A 10       -1.230   9.429  -3.919  0.00  0.00    +0.039 C 
BRANCH  72  73
ATOM     73  CG  SER A 10       -2.370   8.387  -3.900  0.00  0.00    +0.039 C 
BRANCH  73  74
ATOM     74  CD  SER A 10       -2.939   8.126  -2.493  0.00  0.00    +0.196 C 
BRANCH  74  75
ATOM     75  NE  SER A 10       -3.931   7.051  -2.508  0.00  0.00    -0.276 N 
ATOM     76  HE  SER A 10       -4.838   7.308  -2.867  0.00  0.00    +0.258 HD
BRANCH  75  77
ATOM     77  CZ  SER A 10       -3.551   5.680  -2.607  0.00  0.00    +0.376 C 
ATOM     78  NH1 SER A 10       -2.370   5.238  -2.585  0.00  0.00    -0.130 NA
ATOM     79  HH1 SER A 10       -1.679   5.967  -2.483  0.00  0.00    +0.306 HD
BRANCH  77  80
ATOM     80  NH2 SER A 10       -4.666   4.830  -2.747  0.00  0.00    -0.289 N 
ATOM     81 HH21 SER A 10       -5.598   5.187  -2.899  0.00  0.00    +0.255 HD
ATOM     82 HH22 SER A 10       -4.558   3.840  -2.918  0.00  0.00    +0.255 HD
ENDBRANCH  77  80
ENDBRANCH  75  77
ENDBRANCH  74  75
ENDBRANCH  73  74
ENDBRANCH  72  73
ENDBRANCH  35  72
ENDBRANCH  32  35
ENDBRANCH  30  31
BRANCH  30  83
ATOM     83  CB  GLY A  9        1.628   5.809  -7.545  0.00  0.00    +0.046 C 
BRANCH  83  84
ATOM     84  CG  GLY A  9        0.826   5.500  -8.838  0.00  0.00    +0.097 C 
BRANCH  84  85
ATOM     85  CD  GLY A  9        1.751   5.224 -10.015  0.00  0.00    +0.180 C 
ATOM     86  NE2 GLY A  9        2.111   4.060 -10.339  0.00  0.00    -0.271 NA
ATOM     87  HE2 GLY A  9        2.727   4.053 -11.139  0.00  0.00    +0.190 HD
BRANCH  85  88
ATOM     88  OE1 GLY A  9        2.180   6.336 -10.692  0.00  0.00    -0.496 OA
ATOM     89  HE1 GLY A  9        1.800   7.126 -10.301  0.00  0.00    +0.293 HD
ENDBRANCH  85  88
ENDBRANCH  84  85
ENDBRANCH  83  84
ENDBRANCH  30  83
ENDBRANCH  27  30
ENDBRANCH  25  26
BRANCH  25  90
ATOM     90  CB  ARG A  8        1.243   4.384  -2.930  0.00  0.00    +0.039 C 
BRANCH  90  91
ATOM     91  CG  ARG A  8        2.418   4.109  -1.965  0.00  0.00    +0.039 C 
BRANCH  91  92
ATOM     92  CD  ARG A  8        2.182   4.575  -0.512  0.00  0.00    +0.196 C 
BRANCH  92  93
ATOM     93  NE  ARG A  8        1.741   5.970  -0.432  0.00  0.00    -0.276 N 
ATOM     94  HE  ARG A  8        0.787   6.092  -0.738  0.00  0.00    +0.258 HD
BRANCH  93  95
ATOM     95  CZ  ARG A  8        2.618   7.065  -0.687  0.00  0.00    +0.376 C 
ATOM     96  NH1 ARG A  8        2.184   8.200  -1.017  0.00  0.00    -0.130 NA
ATOM     97  HH1 ARG A  8        1.176   8.227  -1.077  0.00  0.00    +0.306 HD
BRANCH  95  98
ATOM     98  NH2 ARG A  8        4.002   6.812  -0.530  0.00  0.00    -0.289 N 
ATOM     99 HH21 ARG A  8        4.324   5.988  -0.043  0.00  0.00    +0.255 HD
ATOM    100 HH22 ARG A  8        4.671   7.566  -0.560  0.00  0.00    +0.255 HD
ENDBRANCH  95  98
ENDBRANCH  93  95
ENDBRANCH  92  93
ENDBRANCH  91  92
ENDBRANCH  90  91
ENDBRANCH  25  90
ENDBRANCH  22  25
ENDBRANCH  20  21
BRANCH  20 101
ATOM    101  CB  ARG A  7        4.575   0.638  -5.363  0.00  0.00    +0.039 C 
BRANCH 101 102
ATOM    102  CG  ARG A  7        4.547  -0.838  -4.914  0.00  0.00    +0.039 C 
BRANCH 102 103
ATOM    103  CD  ARG A  7        5.904  -1.547  -5.091  0.00  0.00    +0.196 C 
BRANCH 103 104
ATOM    104  NE  ARG A  7        5.853  -2.918  -4.585  0.00  0.00    -0.276 N 
ATOM    105  HE  ARG A  7        5.805  -3.004  -3.581  0.00  0.00    +0.258 HD
BRANCH 104 106
ATOM    106  CZ  ARG A  7        5.315  -3.983  -5.362  0.00  0.00    +0.376 C 
ATOM    107  NH1 ARG A  7        4.965  -3.909  -6.573  0.00  0.00    -0.130 NA
ATOM    108  HH1 ARG A  7        5.105  -2.989  -6.965  0.00  0.00    +0.306 HD
BRANCH 106 109
ATOM    109  NH2 ARG A  7        5.204  -5.177  -4.619  0.00  0.00    -0.289 N 
ATOM    110 HH21 ARG A  7        5.616  -5.275  -3.703  0.00  0.00    +0.255 HD
ATOM    111 HH22 ARG A  7        4.920  -6.044  -5.053  0.00  0.00    +0.255 HD
ENDBRANCH 106 109
ENDBRANCH 104 106
ENDBRANCH 103 104
ENDBRANCH 102 103
ENDBRANCH 101 102
ENDBRANCH  20 101
ENDBRANCH  17  20
ENDBRANCH  15  16
BRANCH  15 112
ATOM    112  CB  LYS A  6        0.052   0.390  -7.884  0.00  0.00    +0.036 C 
BRANCH 112 113
ATOM    113  CG  LYS A  6       -1.136  -0.035  -8.773  0.00  0.00    +0.004 C 
BRANCH 113 114
ATOM    114  CD  LYS A  6       -1.059   0.496 -10.221  0.00  0.00    +0.015 C 
BRANCH 114 115
ATOM    115  CE  LYS A  6       -1.066   2.031 -10.369  0.00  0.00    +0.077 C 
BRANCH 115 116
ATOM    116  NZ  LYS A  6       -2.296   2.613  -9.867  0.00  0.00    -0.330 NA
ATOM    117  HZ1 LYS A  6       -3.079   2.264 -10.401  0.00  0.00    +0.118 HD
ATOM    118  HZ2 LYS A  6       -2.279   3.614 -10.002  0.00  0.00    +0.118 HD
ENDBRANCH 115 116
ENDBRANCH 114 115
ENDBRANCH 113 114
ENDBRANCH 112 113
ENDBRANCH  15 112
ENDBRANCH  12  15
ENDBRANCH  10  11
BRANCH  10 119
ATOM    119  CB  LYS A  5       -4.012   0.878  -4.768  0.00  0.00    +0.036 C 
BRANCH 119 120
ATOM    120  CG  LYS A  5       -5.195   1.194  -3.829  0.00  0.00    +0.004 C 
BRANCH 120 121
ATOM    121  CD  LYS A  5       -6.275   2.076  -4.490  0.00  0.00    +0.015 C 
BRANCH 121 122
ATOM    122  CE  LYS A  5       -7.561   2.239  -3.656  0.00  0.00    +0.077 C 
BRANCH 122 123
ATOM    123  NZ  LYS A  5       -7.308   2.898  -2.388  0.00  0.00    -0.330 NA
ATOM    124  HZ1 LYS A  5       -6.690   2.328  -1.829  0.00  0.00    +0.118 HD
ATOM    125  HZ2 LYS A  5       -8.171   2.977  -1.869  0.00  0.00    +0.118 HD
ENDBRANCH 122 123
ENDBRANCH 121 122
ENDBRANCH 120 121
ENDBRANCH 119 120
ENDBRANCH  10 119
ENDBRANCH   7  10
ENDBRANCH   5   6
BRANCH   5 126
ATOM    126  CB  ARG A  4       -1.558   2.175  -0.389  0.00  0.00    +0.039 C 
BRANCH 126 127
ATOM    127  CG  ARG A  4       -2.949   2.253   0.283  0.00  0.00    +0.039 C 
BRANCH 127 128
ATOM    128  CD  ARG A  4       -3.122   3.365   1.342  0.00  0.00    +0.196 C 
BRANCH 128 129
ATOM    129  NE  ARG A  4       -2.868   4.712   0.822  0.00  0.00    -0.276 N 
ATOM    130  HE  ARG A  4       -3.465   4.981   0.054  0.00  0.00    +0.258 HD
BRANCH 129 131
ATOM    131  CZ  ARG A  4       -1.629   5.407   0.963  0.00  0.00    +0.376 C 
ATOM    132  NH1 ARG A  4       -1.420   6.512   0.398  0.00  0.00    -0.130 NA
ATOM    133  HH1 ARG A  4       -2.208   6.824  -0.151  0.00  0.00    +0.306 HD
BRANCH 131 134
ATOM    134  NH2 ARG A  4       -0.644   4.807   1.780  0.00  0.00    -0.289 N 
ATOM    135 HH21 ARG A  4       -0.725   3.850   2.090  0.00  0.00    +0.255 HD
ATOM    136 HH22 ARG A  4        0.288   5.189   1.844  0.00  0.00    +0.255 HD
ENDBRANCH 131 134
ENDBRANCH 129 131
ENDBRANCH 128 129
ENDBRANCH 127 128
ENDBRANCH 126 127
ENDBRANCH   5 126
ENDBRANCH   2   5
BRANCH   1 137
ATOM    137  CA  GLY A  3        1.300  -0.402   0.441  0.00  0.00    +0.240 C 
BRANCH 137 139
ATOM    138  C   TYR A  2        1.868   0.888   2.379  0.00  0.00    +0.204 C 
ATOM    139  N   GLY A  3        0.980   0.506   1.538  0.00  0.00    -0.244 NA
BRANCH 138 140
ATOM    140  O   TYR A  2        3.200   0.536   2.321  0.00  0.00    -0.494 OA
ATOM    141  H   TYR A  2        3.682   0.985   3.021  0.00  0.00    +0.293 HD
ENDBRANCH 138 140
BRANCH 138 142
ATOM    142  CA  TYR A  2        1.529   1.791   3.585  0.00  0.00    +0.162 C 
BRANCH 142 145
ATOM    143  C   CYS A  1        2.938   3.700   3.818  0.00  0.00    +0.231 C 
ATOM    144  O   CYS A  1        3.991   3.143   4.193  0.00  0.00    -0.274 OA
ATOM    145  N   TYR A  2        1.813   3.200   3.273  0.00  0.00    -0.302 N 
ATOM    146  H   TYR A  2        1.220   3.741   2.703  0.00  0.00    +0.150 HD
BRANCH 143 147
ATOM    147  CA  CYS A  1        2.984   5.242   3.998  0.00  0.00    +0.148 C 
BRANCH 147 148
ATOM    148  N   CYS A  1        3.287   5.830   2.682  0.00  0.00    -0.319 NA
ATOM    149  H1  CYS A  1        3.518   6.809   2.774  0.00  0.00    +0.119 HD
ATOM    150  H2  CYS A  1        2.473   5.787   2.084  0.00  0.00    +0.119 HD
ENDBRANCH 147 148
BRANCH 147 151
ATOM    151  CB  CYS A  1        1.710   5.826   4.657  0.00  0.00    +0.109 C 
BRANCH 151 152
ATOM    152  SG  CYS A  1        1.803   7.580   5.110  0.00  0.00    -0.091 S 
BRANCH 152 153
ATOM    153  SG  CYS A  1        0.162   7.874   6.285  0.00  0.00    -0.091 S 
BRANCH 153 154
ATOM    154  CB  CYS A  1        0.718   7.328   7.925  0.00  0.00    +0.109 C 
BRANCH 154 155
ATOM    155  CA  CYS A  1       -0.225   7.672   9.105  0.00  0.00    +0.148 C 
BRANCH 155 158
ATOM    156  N   TYR A  2       -0.787   6.528  11.188  0.00  0.00    -0.301 N 
ATOM    157  H   TYR A  2       -1.725   6.636  10.908  0.00  0.00    +0.150 HD
ATOM    158  C   CYS A  1        0.217   7.024  10.445  0.00  0.00    +0.231 C 
ATOM    159  O   CYS A  1        1.447   7.087  10.647  0.00  0.00    -0.274 OA
BRANCH 156 160
ATOM    160  CA  TYR A  2       -0.447   5.816  12.439  0.00  0.00    +0.184 C 
BRANCH 160 162
ATOM    161  N   GLY A  3       -0.879   7.193  14.431  0.00  0.00    -0.240 NA
ATOM    162  C   TYR A  2       -0.016   6.751  13.595  0.00  0.00    +0.206 C 
BRANCH 162 163
ATOM    163  O   TYR A  2        1.329   7.059  13.620  0.00  0.00    -0.494 OA
ATOM    164  H   TYR A  2        1.763   6.673  12.855  0.00  0.00    +0.293 HD
ENDBRANCH 162 163
BRANCH 161 165
ATOM    165  CA  GLY A  3       -0.509   8.086  15.536  0.00  0.00    +0.198 C 
BRANCH 165 167
ATOM    166  N   ARG A  4       -0.256   7.541  17.907  0.00  0.00    -0.240 NA
ATOM    167  C   GLY A  3       -1.018   7.518  16.876  0.00  0.00    +0.209 C 
BRANCH 167 168
ATOM    168  O   GLY A  3       -2.306   7.027  16.856  0.00  0.00    -0.494 OA
ATOM    169  H   GLY A  3       -2.663   7.091  15.967  0.00  0.00    +0.293 HD
ENDBRANCH 167 168
BRANCH 166 170
ATOM    170  CA  ARG A  4       -0.681   7.094  19.268  0.00  0.00    +0.203 C 
BRANCH 170 173
ATOM    171  N   LYS A  5        0.526   5.057  19.884  0.00  0.00    -0.300 N 
ATOM    172  H   LYS A  5        1.271   5.651  20.131  0.00  0.00    +0.150 HD
ATOM    173  C   ARG A  4       -0.632   5.540  19.399  0.00  0.00    +0.239 C 
ATOM    174  O   ARG A  4       -1.686   4.982  19.030  0.00  0.00    -0.273 OA
BRANCH 171 175
ATOM    175  CA  LYS A  5        0.623   3.596  20.025  0.00  0.00    +0.184 C 
BRANCH 175 177
ATOM    176  N   LYS A  6        2.005   2.992  21.997  0.00  0.00    -0.240 NA
ATOM    177  C   LYS A  5        0.845   3.252  21.514  0.00  0.00    +0.206 C 
BRANCH 177 178
ATOM    178  O   LYS A  5       -0.324   3.266  22.247  0.00  0.00    -0.494 OA
ATOM    179  H   LYS A  5       -1.055   3.532  21.684  0.00  0.00    +0.293 HD
ENDBRANCH 177 178
BRANCH 176 180
ATOM    180  CA  LYS A  6        2.219   2.772  23.431  0.00  0.00    +0.198 C 
BRANCH 180 182
ATOM    181  N   ARG A  7        2.790   4.639  24.897  0.00  0.00    -0.240 NA
ATOM    182  C   LYS A  6        3.174   3.858  23.960  0.00  0.00    +0.209 C 
BRANCH 182 183
ATOM    183  O   LYS A  6        4.395   3.936  23.322  0.00  0.00    -0.494 OA
ATOM    184  H   LYS A  6        4.442   3.271  22.630  0.00  0.00    +0.293 HD
ENDBRANCH 182 183
BRANCH 181 185
ATOM    185  CA  ARG A  7        3.631   5.728  25.386  0.00  0.00    +0.194 C 
BRANCH 185 187
ATOM    186  N   ARG A  8        2.470   6.211  27.513  0.00  0.00    -0.240 NA
ATOM    187  C   ARG A  7        3.517   5.763  26.919  0.00  0.00    +0.209 C 
BRANCH 187 188
ATOM    188  O   ARG A  7        4.633   5.275  27.562  0.00  0.00    -0.494 OA
ATOM    189  H   ARG A  7        5.282   4.984  26.917  0.00  0.00    +0.293 HD
ENDBRANCH 187 188
BRANCH 186 190
ATOM    190  CA  ARG A  8        2.285   6.201  28.971  0.00  0.00    +0.193 C 
BRANCH 190 191
ATOM    191  C   ARG A  8        3.166   7.263  29.672  0.00  0.00    +0.208 C 
ATOM    192  N   GLY A  9        4.049   6.950  30.545  0.00  0.00    -0.243 NA
BRANCH 191 193
ATOM    193  O   ARG A  8        2.879   8.553  29.276  0.00  0.00    -0.494 OA
ATOM    194  H   ARG A  8        2.188   8.543  28.609  0.00  0.00    +0.293 HD
ENDBRANCH 191 193
BRANCH 192 195
ATOM    195  CA  GLY A  9        4.891   7.960  31.175  0.00  0.00    +0.240 C 
BRANCH 195 196
ATOM    196  C   GLY A  9        4.601   8.015  32.671  0.00  0.00    +0.205 C 
ATOM    197  N   SER A 10        3.976   9.011  33.177  0.00  0.00    -0.238 NA
BRANCH 196 198
ATOM    198  O   GLY A  9        5.069   6.925  33.372  0.00  0.00    -0.494 OA
ATOM    199  H   GLY A  9        5.481   6.302  32.769  0.00  0.00    +0.293 HD
ENDBRANCH 196 198
BRANCH 197 200
ATOM    200  CA  SER A 10        3.687   9.094  34.608  0.00  0.00    +0.218 C 
BRANCH 200 201
ATOM    201  C   SER A 10        2.157   9.150  34.781  0.00  0.00    +0.211 C 
ATOM    202  N   LEU A 11        1.510  10.257  34.811  0.00  0.00    -0.238 NA
BRANCH 201 203
ATOM    203  O   SER A 10        1.577   7.905  34.898  0.00  0.00    -0.494 OA
ATOM    204  H   SER A 10        2.250   7.224  34.838  0.00  0.00    +0.293 HD
ENDBRANCH 201 203
BRANCH 202 205
ATOM    205  CA  LEU A 11        0.032  10.269  34.984  0.00  0.00    +0.217 C 
BRANCH 205 206
ATOM    206  C   LEU A 11       -0.677  10.025  33.627  0.00  0.00    +0.330 C 
ATOM    207  O   LEU A 11       -0.362  10.613  32.592  0.00  0.00    -0.249 OA
BRANCH 206 208
ATOM    208  OXT LEU A 11       -1.680   9.106  33.741  0.00  0.00    -0.479 OA
ATOM    209  HXT LEU A 11       -2.127   8.950  32.906  0.00  0.00    +0.295 HD
ENDBRANCH 206 208
ENDBRANCH 205 206
BRANCH 205 210
ATOM    210  CB  LEU A 11       -0.404  11.627  35.602  0.00  0.00    +0.041 C 
BRANCH 210 211
ATOM    211  CG  LEU A 11       -1.869  11.706  36.101  0.00  0.00    -0.015 C 
ATOM    212  CD2 LEU A 11       -2.169  10.689  37.223  0.00  0.00    +0.007 C 
ATOM    213  CD1 LEU A 11       -2.234  13.150  36.511  0.00  0.00    +0.007 C 
ENDBRANCH 210 211
ENDBRANCH 205 210
ENDBRANCH 202 205
ENDBRANCH 200 201
BRANCH 200 214
ATOM    214  CB  SER A 10        4.430  10.333  35.183  0.00  0.00    +0.192 C 
BRANCH 214 215
ATOM    215  OG  SER A 10        4.283  10.439  36.587  0.00  0.00    -0.392 OA
ATOM    216  H   SER A 10        4.749  11.225  36.883  0.00  0.00    +0.210 HD
ENDBRANCH 214 215
ENDBRANCH 200 214
ENDBRANCH 197 200
ENDBRANCH 195 196
ENDBRANCH 192 195
ENDBRANCH 190 191
BRANCH 190 217
ATOM    217  CB  ARG A  8        2.358   4.770  29.611  0.00  0.00    +0.039 C 
BRANCH 217 219
ATOM    218  CD1 ARG A  8       -0.022   4.026  28.946  0.00  0.00    +0.007 C 
ATOM    219  CG  ARG A  8        1.478   3.673  28.954  0.00  0.00    -0.015 C 
ATOM    220  CD2 ARG A  8        1.712   2.307  29.623  0.00  0.00    +0.007 C 
ENDBRANCH 217 219
ENDBRANCH 190 217
ENDBRANCH 186 190
ENDBRANCH 185 187
BRANCH 185 221
ATOM    221  CB  ARG A  7        3.265   7.087  24.699  0.00  0.00    +0.047 C 
BRANCH 221 222
ATOM    222  CG  ARG A  7        1.772   7.517  24.585  0.00  0.00    +0.123 C 
BRANCH 222 223
ATOM    223  CD  ARG A  7        0.946   6.767  23.529  0.00  0.00    +0.305 C 
ATOM    224  OE1 ARG A  7       -0.107   6.188  23.789  0.00  0.00    -0.251 OA
BRANCH 223 225
ATOM    225  OE2 ARG A  7        1.514   6.832  22.290  0.00  0.00    -0.481 OA
ATOM    226  HE2 ARG A  7        1.016   6.348  21.625  0.00  0.00    +0.295 HD
ENDBRANCH 223 225
ENDBRANCH 222 223
ENDBRANCH 221 222
ENDBRANCH 185 221
ENDBRANCH 181 185
ENDBRANCH 180 182
BRANCH 180 227
ATOM    227  CB  LYS A  6        2.718   1.322  23.712  0.00  0.00    +0.071 C 
BRANCH 227 228
ATOM    228  CG  LYS A  6        3.961   0.849  22.957  0.00  0.00    -0.045 A 
ATOM    229  CD2 LYS A  6        3.841   0.350  21.657  0.00  0.00    +0.007 A 
ATOM    230  CE2 LYS A  6        4.970  -0.078  20.966  0.00  0.00    +0.045 A 
ATOM    231  CZ  LYS A  6        6.220  -0.017  21.581  0.00  0.00    +0.117 A 
ATOM    232  CE1 LYS A  6        6.346   0.465  22.883  0.00  0.00    +0.045 A 
ATOM    233  CD1 LYS A  6        5.215   0.895  23.572  0.00  0.00    +0.007 A 
BRANCH 231 234
ATOM    234  OH  LYS A  6        7.333  -0.437  20.901  0.00  0.00    -0.507 OA
ATOM    235  HH  LYS A  6        7.133  -0.738  20.012  0.00  0.00    +0.292 HD
ENDBRANCH 231 234
ENDBRANCH 227 228
ENDBRANCH 180 227
ENDBRANCH 176 180
ENDBRANCH 175 177
BRANCH 175 236
ATOM    236  CB  LYS A  5        1.744   3.066  19.083  0.00  0.00    +0.187 C 
BRANCH 236 237
ATOM    237  O   LYS A  5        1.829   1.652  19.079  0.00  0.00    -0.393 OA
ATOM    238  H   LYS A  5        2.129   1.367  19.946  0.00  0.00    +0.209 HD
ENDBRANCH 236 237
ENDBRANCH 175 236
ENDBRANCH 171 175
ENDBRANCH 170 173
BRANCH 170 239
ATOM    239  CB  ARG A  4       -2.013   7.763  19.768  0.00  0.00    +0.131 C 
BRANCH 239 240
ATOM    240  CG  ARG A  4       -2.154   7.748  21.290  0.00  0.00    +0.182 C 
ATOM    241  ND2 ARG A  4       -1.791   8.715  22.015  0.00  0.00    -0.271 NA
ATOM    242  HD2 ARG A  4       -1.945   8.548  22.998  0.00  0.00    +0.190 HD
BRANCH 240 243
ATOM    243  OD1 ARG A  4       -2.692   6.603  21.819  0.00  0.00    -0.496 OA
ATOM    244  HD1 ARG A  4       -2.716   6.662  22.776  0.00  0.00    +0.293 HD
ENDBRANCH 240 243
ENDBRANCH 239 240
ENDBRANCH 170 239
ENDBRANCH 166 170
ENDBRANCH 165 167
BRANCH 165 245
ATOM    245  CB  GLY A  3       -1.043   9.525  15.265  0.00  0.00    +0.071 C 
BRANCH 245 246
ATOM    246  CG  GLY A  3       -2.551   9.670  15.052  0.00  0.00    -0.045 A 
ATOM    247  CD2 GLY A  3       -3.374  10.040  16.120  0.00  0.00    +0.004 A 
ATOM    248  CE2 GLY A  3       -4.747  10.169  15.927  0.00  0.00    +0.000 A 
ATOM    249  CZ  GLY A  3       -5.292   9.935  14.666  0.00  0.00    +0.000 A 
ATOM    250  CE1 GLY A  3       -4.477   9.573  13.596  0.00  0.00    +0.000 A 
ATOM    251  CD1 GLY A  3       -3.104   9.442  13.789  0.00  0.00    +0.004 A 
ENDBRANCH 245 246
ENDBRANCH 165 245
ENDBRANCH 161 165
ENDBRANCH 160 162
BRANCH 160 252
ATOM    252  CB  TYR A  2        0.499   4.581  12.281  0.00  0.00    +0.187 C 
BRANCH 252 253
ATOM    253  O   TYR A  2       -0.037   3.611  11.401  0.00  0.00    -0.393 OA
ATOM    254  H   TYR A  2       -0.189   4.032  10.550  0.00  0.00    +0.209 HD
ENDBRANCH 252 253
ENDBRANCH 160 252
ENDBRANCH 156 160
ENDBRANCH 155 158
BRANCH 155 255
ATOM    255  N   CYS A  1       -0.325   9.121   9.355  0.00  0.00    -0.319 NA
ATOM    256  H1  CYS A  1        0.537   9.476   9.742  0.00  0.00    +0.119 HD
ATOM    257  H2  CYS A  1       -1.052   9.314  10.028  0.00  0.00    +0.119 HD
ENDBRANCH 155 255
ENDBRANCH 154 155
ENDBRANCH 153 154
ENDBRANCH 152 153
ENDBRANCH 151 152
ENDBRANCH 147 151
ENDBRANCH 143 147
ENDBRANCH 142 145
BRANCH 142 258
ATOM    258  CB  TYR A  2        0.037   1.637   4.040  0.00  0.00    +0.067 C 
BRANCH 258 259
ATOM    259  CG  TYR A  2       -0.362   2.379   5.324  0.00  0.00    -0.045 A 
ATOM    260  CD2 TYR A  2       -1.020   3.613   5.243  0.00  0.00    +0.007 A 
ATOM    261  CE2 TYR A  2       -1.398   4.285   6.401  0.00  0.00    +0.045 A 
ATOM    262  CZ  TYR A  2       -1.133   3.718   7.646  0.00  0.00    +0.117 A 
ATOM    263  CE1 TYR A  2       -0.487   2.487   7.740  0.00  0.00    +0.045 A 
ATOM    264  CD1 TYR A  2       -0.106   1.816   6.581  0.00  0.00    +0.007 A 
BRANCH 262 265
ATOM    265  OH  TYR A  2       -1.518   4.370   8.785  0.00  0.00    -0.507 OA
ATOM    266  HH  TYR A  2       -1.930   5.221   8.619  0.00  0.00    +0.292 HD
ENDBRANCH 262 265
ENDBRANCH 258 259
ENDBRANCH 142 258
ENDBRANCH 138 142
ENDBRANCH 137 139
ENDBRANCH   1 137
TORSDOF 146
