REMARK  Name = DB05631
REMARK                            x       y       z     vdW  Elec       q    Type
REMARK                         _______ _______ _______ _____ _____    ______ ____
ROOT
ATOM      1  C   LIG    1       -0.804   2.142  -1.174  0.00  0.00    +0.000 A 
ATOM      2 SE   LIG    1       -0.662   1.359  -2.885  0.00  0.00    +0.000 Se
ATOM      3  N   LIG    1       -0.038  -0.365  -2.443  0.00  0.00    +0.000 NA
ATOM      4  H   LIG    1        0.972  -0.366  -2.436  0.00  0.00    +0.000 HD
ATOM      5  C   LIG    1       -0.536  -0.805  -1.154  0.00  0.00    +0.000 C 
ATOM      6  C   LIG    1        0.035   0.002   0.051  0.00  0.00    +0.000 C 
ATOM      7  C   LIG    1       -0.474  -0.752   1.310  0.00  0.00    +0.000 C 
ATOM      8  C   LIG    1        1.583   0.036  -0.000  0.00  0.00    +0.000 C 
ATOM      9  C   LIG    1       -1.256   3.465  -1.155  0.00  0.00    +0.000 A 
ATOM     10  C   LIG    1       -1.395   4.151   0.045  0.00  0.00    +0.000 A 
ATOM     11  C   LIG    1       -1.078   3.516   1.238  0.00  0.00    +0.000 A 
ATOM     12  C   LIG    1       -0.628   2.198   1.223  0.00  0.00    +0.000 A 
ATOM     13  C   LIG    1       -0.487   1.464   0.029  0.00  0.00    +0.000 A 
ENDROOT
TORSDOF 0
