REMARK  Name = DB05134
REMARK                            x       y       z     vdW  Elec       q    Type
REMARK                         _______ _______ _______ _____ _____    ______ ____
ROOT
ATOM      1  C   LIG    1       -0.247  -0.222  -0.389  0.00  0.00    +0.076 C 
ATOM      2  C   LIG    1       -1.190  -1.353  -0.469  0.00  0.00    +0.140 C 
ATOM      3  C   LIG    1       -2.506  -1.140  -0.266  0.00  0.00    +0.076 C 
ATOM      4  C   LIG    1       -3.109   0.156   0.005  0.00  0.00    +0.107 C 
ATOM      5  N   LIG    1       -4.335   0.434   0.298  0.00  0.00    -0.173 NA
ATOM      6  C   LIG    1       -5.294  -0.563   0.418  0.00  0.00    +0.264 C 
ATOM      7  O   LIG    1       -5.468  -1.093   1.519  0.00  0.00    -0.268 OA
ATOM      8  C   LIG    1       -6.065  -0.925  -0.778  0.00  0.00    +0.013 C 
ATOM      9  C   LIG    1       -5.929  -0.263  -1.959  0.00  0.00    +0.008 C 
ATOM     10  C   LIG    1       -6.627  -0.579  -3.197  0.00  0.00    -0.001 C 
ATOM     11  C   LIG    1       -6.578   0.145  -4.332  0.00  0.00    +0.008 C 
ATOM     12  C   LIG    1       -5.851   1.467  -4.584  0.00  0.00    +0.186 C 
ATOM     13  C   LIG    1       -4.508   1.288  -5.346  0.00  0.00    +0.236 C 
ATOM     14  C   LIG    1       -3.800   2.596  -5.736  0.00  0.00    -0.033 C 
ATOM     15  C   LIG    1       -2.614   2.930  -5.179  0.00  0.00    -0.019 C 
ATOM     16  C   LIG    1       -1.759   4.159  -5.498  0.00  0.00    +0.040 C 
ATOM     17  C   LIG    1       -1.333   5.034  -4.280  0.00  0.00    +0.150 C 
ATOM     18  C   LIG    1       -0.158   4.510  -3.389  0.00  0.00    +0.147 C 
ATOM     19  C   LIG    1       -0.551   3.535  -2.248  0.00  0.00    +0.037 C 
ATOM     20  C   LIG    1        0.634   2.998  -1.399  0.00  0.00    -0.007 C 
ATOM     21  C   LIG    1        0.175   2.297  -0.090  0.00  0.00    +0.044 C 
ATOM     22  C   LIG    1        1.609   2.135  -2.228  0.00  0.00    +0.008 C 
ATOM     23  C   LIG    1       -0.584   3.798  -6.429  0.00  0.00    +0.014 C 
ATOM     24  C   LIG    1       -4.448   3.399  -6.863  0.00  0.00    +0.042 C 
ATOM     25  C   LIG    1       -7.035  -2.090  -0.541  0.00  0.00    +0.049 C 
ATOM     26  C   LIG    1       -2.198   1.340  -0.080  0.00  0.00    +0.207 C 
ATOM     27  O   LIG    1       -2.652   2.489  -0.017  0.00  0.00    -0.286 OA
ATOM     28  C   LIG    1       -0.731   1.050  -0.236  0.00  0.00    +0.026 C 
ENDROOT
BRANCH   1  29
ATOM     29  N   LIG    1        1.126  -0.404  -0.399  0.00  0.00    -0.337 N 
ATOM     30  H   LIG    1        1.706   0.422  -0.376  0.00  0.00    +0.146 HD
BRANCH  29  31
ATOM     31  C   LIG    1        1.919  -1.621  -0.396  0.00  0.00    +0.128 C 
BRANCH  31  33
ATOM     32  C   LIG    1        4.296  -1.836  -1.243  0.00  0.00    +0.005 C 
ATOM     33  C   LIG    1        3.416  -1.403  -0.328  0.00  0.00    -0.016 C 
ENDBRANCH  31  33
ENDBRANCH  29  31
ENDBRANCH   1  29
BRANCH   2  34
ATOM     34  O   LIG    1       -0.786  -2.619  -0.767  0.00  0.00    -0.505 OA
ATOM     35  H   LIG    1       -1.548  -3.202  -0.783  0.00  0.00    +0.292 HD
ENDBRANCH   2  34
BRANCH  12  36
ATOM     36  O   LIG    1       -6.697   2.363  -5.305  0.00  0.00    -0.372 OA
ATOM     37  C   LIG    1       -7.800   2.888  -4.575  0.00  0.00    +0.195 C 
ENDBRANCH  12  36
BRANCH  17  38
ATOM     38  O   LIG    1       -2.465   5.380  -3.499  0.00  0.00    -0.389 OA
ATOM     39  H   LIG    1       -2.174   5.938  -2.774  0.00  0.00    +0.210 HD
ENDBRANCH  17  38
BRANCH  18  40
ATOM     40  O   LIG    1        0.489   5.621  -2.763  0.00  0.00    -0.377 OA
ATOM     41  C   LIG    1        1.501   6.258  -3.534  0.00  0.00    +0.194 C 
ENDBRANCH  18  40
BRANCH  13  42
ATOM     42  O   LIG    1       -4.704   0.438  -6.486  0.00  0.00    -0.440 OA
BRANCH  42  43
ATOM     43  C   LIG    1       -3.693  -0.274  -7.032  0.00  0.00    +0.398 C 
ATOM     44  O   LIG    1       -2.531  -0.293  -6.627  0.00  0.00    -0.227 OA
ATOM     45  N   LIG    1       -4.165  -0.978  -8.116  0.00  0.00    -0.295 N 
ATOM     46  H   LIG    1       -3.531  -1.564  -8.639  0.00  0.00    +0.148 HD
ATOM     47  H   LIG    1       -5.136  -0.892  -8.378  0.00  0.00    +0.148 HD
ENDBRANCH  42  43
ENDBRANCH  13  42
TORSDOF 9
