REMARK  Name = DB05105
REMARK                            x       y       z     vdW  Elec       q    Type
REMARK                         _______ _______ _______ _____ _____    ______ ____
ROOT
ATOM      1  C   LIG    1       -1.809   3.846  -0.009  0.00  0.00    +0.023 A 
ATOM      2  C   LIG    1       -1.466   3.227  -1.219  0.00  0.00    +0.018 A 
ATOM      3  C   LIG    1       -0.872   1.963  -1.244  0.00  0.00    -0.008 A 
ATOM      4  C   LIG    1       -0.542   1.317  -2.581  0.00  0.00    +0.047 C 
ATOM      5  C   LIG    1       -0.605   1.296  -0.039  0.00  0.00    +0.126 A 
ATOM      6  C   LIG    1       -0.951   1.897   1.180  0.00  0.00    -0.008 A 
ATOM      7  C   LIG    1       -0.716   1.181   2.502  0.00  0.00    +0.047 C 
ATOM      8  C   LIG    1       -1.546   3.161   1.185  0.00  0.00    +0.018 A 
ENDROOT
BRANCH   1  11
ATOM      9  C   LIG    1       -3.248   6.981  -0.647  0.00  0.00    +0.332 A 
ATOM     10  N   LIG    1       -2.708   5.881  -1.101  0.00  0.00    -0.184 NA
ATOM     11  C   LIG    1       -2.451   5.208   0.008  0.00  0.00    +0.202 A 
ATOM     12  N   LIG    1       -2.796   5.811   1.131  0.00  0.00    -0.056 NA
ATOM     13  O   LIG    1       -3.342   7.019   0.704  0.00  0.00    -0.328 OA
BRANCH   9  15
ATOM     14  F   LIG    1       -3.562   8.018  -2.744  0.00  0.00    -0.162 F 
ATOM     15  C   LIG    1       -3.769   8.165  -1.435  0.00  0.00    +0.472 C 
ATOM     16  F   LIG    1       -5.079   8.322  -1.248  0.00  0.00    -0.162 F 
ATOM     17  F   LIG    1       -3.165   9.291  -1.057  0.00  0.00    -0.162 F 
ENDBRANCH   9  15
ENDBRANCH   1  11
BRANCH   5  18
ATOM     18  O   LIG    1       -0.033   0.046  -0.060  0.00  0.00    -0.491 OA
BRANCH  18  19
ATOM     19  C   LIG    1        1.387   0.044   0.043  0.00  0.00    +0.229 C 
BRANCH  19  20
ATOM     20  C   LIG    1        1.874  -1.411   0.002  0.00  0.00    +0.049 C 
BRANCH  20  21
ATOM     21  C   LIG    1        3.405  -1.537   0.110  0.00  0.00    +0.080 C 
BRANCH  21  22
ATOM     22  C   LIG    1        3.868  -2.976   0.091  0.00  0.00    +0.138 A 
ATOM     23  C   LIG    1        4.538  -3.787   0.980  0.00  0.00    +0.070 A 
ATOM     24  C   LIG    1        4.644  -5.024   0.345  0.00  0.00    +0.081 A 
ATOM     25  C   LIG    1        5.281  -6.297   0.850  0.00  0.00    +0.069 C 
ATOM     26  N   LIG    1        4.091  -4.995  -0.848  0.00  0.00    -0.083 NA
ATOM     27  O   LIG    1        3.595  -3.702  -1.022  0.00  0.00    -0.359 OA
ENDBRANCH  21  22
ENDBRANCH  20  21
ENDBRANCH  19  20
ENDBRANCH  18  19
ENDBRANCH   5  18
TORSDOF 7
