REMARK  Name = DB05936
REMARK                            x       y       z     vdW  Elec       q    Type
REMARK                         _______ _______ _______ _____ _____    ______ ____
ROOT
ATOM      1  N   LIG    1       -4.450   0.842  -0.092  0.00  0.00    -0.259 N 
ATOM      2  C   LIG    1       -4.474  -0.549   0.015  0.00  0.00    +0.334 A 
ATOM      3  O   LIG    1       -5.518  -1.212   0.035  0.00  0.00    -0.246 OA
ATOM      4  N   LIG    1       -3.235  -1.151   0.087  0.00  0.00    -0.277 N 
ATOM      5  C   LIG    1       -2.060  -0.416  -0.014  0.00  0.00    +0.169 A 
ATOM      6  N   LIG    1       -0.805  -0.848   0.006  0.00  0.00    -0.210 NA
ATOM      7  C   LIG    1       -0.068   0.236  -0.130  0.00  0.00    +0.144 A 
ATOM      8  N   LIG    1       -0.840   1.368  -0.236  0.00  0.00    -0.332 N 
ATOM      9  H   LIG    1       -0.512   2.317  -0.346  0.00  0.00    +0.168 HD
ATOM     10  C   LIG    1       -2.141   0.954  -0.162  0.00  0.00    +0.149 A 
ATOM     11  C   LIG    1       -3.368   1.706  -0.216  0.00  0.00    +0.282 A 
ATOM     12  O   LIG    1       -3.446   2.931  -0.338  0.00  0.00    -0.265 OA
ENDROOT
BRANCH   7  13
ATOM     13  C   LIG    1        1.385   0.252  -0.162  0.00  0.00    +0.055 A 
ATOM     14  C   LIG    1        2.253  -0.817  -0.001  0.00  0.00    +0.120 A 
ATOM     15  N   LIG    1        3.520  -0.302  -0.101  0.00  0.00    -0.266 N 
ATOM     16  N   LIG    1        3.516   1.012  -0.363  0.00  0.00    -0.179 NA
ATOM     17  C   LIG    1        2.245   1.341  -0.378  0.00  0.00    +0.146 A 
BRANCH  15  18
ATOM     18  C   LIG    1        4.779  -1.034  -0.089  0.00  0.00    +0.178 C 
BRANCH  18  19
ATOM     19  C   LIG    1        5.234  -1.455  -1.480  0.00  0.00    -0.026 A 
ATOM     20  C   LIG    1        6.010  -0.592  -2.259  0.00  0.00    +0.017 A 
ATOM     21  C   LIG    1        6.420  -0.963  -3.545  0.00  0.00    +0.055 A 
ATOM     22  C   LIG    1        6.041  -2.215  -4.046  0.00  0.00    +0.012 A 
ATOM     23  C   LIG    1        5.265  -3.079  -3.273  0.00  0.00    +0.001 A 
ATOM     24  C   LIG    1        4.861  -2.700  -1.994  0.00  0.00    +0.005 A 
BRANCH  21  25
ATOM     25  C   LIG    1        7.267  -0.002  -4.377  0.00  0.00    +0.417 C 
ATOM     26  F   LIG    1        7.794  -0.592  -5.452  0.00  0.00    -0.166 F 
ATOM     27  F   LIG    1        8.267   0.489  -3.644  0.00  0.00    -0.166 F 
ATOM     28  F   LIG    1        6.503   1.010  -4.789  0.00  0.00    -0.166 F 
ENDBRANCH  21  25
ENDBRANCH  18  19
ENDBRANCH  15  18
ENDBRANCH   7  13
BRANCH   4  29
ATOM     29  C   LIG    1       -3.152  -2.616   0.245  0.00  0.00    +0.125 C 
ATOM     30  C   LIG    1       -3.190  -3.369  -1.094  0.00  0.00    +0.027 C 
ENDBRANCH   4  29
BRANCH   1  31
ATOM     31  C   LIG    1       -5.793   1.490  -0.121  0.00  0.00    +0.130 C 
BRANCH  31  33
ATOM     32  C   LIG    1       -5.694   2.532   2.250  0.00  0.00    +0.005 C 
ATOM     33  C   LIG    1       -6.466   1.644   1.263  0.00  0.00    +0.018 C 
ENDBRANCH  31  33
ENDBRANCH   1  31
TORSDOF 7
