REMARK  Name = DB05103
REMARK                            x       y       z     vdW  Elec       q    Type
REMARK                         _______ _______ _______ _____ _____    ______ ____
ROOT
ATOM      1  C   LIG    1        3.323  -0.037  -1.366  0.00  0.00    +0.472 C 
ENDROOT
BRANCH   1   2
ATOM      2  O   LIG    1        1.930  -0.056  -1.232  0.00  0.00    -0.427 OA
BRANCH   2   3
ATOM      3  C   LIG    1        1.420   0.286  -0.014  0.00  0.00    +0.310 C 
ATOM      4  O   LIG    1        2.054   0.639   0.984  0.00  0.00    -0.251 OA
BRANCH   3   5
ATOM      5  C   LIG    1       -0.107   0.198   0.017  0.00  0.00    +0.120 C 
BRANCH   5   7
ATOM      6  C   LIG    1       -2.311   1.488   0.052  0.00  0.00    +0.004 C 
ATOM      7  C   LIG    1       -0.781   1.582  -0.003  0.00  0.00    +0.008 C 
ENDBRANCH   5   7
ENDBRANCH   3   5
ENDBRANCH   2   3
ENDBRANCH   1   2
BRANCH   1   8
ATOM      8  O   LIG    1        3.914  -1.171  -0.796  0.00  0.00    -0.427 OA
BRANCH   8   9
ATOM      9  C   LIG    1        5.268  -1.137  -0.616  0.00  0.00    +0.315 C 
ATOM     10  O   LIG    1        6.018  -0.218  -0.964  0.00  0.00    -0.250 OA
BRANCH   9  11
ATOM     11  C   LIG    1        5.803  -2.410   0.098  0.00  0.00    +0.059 C 
ATOM     12  C   LIG    1        5.383  -3.676  -0.692  0.00  0.00    +0.022 C 
ATOM     13  C   LIG    1        7.352  -2.384   0.192  0.00  0.00    +0.022 C 
ATOM     14  C   LIG    1        5.228  -2.470   1.535  0.00  0.00    +0.022 C 
ENDBRANCH   9  11
ENDBRANCH   8   9
ENDBRANCH   1   8
TORSDOF 7
