REMARK  Name = DB05835
REMARK                            x       y       z     vdW  Elec       q    Type
REMARK                         _______ _______ _______ _____ _____    ______ ____
ROOT
ATOM      1  N   LIG    1       -1.968   1.031   0.166  0.00  0.00    -0.269 N 
ATOM      2  H   LIG    1       -2.107   0.119   0.578  0.00  0.00    +0.156 HD
ATOM      3  C   LIG    1       -0.698   1.404  -0.082  0.00  0.00    +0.308 C 
ATOM      4  N   LIG    1        0.133   0.366   0.149  0.00  0.00    -0.269 N 
ATOM      5  H   LIG    1       -0.305  -0.487   0.463  0.00  0.00    +0.156 HD
ATOM      6  O   LIG    1       -0.358   2.531  -0.446  0.00  0.00    -0.252 OA
ENDROOT
BRANCH   1  11
ATOM      7  C   LIG    1       -5.453   3.382  -0.059  0.00  0.00    +0.016 A 
ATOM      8  C   LIG    1       -4.459   3.528  -1.022  0.00  0.00    +0.020 A 
ATOM      9 BR   LIG    1       -4.678   4.787  -2.434  0.00  0.00    -0.050 Br
ATOM     10  C   LIG    1       -3.305   2.752  -0.954  0.00  0.00    +0.039 A 
ATOM     11  C   LIG    1       -3.130   1.823   0.086  0.00  0.00    +0.047 A 
ATOM     12  C   LIG    1       -4.147   1.652   1.052  0.00  0.00    +0.042 A 
ATOM     13  C   LIG    1       -5.297   2.452   0.966  0.00  0.00    +0.014 A 
BRANCH  12  14
ATOM     14  C   LIG    1       -4.074   0.659   2.183  0.00  0.00    +0.181 A 
ATOM     15  N   LIG    1       -4.377   0.969   3.425  0.00  0.00    -0.108 NA
ATOM     16  N   LIG    1       -4.192  -0.188   4.144  0.00  0.00    -0.023 NA
ATOM     17  N   LIG    1       -3.782  -1.161   3.270  0.00  0.00    -0.046 NA
ATOM     18  N   LIG    1       -3.718  -0.597   2.019  0.00  0.00    -0.239 N 
ATOM     19  H   LIG    1       -3.460  -1.039   1.177  0.00  0.00    +0.192 HD
ENDBRANCH  12  14
ENDBRANCH   1  11
BRANCH   4  20
ATOM     20  C   LIG    1        1.535   0.289   0.047  0.00  0.00    +0.036 A 
ATOM     21  C   LIG    1        2.108  -0.921   0.450  0.00  0.00    +0.035 A 
ATOM     22  C   LIG    1        3.492  -1.118   0.396  0.00  0.00    +0.057 A 
ATOM     23  C   LIG    1        4.308  -0.084  -0.074  0.00  0.00    +0.024 A 
ATOM     24  C   LIG    1        3.758   1.135  -0.486  0.00  0.00    +0.057 A 
ATOM     25  C   LIG    1        2.371   1.315  -0.423  0.00  0.00    +0.035 A 
BRANCH  22  26
ATOM     26  C   LIG    1        4.111  -2.443   0.842  0.00  0.00    +0.417 C 
ATOM     27  F   LIG    1        5.282  -2.244   1.449  0.00  0.00    -0.166 F 
ATOM     28  F   LIG    1        4.311  -3.209  -0.230  0.00  0.00    -0.166 F 
ATOM     29  F   LIG    1        3.317  -3.103   1.688  0.00  0.00    -0.166 F 
ENDBRANCH  22  26
BRANCH  24  30
ATOM     30  C   LIG    1        4.652   2.261  -1.003  0.00  0.00    +0.417 C 
ATOM     31  F   LIG    1        4.869   3.129  -0.015  0.00  0.00    -0.166 F 
ATOM     32  F   LIG    1        4.071   2.906  -2.016  0.00  0.00    -0.166 F 
ATOM     33  F   LIG    1        5.832   1.807  -1.429  0.00  0.00    -0.166 F 
ENDBRANCH  24  30
ENDBRANCH   4  20
TORSDOF 5
