REMARK  Name = DB05188
REMARK                            x       y       z     vdW  Elec       q    Type
REMARK                         _______ _______ _______ _____ _____    ______ ____
ROOT
ATOM      1  C   LIG    1        3.912  -0.198   2.028  0.00  0.00    +0.027 C 
ATOM      2  C   LIG    1        3.319   0.061   0.625  0.00  0.00    +0.094 C 
ATOM      3  N   LIG    1        4.067   1.114  -0.144  0.00  0.00    -0.168 NA
ATOM      4  C   LIG    1        3.375   1.414  -1.451  0.00  0.00    +0.094 C 
ATOM      5  C   LIG    1        1.900   1.806  -1.199  0.00  0.00    +0.125 C 
ATOM      6  N   LIG    1        1.136   0.795  -0.448  0.00  0.00    -0.327 N 
ATOM      7  C   LIG    1        4.040   2.542  -2.266  0.00  0.00    +0.027 C 
ATOM      8  C   LIG    1        1.835   0.465   0.805  0.00  0.00    +0.125 C 
ENDROOT
BRANCH   6   9
ATOM      9  C   LIG    1       -0.252   0.692  -0.526  0.00  0.00    +0.030 A 
ATOM     10  C   LIG    1       -1.043   1.746  -1.008  0.00  0.00    +0.027 A 
ATOM     11  C   LIG    1       -2.428   1.622  -1.079  0.00  0.00    +0.048 A 
ATOM     12  C   LIG    1       -3.042   0.443  -0.662  0.00  0.00    +0.130 A 
ATOM     13  C   LIG    1       -2.271  -0.618  -0.192  0.00  0.00    +0.048 A 
ATOM     14  C   LIG    1       -0.886  -0.491  -0.121  0.00  0.00    +0.027 A 
BRANCH  12  15
ATOM     15  O   LIG    1       -4.407   0.314  -0.751  0.00  0.00    -0.406 OA
BRANCH  15  16
ATOM     16  C   LIG    1       -5.137   0.699   0.412  0.00  0.00    +0.575 C 
ATOM     17  F   LIG    1       -4.836  -0.073   1.458  0.00  0.00    -0.133 F 
ATOM     18  F   LIG    1       -4.941   1.984   0.715  0.00  0.00    -0.133 F 
ATOM     19  F   LIG    1       -6.432   0.537   0.146  0.00  0.00    -0.133 F 
ENDBRANCH  15  16
ENDBRANCH  12  15
ENDBRANCH   6   9
BRANCH   3  20
ATOM     20  S   LIG    1        5.821   1.444   0.192  0.00  0.00    +0.062 S 
ATOM     21  O   LIG    1        6.431   2.218  -0.892  0.00  0.00    -0.153 OA
ATOM     22  O   LIG    1        5.903   1.971   1.560  0.00  0.00    -0.153 OA
BRANCH  20  23
ATOM     23  C   LIG    1        6.707  -0.128   0.184  0.00  0.00    +0.109 A 
ATOM     24  C   LIG    1        6.649  -1.019  -0.900  0.00  0.00    -0.017 A 
ATOM     25  C   LIG    1        7.379  -2.211  -0.867  0.00  0.00    -0.042 A 
ATOM     26  C   LIG    1        7.150  -3.033  -2.113  0.00  0.00    +0.050 C 
ATOM     27  C   LIG    1        6.278  -2.152  -3.032  0.00  0.00    +0.106 C 
ATOM     28  C   LIG    1        8.162  -2.526   0.243  0.00  0.00    +0.004 A 
ATOM     29  C   LIG    1        8.238  -1.638   1.313  0.00  0.00    +0.002 A 
ATOM     30  C   LIG    1        5.838  -0.948  -2.172  0.00  0.00    +0.052 C 
ATOM     31  C   LIG    1        7.521  -0.444   1.280  0.00  0.00    +0.029 A 
BRANCH  27  32
ATOM     32  C   LIG    1        5.152  -2.879  -3.812  0.00  0.00    +0.308 C 
ATOM     33  O   LIG    1        4.247  -3.440  -3.151  0.00  0.00    -0.251 OA
BRANCH  32  34
ATOM     34  O   LIG    1        5.204  -2.863  -5.063  0.00  0.00    -0.480 OA
ATOM     35  H   LIG    1        5.910  -2.425  -5.497  0.00  0.00    +0.295 HD
ENDBRANCH  32  34
ENDBRANCH  27  32
ENDBRANCH  20  23
ENDBRANCH   3  20
TORSDOF 7
