REMARK  Name = DB05380
REMARK                            x       y       z     vdW  Elec       q    Type
REMARK                         _______ _______ _______ _____ _____    ______ ____
ROOT
ATOM      1  C   LIG    1        1.932  -0.600   1.043  0.00  0.00    +0.066 C 
ATOM      2  N   LIG    1        1.607   0.040  -0.242  0.00  0.00    -0.292 NA
ATOM      3  C   LIG    1        2.034  -0.760  -1.399  0.00  0.00    +0.100 C 
ATOM      4  C   LIG    1        2.281   0.111  -2.655  0.00  0.00    +0.100 C 
ATOM      5  N   LIG    1        3.413   1.037  -2.487  0.00  0.00    -0.289 NA
ATOM      6  C   LIG    1        4.691   0.366  -2.774  0.00  0.00    +0.100 C 
ATOM      7  C   LIG    1        5.988   1.177  -2.515  0.00  0.00    +0.100 C 
ATOM      8  N   LIG    1        6.372   1.269  -1.103  0.00  0.00    -0.292 NA
ATOM      9  C   LIG    1        5.554   2.118  -0.229  0.00  0.00    +0.066 C 
ATOM     10  C   LIG    1        5.254   1.430   1.120  0.00  0.00    -0.062 C 
ATOM     11  N   LIG    1        4.364   0.183   0.886  0.00  0.00    +0.389 N 
ATOM     12  H   LIG    1        4.034   0.294  -0.063  0.00  0.00    -0.081 HD
ATOM     13  C   LIG    1        3.080   0.155   1.748  0.00  0.00    -0.062 C 
ENDROOT
BRANCH   2  14
ATOM     14  C   LIG    1        0.190   0.422  -0.338  0.00  0.00    +0.212 C 
BRANCH  14  15
ATOM     15  P   LIG    1       -0.132   2.040   0.582  0.00  0.00    +0.342 P 
ATOM     16  O   LIG    1        0.275   1.907   2.033  0.00  0.00    -0.257 OA
BRANCH  15  17
ATOM     17  O   LIG    1       -1.487   2.568   0.168  0.00  0.00    -0.323 OA
ATOM     18  H   LIG    1       -1.550   2.574  -0.800  0.00  0.00    +0.220 HD
ENDBRANCH  15  17
BRANCH  15  19
ATOM     19  O   LIG    1        1.061   2.976  -0.220  0.00  0.00    -0.323 OA
ATOM     20  H   LIG    1        2.015   2.916  -0.025  0.00  0.00    +0.220 HD
ENDBRANCH  15  19
ENDBRANCH  14  15
ENDBRANCH   2  14
BRANCH   5  21
ATOM     21  C   LIG    1        3.207   2.303  -3.212  0.00  0.00    +0.212 C 
BRANCH  21  22
ATOM     22  P   LIG    1        3.230   2.132  -5.101  0.00  0.00    +0.342 P 
ATOM     23  O   LIG    1        4.651   1.919  -5.576  0.00  0.00    -0.257 OA
BRANCH  22  24
ATOM     24  O   LIG    1        2.818   3.761  -5.441  0.00  0.00    -0.323 OA
ATOM     25  H   LIG    1        3.467   4.489  -5.450  0.00  0.00    +0.220 HD
ENDBRANCH  22  24
BRANCH  22  26
ATOM     26  O   LIG    1        2.078   1.263  -5.554  0.00  0.00    -0.323 OA
ATOM     27  H   LIG    1        1.258   1.568  -5.134  0.00  0.00    +0.220 HD
ENDBRANCH  22  26
ENDBRANCH  21  22
ENDBRANCH   5  21
BRANCH   8  28
ATOM     28  C   LIG    1        7.816   1.420  -0.869  0.00  0.00    +0.212 C 
BRANCH  28  29
ATOM     29  P   LIG    1        8.585   2.964  -1.668  0.00  0.00    +0.342 P 
ATOM     30  O   LIG    1        7.623   4.130  -1.617  0.00  0.00    -0.257 OA
BRANCH  29  31
ATOM     31  O   LIG    1        8.613   2.386  -3.282  0.00  0.00    -0.323 OA
ATOM     32  H   LIG    1        7.850   2.444  -3.888  0.00  0.00    +0.220 HD
ENDBRANCH  29  31
BRANCH  29  33
ATOM     33  O   LIG    1       10.021   3.075  -1.206  0.00  0.00    -0.323 OA
ATOM     34  H   LIG    1       10.465   2.220  -1.322  0.00  0.00    +0.220 HD
ENDBRANCH  29  33
ENDBRANCH  28  29
ENDBRANCH   8  28
BRANCH  11  35
ATOM     35  C   LIG    1        5.143  -1.154   0.919  0.00  0.00    +0.051 C 
BRANCH  35  36
ATOM     36  P   LIG    1        5.736  -2.031   2.501  0.00  0.00    +0.312 P 
ATOM     37  O   LIG    1        6.638  -3.144   1.937  0.00  0.00    -0.261 OA
BRANCH  36  38
ATOM     38  O   LIG    1        4.420  -2.516   3.137  0.00  0.00    -0.325 OA
ATOM     39  H   LIG    1        3.919  -1.753   3.463  0.00  0.00    +0.220 HD
ENDBRANCH  36  38
BRANCH  36  40
ATOM     40  O   LIG    1        6.465  -0.911   3.264  0.00  0.00    -0.325 OA
ATOM     41  H   LIG    1        5.818  -0.261   3.580  0.00  0.00    +0.220 HD
ENDBRANCH  36  40
ENDBRANCH  35  36
ENDBRANCH  11  35
TORSDOF 16
