REMARK  Name = DB05168
REMARK                            x       y       z     vdW  Elec       q    Type
REMARK                         _______ _______ _______ _____ _____    ______ ____
ROOT
ATOM      1  C   UNK A  1        0.797   0.883  -1.579  0.00  0.00    +0.169 C 
ENDROOT
BRANCH   1   4
ATOM      2  N   UNK A  1       -1.242   2.182  -1.242  0.00  0.00    -0.300 N 
ATOM      3  H   UNK A  1       -1.696   1.280  -1.259  0.00  0.00    +0.150 HD
ATOM      4  C   UNK A  1        0.094   2.239  -1.381  0.00  0.00    +0.235 C 
ATOM      5  O   UNK A  1        0.752   3.280  -1.344  0.00  0.00    -0.274 OA
BRANCH   2   6
ATOM      6  C   UNK A  1       -2.138   3.337  -1.056  0.00  0.00    +0.192 C 
BRANCH   6   7
ATOM      7  C   UNK A  1       -2.948   3.164   0.293  0.00  0.00    +0.326 C 
ATOM      8  O   UNK A  1       -2.239   2.989   1.313  0.00  0.00    -0.249 OA
BRANCH   7   9
ATOM      9  O   UNK A  1       -4.196   3.278   0.237  0.00  0.00    -0.479 OA
ATOM     10  H   UNK A  1       -4.711   3.183   1.014  0.00  0.00    +0.295 HD
ENDBRANCH   7   9
ENDBRANCH   6   7
BRANCH   6  11
ATOM     11  C   UNK A  1       -3.037   3.490  -2.318  0.00  0.00    +0.114 C 
BRANCH  11  12
ATOM     12  S   UNK A  1       -2.165   3.911  -3.857  0.00  0.00    -0.091 S 
BRANCH  12  13
ATOM     13  S   UNK A  1       -3.448   3.300  -5.320  0.00  0.00    -0.090 S 
BRANCH  13  14
ATOM     14  C   UNK A  1       -3.115   1.521  -5.461  0.00  0.00    +0.122 C 
BRANCH  14  15
ATOM     15  C   UNK A  1       -1.727   1.173  -6.015  0.00  0.00    +0.245 C 
BRANCH  15  16
ATOM     16  O   UNK A  1       -1.632   1.599  -7.368  0.00  0.00    -0.449 OA
BRANCH  16  19
ATOM     17  N   UNK A  1       -0.670   2.030  -9.319  0.00  0.00    -0.200 N 
ATOM     18  H   UNK A  1       -1.592   1.973  -9.727  0.00  0.00    +0.176 HD
ATOM     19  C   UNK A  1       -0.445   1.664  -8.000  0.00  0.00    +0.417 C 
ATOM     20  O   UNK A  1        0.649   1.434  -7.479  0.00  0.00    -0.225 OA
BRANCH  17  23
ATOM     21  C   UNK A  1        0.953   3.091 -10.696  0.00  0.00    +0.265 C 
ATOM     22  O   UNK A  1        2.077   2.961 -11.174  0.00  0.00    -0.271 OA
ATOM     23  N   UNK A  1        0.351   1.961 -10.252  0.00  0.00    -0.229 N 
ATOM     24  H   UNK A  1        0.793   1.053 -10.270  0.00  0.00    +0.173 HD
BRANCH  21  34
ATOM     25  C   UNK A  1        1.706   5.810  -8.911  0.00  0.00    +0.034 C 
ATOM     26  C   UNK A  1        1.531   6.586  -7.581  0.00  0.00    -0.019 C 
ATOM     27  C   UNK A  1        1.773   7.901  -7.436  0.00  0.00    -0.015 C 
ATOM     28  C   UNK A  1        2.201   8.764  -8.603  0.00  0.00    +0.111 C 
ATOM     29  N   UNK A  1        1.798   8.180  -9.878  0.00  0.00    -0.294 NA
ATOM     30  C   UNK A  1        2.183   8.833 -11.106  0.00  0.00    +0.086 C 
ATOM     31  C   UNK A  1        1.692   7.857 -12.160  0.00  0.00    +0.030 C 
ATOM     32  C   UNK A  1        1.899   6.433 -11.561  0.00  0.00    +0.037 C 
ATOM     33  C   UNK A  1        0.701   5.492 -11.887  0.00  0.00    +0.129 C 
ATOM     34  C   UNK A  1        0.232   4.501 -10.731  0.00  0.00    +0.189 C 
ATOM     35  N   UNK A  1        1.048   4.994 -13.223  0.00  0.00    -0.325 N 
ATOM     36  C   UNK A  1        0.068   4.078 -13.798  0.00  0.00    +0.129 C 
ATOM     37  C   UNK A  1        2.432   4.865 -13.306  0.00  0.00    +0.037 A 
ATOM     38  C   UNK A  1        3.236   4.230 -14.242  0.00  0.00    +0.069 A 
ATOM     39  C   UNK A  1        4.634   4.343 -14.182  0.00  0.00    +0.126 A 
ATOM     40  C   UNK A  1        5.231   5.080 -13.125  0.00  0.00    +0.017 A 
ATOM     41  C   UNK A  1        4.380   5.795 -12.256  0.00  0.00    +0.014 A 
ATOM     42  C   UNK A  1        2.990   5.692 -12.333  0.00  0.00    -0.016 A 
ATOM     43  C   UNK A  1        0.315   5.200  -9.323  0.00  0.00    +0.168 C 
ATOM     44  C   UNK A  1        2.207   6.782 -10.057  0.00  0.00    +0.082 C 
BRANCH  40  45
ATOM     45  C   UNK A  1        6.783   5.250 -12.980  0.00  0.00    +0.136 C 
ATOM     46  C   UNK A  1        7.285   5.501 -11.479  0.00  0.00    +0.034 C 
ATOM     47  C   UNK A  1        6.626   4.820 -10.222  0.00  0.00    +0.008 C 
ATOM     48  C   UNK A  1        7.647   4.826  -9.040  0.00  0.00    +0.041 C 
ATOM     49  C   UNK A  1        8.640   3.616  -8.926  0.00  0.00    +0.079 C 
ATOM     50  C   UNK A  1        8.043   2.289  -9.507  0.00  0.00    +0.119 C 
ATOM     51  N   UNK A  1        7.267   2.517 -10.724  0.00  0.00    -0.299 NA
ATOM     52  C   UNK A  1        6.894   1.331 -11.489  0.00  0.00    +0.089 C 
ATOM     53  C   UNK A  1        6.516   1.750 -12.931  0.00  0.00    +0.053 C 
ATOM     54  C   UNK A  1        7.568   2.663 -13.553  0.00  0.00    -0.016 A 
ATOM     55  C   UNK A  1        8.736   2.150 -14.221  0.00  0.00    +0.003 A 
ATOM     56  C   UNK A  1        9.184   0.858 -14.550  0.00  0.00    +0.010 A 
ATOM     57  C   UNK A  1       10.406   0.706 -15.202  0.00  0.00    +0.001 A 
ATOM     58  C   UNK A  1       11.188   1.811 -15.525  0.00  0.00    +0.002 A 
ATOM     59  C   UNK A  1       10.787   3.110 -15.211  0.00  0.00    +0.026 A 
ATOM     60  C   UNK A  1        9.557   3.252 -14.559  0.00  0.00    +0.047 A 
ATOM     61  N   UNK A  1        8.897   4.366 -14.109  0.00  0.00    -0.357 N 
ATOM     62  H   UNK A  1        9.223   5.319 -14.186  0.00  0.00    +0.166 HD
ATOM     63  C   UNK A  1        6.136   3.378 -10.418  0.00  0.00    +0.088 C 
ATOM     64  C   UNK A  1        7.666   4.074 -13.548  0.00  0.00    +0.042 A 
BRANCH  49  65
ATOM     65  C   UNK A  1        9.174   3.380  -7.491  0.00  0.00    +0.032 C 
ATOM     66  C   UNK A  1        9.910   4.575  -6.859  0.00  0.00    +0.007 C 
ENDBRANCH  49  65
BRANCH  45  67
ATOM     67  C   UNK A  1        6.991   6.559 -13.833  0.00  0.00    +0.323 C 
ATOM     68  O   UNK A  1        7.109   7.677 -13.322  0.00  0.00    -0.249 OA
BRANCH  67  69
ATOM     69  O   UNK A  1        6.994   6.336 -15.175  0.00  0.00    -0.467 OA
ATOM     70  C   UNK A  1        7.149   7.408 -16.091  0.00  0.00    +0.280 C 
ENDBRANCH  67  69
ENDBRANCH  45  67
BRANCH  49  71
ATOM     71  O   UNK A  1        9.726   3.867  -9.806  0.00  0.00    -0.387 OA
ATOM     72  H   UNK A  1       10.298   3.097  -9.807  0.00  0.00    +0.210 HD
ENDBRANCH  49  71
ENDBRANCH  40  45
BRANCH  34  73
ATOM     73  O   UNK A  1       -1.141   4.225 -11.028  0.00  0.00    -0.375 OA
ATOM     74  H   UNK A  1       -1.629   5.052 -10.992  0.00  0.00    +0.211 HD
ENDBRANCH  34  73
BRANCH  25  75
ATOM     75  C   UNK A  1        2.757   4.698  -8.582  0.00  0.00    +0.012 C 
ATOM     76  C   UNK A  1        3.986   5.122  -7.750  0.00  0.00    +0.005 C 
ENDBRANCH  25  75
BRANCH  39  77
ATOM     77  O   UNK A  1        5.448   3.800 -15.160  0.00  0.00    -0.495 OA
ATOM     78  C   UNK A  1        4.893   3.038 -16.227  0.00  0.00    +0.277 C 
ENDBRANCH  39  77
BRANCH  43  79
ATOM     79  O   UNK A  1       -0.704   6.197  -9.220  0.00  0.00    -0.387 OA
ATOM     80  H   UNK A  1       -0.445   6.950  -9.756  0.00  0.00    +0.210 HD
ENDBRANCH  43  79
ENDBRANCH  21  34
ENDBRANCH  17  23
ENDBRANCH  16  19
ENDBRANCH  15  16
ENDBRANCH  14  15
ENDBRANCH  13  14
ENDBRANCH  12  13
ENDBRANCH  11  12
ENDBRANCH   6  11
ENDBRANCH   2   6
ENDBRANCH   1   4
BRANCH   1  81
ATOM     81  N   UNK A  1        2.081   1.035  -2.271  0.00  0.00    -0.302 N 
ATOM     82  H   UNK A  1        2.901   0.959  -1.687  0.00  0.00    +0.150 HD
ATOM     83  C   UNK A  1        2.237   1.263  -3.585  0.00  0.00    +0.234 C 
ATOM     84  O   UNK A  1        1.309   1.343  -4.388  0.00  0.00    -0.274 OA
BRANCH  83  85
ATOM     85  C   UNK A  1        3.693   1.389  -4.068  0.00  0.00    +0.169 C 
BRANCH  85  86
ATOM     86  N   UNK A  1        4.276   0.060  -4.261  0.00  0.00    -0.302 N 
ATOM     87  H   UNK A  1        4.256  -0.286  -5.209  0.00  0.00    +0.150 HD
ATOM     88  C   UNK A  1        4.808  -0.707  -3.297  0.00  0.00    +0.234 C 
ATOM     89  O   UNK A  1        4.896  -0.382  -2.111  0.00  0.00    -0.274 OA
BRANCH  88  90
ATOM     90  C   UNK A  1        5.289  -2.092  -3.747  0.00  0.00    +0.159 C 
BRANCH  90  91
ATOM     91  N   UNK A  1        6.485  -2.468  -2.996  0.00  0.00    -0.302 N 
ATOM     92  H   UNK A  1        6.561  -2.075  -2.069  0.00  0.00    +0.150 HD
ATOM     93  C   UNK A  1        7.420  -3.322  -3.439  0.00  0.00    +0.234 C 
ATOM     94  O   UNK A  1        7.423  -3.830  -4.562  0.00  0.00    -0.274 OA
BRANCH  93  95
ATOM     95  C   UNK A  1        8.547  -3.656  -2.446  0.00  0.00    +0.169 C 
BRANCH  95  96
ATOM     96  N   UNK A  1        8.988  -5.052  -2.572  0.00  0.00    -0.303 N 
ATOM     97  H   UNK A  1        9.929  -5.181  -2.916  0.00  0.00    +0.149 HD
ATOM     98  C   UNK A  1        8.244  -6.136  -2.285  0.00  0.00    +0.214 C 
ATOM     99  O   UNK A  1        7.086  -6.073  -1.871  0.00  0.00    -0.276 OA
BRANCH  98 100
ATOM    100  C   UNK A  1        8.907  -7.502  -2.514  0.00  0.00    +0.098 C 
BRANCH 100 101
ATOM    101  C   UNK A  1        8.824  -8.483  -1.315  0.00  0.00    +0.043 C 
BRANCH 101 102
ATOM    102  C   UNK A  1        9.276  -7.928   0.069  0.00  0.00    +0.182 C 
BRANCH 102 103
ATOM    103  N   UNK A  1       10.587  -7.255  -0.032  0.00  0.00    -0.298 N 
ATOM    104  H   UNK A  1       11.177  -7.581  -0.784  0.00  0.00    +0.150 HD
ATOM    105  C   UNK A  0       11.045  -6.264   0.760  0.00  0.00    +0.245 C 
ATOM    106  O   UNK A  0       10.389  -5.806   1.698  0.00  0.00    -0.270 OA
BRANCH 105 107
ATOM    107  C   UNK A  0       12.424  -5.724   0.441  0.00  0.00    +0.037 A 
ATOM    108  C   UNK A  0       13.100  -6.079  -0.737  0.00  0.00    +0.015 A 
ATOM    109  C   UNK A  0       14.354  -5.548  -1.022  0.00  0.00    +0.023 A 
ATOM    110  C   UNK A  0       14.961  -4.657  -0.136  0.00  0.00    +0.027 A 
ATOM    111  C   UNK A  0       14.297  -4.302   1.044  0.00  0.00    +0.023 A 
ATOM    112  C   UNK A  0       13.041  -4.830   1.327  0.00  0.00    +0.015 A 
BRANCH 110 113
ATOM    113  N   UNK A  0       16.227  -4.155  -0.479  0.00  0.00    -0.338 N 
ATOM    114  H   UNK A  0       16.604  -4.355  -1.395  0.00  0.00    +0.146 HD
BRANCH 113 115
ATOM    115  C   UNK A  0       16.932  -3.184   0.355  0.00  0.00    +0.158 C 
BRANCH 115 116
ATOM    116  C   UNK A  0       18.306  -2.805  -0.194  0.00  0.00    +0.077 A 
ATOM    117  C   UNK A  0       19.334  -2.421   0.681  0.00  0.00    +0.138 A 
ATOM    118  N   UNK A  0       20.561  -2.039   0.231  0.00  0.00    -0.232 NA
ATOM    119  C   UNK A  0       20.746  -2.034  -1.115  0.00  0.00    +0.187 A 
ATOM    120  N   UNK A  0       22.004  -1.642  -1.629  0.00  0.00    -0.195 NA
ATOM    121  C   UNK A  0       22.144  -1.643  -2.914  0.00  0.00    +0.195 A 
ATOM    122  N   UNK A  0       21.270  -1.963  -3.807  0.00  0.00    -0.293 N 
ATOM    123  H   UNK A  0       21.523  -1.914  -4.757  0.00  0.00    +0.172 HD
ATOM    124  C   UNK A  0       20.031  -2.358  -3.487  0.00  0.00    +0.280 A 
ATOM    125  O   UNK A  0       19.164  -2.673  -4.303  0.00  0.00    -0.265 OA
ATOM    126  C   UNK A  0       19.711  -2.408  -1.995  0.00  0.00    +0.172 A 
ATOM    127  N   UNK A  0       18.485  -2.791  -1.548  0.00  0.00    -0.240 NA
BRANCH 121 128
ATOM    128  N   UNK A  0       23.373  -1.257  -3.384  0.00  0.00    -0.329 N 
ATOM    129  H   UNK A  0       24.105  -0.993  -2.742  0.00  0.00    +0.145 HD
ATOM    130  H   UNK A  0       23.549  -1.222  -4.377  0.00  0.00    +0.145 HD
ENDBRANCH 121 128
ENDBRANCH 115 116
ENDBRANCH 113 115
ENDBRANCH 110 113
ENDBRANCH 105 107
ENDBRANCH 102 103
BRANCH 102 131
ATOM    131  C   UNK A  1        9.206  -9.036   1.195  0.00  0.00    +0.325 C 
ATOM    132  O   UNK A  1        8.040  -9.401   1.475  0.00  0.00    -0.249 OA
BRANCH 131 133
ATOM    133  O   UNK A  1       10.289  -9.457   1.668  0.00  0.00    -0.479 OA
ATOM    134  H   UNK A  1       10.285 -10.114   2.336  0.00  0.00    +0.295 HD
ENDBRANCH 131 133
ENDBRANCH 102 131
ENDBRANCH 101 102
ENDBRANCH 100 101
ENDBRANCH  98 100
ENDBRANCH  95  96
BRANCH  95 135
ATOM    135  C   UNK A  1        9.723  -2.663  -2.642  0.00  0.00    +0.152 C 
BRANCH 135 136
ATOM    136  C   UNK A  1       11.026  -3.074  -1.950  0.00  0.00    +0.307 C 
ATOM    137  O   UNK A  1       12.006  -3.517  -2.545  0.00  0.00    -0.251 OA
BRANCH 136 138
ATOM    138  O   UNK A  1       10.968  -2.899  -0.598  0.00  0.00    -0.481 OA
ATOM    139  H   UNK A  1       11.775  -3.171  -0.155  0.00  0.00    +0.295 HD
ENDBRANCH 136 138
ENDBRANCH 135 136
ENDBRANCH  95 135
ENDBRANCH  93  95
ENDBRANCH  90  91
BRANCH  90 140
ATOM    140  C   UNK A  1        4.212  -3.183  -3.547  0.00  0.00    +0.033 C 
BRANCH 140 141
ATOM    141  C   UNK A  1        2.947  -3.033  -4.422  0.00  0.00    +0.017 C 
BRANCH 141 142
ATOM    142  C   UNK A  1        1.830  -4.057  -4.135  0.00  0.00    +0.084 C 
BRANCH 142 143
ATOM    143  N   UNK A  1        2.286  -5.459  -4.199  0.00  0.00    -0.283 NA
ATOM    144  H   UNK A  1        2.345  -5.852  -5.128  0.00  0.00    +0.125 HD
BRANCH 143 145
ATOM    145  C   UNK A  1        2.694  -6.227  -3.168  0.00  0.00    +0.167 C 
BRANCH 145 146
ATOM    146  N   UNK A  1        3.130  -7.466  -3.423  0.00  0.00    -0.297 NA
ATOM    147  H   UNK A  1        3.458  -8.053  -2.669  0.00  0.00    +0.121 HD
ATOM    148  H   UNK A  1        3.153  -7.813  -4.372  0.00  0.00    +0.121 HD
ENDBRANCH 145 146
BRANCH 145 149
ATOM    149  N   UNK A  1        2.685  -5.797  -1.895  0.00  0.00    -0.297 NA
ATOM    150  H   UNK A  1        2.373  -4.859  -1.680  0.00  0.00    +0.121 HD
ATOM    151  H   UNK A  1        3.014  -6.393  -1.148  0.00  0.00    +0.121 HD
ENDBRANCH 145 149
ENDBRANCH 143 145
ENDBRANCH 142 143
ENDBRANCH 141 142
ENDBRANCH 140 141
ENDBRANCH  90 140
ENDBRANCH  88  90
ENDBRANCH  85  86
BRANCH  85 152
ATOM    152  C   UNK A  1        3.818   2.280  -5.331  0.00  0.00    +0.152 C 
BRANCH 152 153
ATOM    153  C   UNK A  1        5.250   2.354  -5.886  0.00  0.00    +0.307 C 
ATOM    154  O   UNK A  1        5.561   1.555  -6.797  0.00  0.00    -0.251 OA
BRANCH 153 155
ATOM    155  O   UNK A  1        6.052   3.100  -5.282  0.00  0.00    -0.481 OA
ATOM    156  H   UNK A  1        6.936   3.178  -5.582  0.00  0.00    +0.295 HD
ENDBRANCH 153 155
ENDBRANCH 152 153
ENDBRANCH  85 152
ENDBRANCH  83  85
ENDBRANCH   1  81
BRANCH   1 157
ATOM    157  C   UNK A  1        0.948   0.155  -0.216  0.00  0.00    +0.152 C 
BRANCH 157 158
ATOM    158  C   UNK A  1        1.647  -1.220  -0.241  0.00  0.00    +0.307 C 
ATOM    159  O   UNK A  1        2.071  -1.649   0.855  0.00  0.00    -0.251 OA
BRANCH 158 160
ATOM    160  O   UNK A  1        1.617  -1.896  -1.294  0.00  0.00    -0.481 OA
ATOM    161  H   UNK A  1        2.037  -2.733  -1.326  0.00  0.00    +0.295 HD
ENDBRANCH 158 160
ENDBRANCH 157 158
ENDBRANCH   1 157
TORSDOF 56
