REMARK  Name = DB05596
REMARK                            x       y       z     vdW  Elec       q    Type
REMARK                         _______ _______ _______ _____ _____    ______ ____
ROOT
ATOM      1  N   LIG    1       -2.072  -1.353   0.112  0.00  0.00    -0.299 N 
ATOM      2  C   LIG    1       -2.856  -0.207  -0.101  0.00  0.00    +0.094 A 
ATOM      3  S   LIG    1       -4.569  -0.064   0.240  0.00  0.00    -0.079 S 
ATOM      4  C   LIG    1       -4.580   1.575  -0.310  0.00  0.00    +0.048 A 
ATOM      5  C   LIG    1       -3.328   1.988  -0.730  0.00  0.00    +0.021 A 
ATOM      6  C   LIG    1       -2.342   0.986  -0.615  0.00  0.00    +0.048 A 
ATOM      7  C   LIG    1       -0.907   1.015  -0.943  0.00  0.00    +0.144 A 
ATOM      8  C   LIG    1       -0.134  -0.116  -0.721  0.00  0.00    +0.143 A 
ATOM      9  C   LIG    1       -0.720  -1.357  -0.161  0.00  0.00    +0.268 A 
ATOM     10  O   LIG    1       -0.027  -2.358   0.061  0.00  0.00    -0.267 OA
ENDROOT
BRANCH   8  11
ATOM     11  C   LIG    1        1.308  -0.144  -1.006  0.00  0.00    +0.253 C 
ATOM     12  N   LIG    1        2.040   0.678  -0.230  0.00  0.00    -0.311 N 
ATOM     13  H   LIG    1        1.558   1.246   0.452  0.00  0.00    +0.149 HD
ATOM     14  O   LIG    1        1.799  -0.884  -1.861  0.00  0.00    -0.270 OA
BRANCH  12  15
ATOM     15  C   LIG    1        3.489   0.841  -0.308  0.00  0.00    +0.102 C 
BRANCH  15  16
ATOM     16  C   LIG    1        3.958   1.613  -1.556  0.00  0.00    +0.000 C 
BRANCH  16  17
ATOM     17  C   LIG    1        5.481   1.831  -1.571  0.00  0.00    -0.077 C 
BRANCH  17  18
ATOM     18  N   LIG    1        5.961   2.378  -2.939  0.00  0.00    +0.380 N 
ATOM     19  H   LIG    1        5.591   1.783  -3.668  0.00  0.00    -0.082 HD
ATOM     20  C   LIG    1        5.461   3.822  -3.193  0.00  0.00    -0.079 C 
ATOM     21  C   LIG    1        5.950   4.294  -4.575  0.00  0.00    -0.019 C 
ATOM     22  C   LIG    1        7.477   4.188  -4.719  0.00  0.00    -0.004 C 
ATOM     23  C   LIG    1        7.975   2.769  -4.397  0.00  0.00    -0.019 C 
ATOM     24  C   LIG    1        7.505   2.296  -3.010  0.00  0.00    -0.079 C 
ENDBRANCH  17  18
ENDBRANCH  16  17
ENDBRANCH  15  16
ENDBRANCH  12  15
ENDBRANCH   8  11
BRANCH   1  26
ATOM     25  C   LIG    1       -2.278  -2.962   2.094  0.00  0.00    +0.030 C 
ATOM     26  C   LIG    1       -2.701  -2.596   0.653  0.00  0.00    +0.085 C 
ATOM     27  C   LIG    1       -2.746  -3.785  -0.333  0.00  0.00    +0.030 C 
ENDBRANCH   1  26
BRANCH   7  28
ATOM     28  O   LIG    1       -0.446   2.117  -1.454  0.00  0.00    -0.505 OA
ATOM     29  H   LIG    1        0.460   2.185  -1.680  0.00  0.00    +0.292 HD
ENDBRANCH   7  28
TORSDOF 7
