REMARK  Name = DB05253
REMARK                            x       y       z     vdW  Elec       q    Type
REMARK                         _______ _______ _______ _____ _____    ______ ____
ROOT
ATOM      1  C   LIG    1        1.232   0.072   0.332  0.00  0.00    +0.046 C 
ATOM      2  C   LIG    1        1.909  -1.184   0.939  0.00  0.00    -0.055 C 
ATOM      3  C   LIG    1        2.635  -2.086   0.217  0.00  0.00    -0.044 C 
ATOM      4  C   LIG    1        2.719  -2.053  -1.318  0.00  0.00    +0.043 C 
ATOM      5  C   LIG    1        2.709  -3.482  -1.914  0.00  0.00    +0.083 C 
ATOM      6  C   LIG    1        3.711  -4.421  -1.231  0.00  0.00    +0.157 C 
ATOM      7  O   LIG    1        4.260  -5.346  -1.826  0.00  0.00    -0.293 OA
ATOM      8  C   LIG    1        3.872  -4.223   0.204  0.00  0.00    +0.050 C 
ATOM      9  C   LIG    1        3.387  -3.160   0.888  0.00  0.00    -0.041 C 
ATOM     10  C   LIG    1        3.631  -3.040   2.385  0.00  0.00    +0.036 C 
ATOM     11  C   LIG    1        2.317  -2.619   3.049  0.00  0.00    +0.013 C 
ATOM     12  C   LIG    1        1.732  -1.299   2.481  0.00  0.00    +0.020 C 
ATOM     13  C   LIG    1        2.310  -0.007   3.116  0.00  0.00    +0.006 C 
ATOM     14  C   LIG    1        2.390   0.121   4.643  0.00  0.00    +0.009 C 
ATOM     15  C   LIG    1        2.465   1.638   4.908  0.00  0.00    +0.057 C 
ATOM     16  C   LIG    1        2.353   2.344   3.511  0.00  0.00    +0.178 C 
ATOM     17  C   LIG    1        1.562   1.276   2.655  0.00  0.00    +0.019 C 
ATOM     18  C   LIG    1        0.039   1.282   3.033  0.00  0.00    +0.016 C 
ATOM     19  C   LIG    1        1.729   1.340   1.106  0.00  0.00    +0.023 C 
ENDROOT
BRANCH   1  23
ATOM     20  C   LIG    1       -3.075  -0.116  -0.405  0.00  0.00    +0.029 A 
ATOM     21  C   LIG    1       -2.329   1.039  -0.693  0.00  0.00    +0.023 A 
ATOM     22  C   LIG    1       -0.959   1.090  -0.457  0.00  0.00    +0.006 A 
ATOM     23  C   LIG    1       -0.287  -0.008   0.089  0.00  0.00    -0.040 A 
ATOM     24  C   LIG    1       -1.017  -1.169   0.365  0.00  0.00    +0.006 A 
ATOM     25  C   LIG    1       -2.387  -1.219   0.128  0.00  0.00    +0.023 A 
BRANCH  20  27
ATOM     26  C   LIG    1       -5.129   0.892  -1.415  0.00  0.00    +0.129 C 
ATOM     27  N   LIG    1       -4.479  -0.166  -0.640  0.00  0.00    -0.336 N 
ATOM     28  C   LIG    1       -5.191  -1.441  -0.554  0.00  0.00    +0.129 C 
ENDBRANCH  20  27
ENDBRANCH   1  23
BRANCH  16  29
ATOM     29  C   LIG    1        1.671   3.755   3.568  0.00  0.00    +0.202 C 
ATOM     30  O   LIG    1        1.207   4.201   4.619  0.00  0.00    -0.291 OA
BRANCH  29  31
ATOM     31  C   LIG    1        1.547   4.553   2.262  0.00  0.00    +0.237 C 
BRANCH  31  32
ATOM     32  O   LIG    1        1.172   5.898   2.529  0.00  0.00    -0.375 OA
ATOM     33  C   LIG    1        1.050   6.677   1.350  0.00  0.00    +0.194 C 
ENDBRANCH  31  32
ENDBRANCH  29  31
ENDBRANCH  16  29
BRANCH  16  34
ATOM     34  O   LIG    1        3.667   2.541   2.916  0.00  0.00    -0.450 OA
BRANCH  34  35
ATOM     35  C   LIG    1        4.696   3.281   3.435  0.00  0.00    +0.305 C 
ATOM     36  O   LIG    1        4.683   3.922   4.485  0.00  0.00    -0.251 OA
ATOM     37  C   LIG    1        5.931   3.244   2.545  0.00  0.00    +0.136 C 
ENDBRANCH  34  35
ENDBRANCH  16  34
TORSDOF 7
