REMARK  Name = DB05343
REMARK                            x       y       z     vdW  Elec       q    Type
REMARK                         _______ _______ _______ _____ _____    ______ ____
ROOT
ATOM      1  C   LIG    1       -0.043  -0.011   0.098  0.00  0.00    +0.098 C 
ENDROOT
BRANCH   1   2
ATOM      2  C   LIG    1       -0.747   1.375   0.021  0.00  0.00    +0.308 C 
ATOM      3  O   LIG    1       -0.453   2.244   0.875  0.00  0.00    -0.251 OA
BRANCH   2   4
ATOM      4  O   LIG    1       -1.584   1.546  -0.895  0.00  0.00    -0.480 OA
ATOM      5  H   LIG    1       -2.407   1.100  -0.867  0.00  0.00    +0.295 HD
ENDBRANCH   2   4
ENDBRANCH   1   2
BRANCH   1   6
ATOM      6  C   LIG    1       -0.535  -0.775   1.362  0.00  0.00    +0.014 C 
BRANCH   6   7
ATOM      7  C   LIG    1       -0.173  -2.273   1.383  0.00  0.00    -0.003 C 
ATOM      8  C   LIG    1       -0.765  -3.013   2.590  0.00  0.00    +0.004 C 
ENDBRANCH   6   7
ENDBRANCH   1   6
BRANCH   1   9
ATOM      9  C   LIG    1        1.510   0.114   0.029  0.00  0.00    +0.015 C 
BRANCH   9  10
ATOM     10  C   LIG    1        2.061   0.806  -1.238  0.00  0.00    +0.001 C 
BRANCH  10  11
ATOM     11  C   LIG    1        3.599   0.798  -1.303  0.00  0.00    +0.000 C 
BRANCH  11  12
ATOM     12  C   LIG    1        4.151   1.508  -2.552  0.00  0.00    -0.000 C 
BRANCH  12  13
ATOM     13  C   LIG    1        5.688   1.498  -2.617  0.00  0.00    -0.003 C 
ATOM     14  C   LIG    1        6.239   2.207  -3.862  0.00  0.00    +0.004 C 
ENDBRANCH  12  13
ENDBRANCH  11  12
ENDBRANCH  10  11
ENDBRANCH   9  10
ENDBRANCH   1   9
TORSDOF 9
