REMARK  Name = DB05255
REMARK                            x       y       z     vdW  Elec       q    Type
REMARK                         _______ _______ _______ _____ _____    ______ ____
ROOT
ATOM      1  C   LIG    1        0.414  -0.143  -1.144  0.00  0.00    +0.135 C 
ENDROOT
BRANCH   1   2
ATOM      2  O   LIG    1       -0.339  -1.208  -0.588  0.00  0.00    -0.390 OA
ATOM      3  H   LIG    1       -1.268  -1.056  -0.783  0.00  0.00    +0.210 HD
ENDBRANCH   1   2
BRANCH   1   4
ATOM      4  C   LIG    1       -0.169   1.187  -0.629  0.00  0.00    +0.258 C 
BRANCH   4   5
ATOM      5  O   LIG    1       -1.480   1.363  -1.161  0.00  0.00    -0.487 OA
BRANCH   5  12
ATOM      6  C   LIG    1       -2.553   4.610   0.326  0.00  0.00    -0.041 A 
ATOM      7  C   LIG    1       -3.834   4.697  -0.223  0.00  0.00    +0.045 A 
ATOM      8  C   LIG    1       -4.307   3.691  -1.063  0.00  0.00    +0.162 A 
ATOM      9  F   LIG    1       -5.549   3.784  -1.591  0.00  0.00    -0.202 F 
ATOM     10  C   LIG    1       -3.500   2.591  -1.359  0.00  0.00    +0.200 A 
ATOM     11  F   LIG    1       -3.972   1.620  -2.176  0.00  0.00    -0.199 F 
ATOM     12  C   LIG    1       -2.213   2.485  -0.820  0.00  0.00    +0.159 A 
ATOM     13  C   LIG    1       -1.747   3.508   0.025  0.00  0.00    +0.052 A 
BRANCH   6  14
ATOM     14  C   LIG    1       -2.040   5.710   1.245  0.00  0.00    +0.046 C 
BRANCH  14  15
ATOM     15  C   LIG    1       -1.421   6.900   0.466  0.00  0.00    +0.125 C 
BRANCH  15  16
ATOM     16  C   LIG    1       -0.984   8.097   1.344  0.00  0.00    +0.305 C 
ATOM     17  O   LIG    1       -0.733   9.163   0.737  0.00  0.00    -0.251 OA
BRANCH  16  18
ATOM     18  O   LIG    1       -0.877   7.957   2.585  0.00  0.00    -0.481 OA
ATOM     19  H   LIG    1       -1.079   7.133   2.982  0.00  0.00    +0.295 HD
ENDBRANCH  16  18
ENDBRANCH  15  16
ENDBRANCH  14  15
ENDBRANCH   6  14
ENDBRANCH   5  12
ENDBRANCH   4   5
ENDBRANCH   1   4
BRANCH   1  20
ATOM     20  C   LIG    1        1.910  -0.293  -0.787  0.00  0.00    -0.047 C 
BRANCH  20  21
ATOM     21  N   LIG    1        2.458  -1.649  -1.285  0.00  0.00    +0.384 N 
ATOM     22  H   LIG    1        2.376  -1.661  -2.292  0.00  0.00    -0.085 HD
ATOM     23  H   LIG    1        1.852  -2.374  -0.929  0.00  0.00    -0.085 HD
BRANCH  21  24
ATOM     24  C   LIG    1        3.913  -2.043  -0.926  0.00  0.00    -0.074 C 
ATOM     25  C   LIG    1        4.864  -0.925  -1.418  0.00  0.00    -0.010 C 
ATOM     26  C   LIG    1        4.207  -3.341  -1.714  0.00  0.00    -0.010 C 
BRANCH  24  27
ATOM     27  C   LIG    1        4.066  -2.250   0.615  0.00  0.00    -0.009 C 
BRANCH  27  28
ATOM     28  C   LIG    1        3.281  -3.407   1.293  0.00  0.00    -0.004 C 
ATOM     29  C   LIG    1        3.698  -3.665   2.748  0.00  0.00    +0.039 C 
ATOM     30  C   LIG    1        2.473  -4.309   3.360  0.00  0.00    -0.044 A 
ATOM     31  C   LIG    1        2.323  -4.933   4.600  0.00  0.00    +0.004 A 
ATOM     32  C   LIG    1        1.061  -5.367   5.009  0.00  0.00    +0.000 A 
ATOM     33  C   LIG    1       -0.053  -5.146   4.197  0.00  0.00    +0.000 A 
ATOM     34  C   LIG    1        0.090  -4.489   2.974  0.00  0.00    +0.004 A 
ATOM     35  C   LIG    1        1.358  -4.088   2.547  0.00  0.00    -0.044 A 
ATOM     36  C   LIG    1        1.752  -3.280   1.331  0.00  0.00    +0.039 C 
ENDBRANCH  27  28
ENDBRANCH  24  27
ENDBRANCH  21  24
ENDBRANCH  20  21
ENDBRANCH   1  20
TORSDOF 13
