REMARK  Name = DB05808
REMARK                            x       y       z     vdW  Elec       q    Type
REMARK                         _______ _______ _______ _____ _____    ______ ____
ROOT
ATOM      1  C   LIG    1       -0.603   0.073   0.077  0.00  0.00    +0.191 C 
ATOM      2  C   LIG    1       -1.198  -0.754  -1.084  0.00  0.00    +0.239 C 
ATOM      3  C   LIG    1       -0.784  -2.239  -0.996  0.00  0.00    +0.285 C 
ATOM      4  O   LIG    1       -1.076  -2.776   0.276  0.00  0.00    -0.340 OA
ATOM      5  C   LIG    1       -0.482  -2.078   1.377  0.00  0.00    +0.183 C 
ATOM      6  C   LIG    1       -1.000  -0.625   1.401  0.00  0.00    +0.214 C 
ENDROOT
BRANCH   1   7
ATOM      7  O   LIG    1        0.802   0.202  -0.190  0.00  0.00    -0.340 OA
BRANCH   7  10
ATOM      8  C   LIG    1        4.012   0.996   1.215  0.00  0.00    +0.181 C 
ATOM      9  O   LIG    1        2.987   0.609   0.287  0.00  0.00    -0.340 OA
ATOM     10  C   LIG    1        1.673   0.735   0.763  0.00  0.00    +0.285 C 
ATOM     11  C   LIG    1        1.369   2.225   1.020  0.00  0.00    +0.241 C 
ATOM     12  C   LIG    1        2.342   2.700   2.128  0.00  0.00    +0.221 C 
ATOM     13  C   LIG    1        3.810   2.444   1.738  0.00  0.00    +0.217 C 
BRANCH  11  14
ATOM     14  O   LIG    1        1.510   2.949  -0.203  0.00  0.00    -0.205 OA
BRANCH  14  15
ATOM     15  S   LIG    1        0.446   4.192  -0.567  0.00  0.00    +0.208 S 
ATOM     16  O   LIG    1        0.791   4.546  -1.948  0.00  0.00    -0.118 OA
ATOM     17  O   LIG    1       -0.889   3.600  -0.416  0.00  0.00    -0.118 OA
BRANCH  15  18
ATOM     18  O   LIG    1        0.753   5.242   0.410  0.00  0.00    -0.231 OA
ATOM     19  H   LIG    1        0.170   6.003   0.260  0.00  0.00    +0.247 HD
ENDBRANCH  15  18
ENDBRANCH  14  15
ENDBRANCH  11  14
BRANCH   8  20
ATOM     20  C   LIG    1        4.226  -0.060   2.320  0.00  0.00    +0.206 C 
BRANCH  20  21
ATOM     21  O   LIG    1        5.380   0.242   3.087  0.00  0.00    -0.284 OA
BRANCH  21  22
ATOM     22  P   LIG    1        6.805  -0.485   2.771  0.00  0.00    +0.472 P 
ATOM     23  O   LIG    1        6.796  -1.971   2.866  0.00  0.00    -0.228 OA
BRANCH  22  24
ATOM     24  O   LIG    1        7.228   0.114   1.323  0.00  0.00    -0.303 OA
ATOM     25  H   LIG    1        7.127   1.081   1.210  0.00  0.00    +0.222 HD
ENDBRANCH  22  24
BRANCH  22  26
ATOM     26  O   LIG    1        7.823   0.268   3.788  0.00  0.00    -0.303 OA
ATOM     27  H   LIG    1        7.816   1.243   3.742  0.00  0.00    +0.222 HD
ENDBRANCH  22  26
ENDBRANCH  21  22
ENDBRANCH  20  21
ENDBRANCH   8  20
BRANCH  13  28
ATOM     28  O   LIG    1        4.238   3.368   0.740  0.00  0.00    -0.207 OA
BRANCH  28  29
ATOM     29  S   LIG    1        5.742   4.082   0.911  0.00  0.00    +0.208 S 
ATOM     30  O   LIG    1        5.614   4.907   2.119  0.00  0.00    -0.118 OA
ATOM     31  O   LIG    1        6.671   2.954   1.056  0.00  0.00    -0.118 OA
BRANCH  29  32
ATOM     32  O   LIG    1        5.910   4.849  -0.328  0.00  0.00    -0.231 OA
ATOM     33  H   LIG    1        6.768   5.302  -0.314  0.00  0.00    +0.247 HD
ENDBRANCH  29  32
ENDBRANCH  28  29
ENDBRANCH  13  28
BRANCH  12  34
ATOM     34  O   LIG    1        2.174   4.057   2.526  0.00  0.00    -0.207 OA
BRANCH  34  35
ATOM     35  S   LIG    1        1.056   4.432   3.715  0.00  0.00    +0.208 S 
ATOM     36  O   LIG    1       -0.235   4.016   3.158  0.00  0.00    -0.118 OA
ATOM     37  O   LIG    1        1.488   3.651   4.881  0.00  0.00    -0.118 OA
BRANCH  35  38
ATOM     38  O   LIG    1        1.200   5.883   3.881  0.00  0.00    -0.231 OA
ATOM     39  H   LIG    1        0.582   6.193   4.561  0.00  0.00    +0.247 HD
ENDBRANCH  35  38
ENDBRANCH  34  35
ENDBRANCH  12  34
ENDBRANCH   7  10
ENDBRANCH   1   7
BRANCH   6  40
ATOM     40  O   LIG    1       -0.562   0.080   2.559  0.00  0.00    -0.207 OA
BRANCH  40  41
ATOM     41  S   LIG    1       -1.689   0.893   3.486  0.00  0.00    +0.208 S 
ATOM     42  O   LIG    1       -0.996   1.491   4.631  0.00  0.00    -0.118 OA
ATOM     43  O   LIG    1       -2.540   1.691   2.596  0.00  0.00    -0.118 OA
BRANCH  41  44
ATOM     44  O   LIG    1       -2.583  -0.390   4.046  0.00  0.00    -0.231 OA
ATOM     45  H   LIG    1       -2.400  -0.546   4.992  0.00  0.00    +0.247 HD
ENDBRANCH  41  44
ENDBRANCH  40  41
ENDBRANCH   6  40
BRANCH   3  46
ATOM     46  O   LIG    1        0.571  -2.371  -1.342  0.00  0.00    -0.338 OA
BRANCH  46  47
ATOM     47  C   LIG    1        1.097  -3.703  -1.398  0.00  0.00    +0.213 C 
ATOM     48  C   LIG    1        0.981  -4.316  -2.813  0.00  0.00    +0.314 C 
ATOM     49  O   LIG    1        1.825  -3.602  -3.714  0.00  0.00    -0.339 OA
ATOM     50  C   LIG    1        3.226  -3.705  -3.448  0.00  0.00    +0.183 C 
ATOM     51  C   LIG    1        3.530  -3.121  -2.044  0.00  0.00    +0.217 C 
ATOM     52  C   LIG    1        2.583  -3.697  -0.964  0.00  0.00    +0.219 C 
BRANCH  50  53
ATOM     53  C   LIG    1        3.790  -5.124  -3.674  0.00  0.00    +0.230 C 
BRANCH  53  54
ATOM     54  O   LIG    1        3.393  -5.577  -4.960  0.00  0.00    -0.213 OA
BRANCH  54  55
ATOM     55  S   LIG    1        3.141  -7.214  -5.174  0.00  0.00    +0.208 S 
ATOM     56  O   LIG    1        2.315  -7.716  -4.069  0.00  0.00    -0.118 OA
ATOM     57  O   LIG    1        2.767  -7.443  -6.573  0.00  0.00    -0.118 OA
BRANCH  55  58
ATOM     58  O   LIG    1        4.690  -7.772  -4.957  0.00  0.00    -0.231 OA
ATOM     59  H   LIG    1        5.061  -8.094  -5.801  0.00  0.00    +0.247 HD
ENDBRANCH  55  58
ENDBRANCH  54  55
ENDBRANCH  53  54
ENDBRANCH  50  53
BRANCH  48  60
ATOM     60  O   LIG    1       -0.339  -4.263  -3.332  0.00  0.00    -0.181 OA
BRANCH  60  61
ATOM     61  S   LIG    1       -0.781  -5.387  -4.486  0.00  0.00    +0.210 S 
ATOM     62  O   LIG    1        0.215  -5.234  -5.553  0.00  0.00    -0.118 OA
ATOM     63  O   LIG    1       -0.712  -6.671  -3.778  0.00  0.00    -0.118 OA
BRANCH  61  64
ATOM     64  O   LIG    1       -2.140  -4.980  -4.859  0.00  0.00    -0.231 OA
ATOM     65  H   LIG    1       -2.484  -5.584  -5.535  0.00  0.00    +0.247 HD
ENDBRANCH  61  64
ENDBRANCH  60  61
ENDBRANCH  48  60
BRANCH  52  66
ATOM     66  O   LIG    1        2.766  -3.018   0.277  0.00  0.00    -0.207 OA
BRANCH  66  67
ATOM     67  S   LIG    1        2.835  -3.914   1.686  0.00  0.00    +0.208 S 
ATOM     68  O   LIG    1        2.770  -2.987   2.821  0.00  0.00    -0.118 OA
ATOM     69  O   LIG    1        1.919  -5.055   1.582  0.00  0.00    -0.118 OA
BRANCH  67  70
ATOM     70  O   LIG    1        4.393  -4.479   1.576  0.00  0.00    -0.231 OA
ATOM     71  H   LIG    1        5.035  -3.765   1.765  0.00  0.00    +0.247 HD
ENDBRANCH  67  70
ENDBRANCH  66  67
ENDBRANCH  52  66
BRANCH  51  72
ATOM     72  O   LIG    1        3.453  -1.700  -2.095  0.00  0.00    -0.207 OA
BRANCH  72  73
ATOM     73  S   LIG    1        4.890  -0.844  -2.161  0.00  0.00    +0.208 S 
ATOM     74  O   LIG    1        5.538  -1.147  -0.880  0.00  0.00    -0.118 OA
ATOM     75  O   LIG    1        5.589  -1.395  -3.328  0.00  0.00    -0.118 OA
BRANCH  73  76
ATOM     76  O   LIG    1        4.462   0.550  -2.316  0.00  0.00    -0.231 OA
ATOM     77  H   LIG    1        5.243   1.124  -2.363  0.00  0.00    +0.247 HD
ENDBRANCH  73  76
ENDBRANCH  72  73
ENDBRANCH  51  72
ENDBRANCH  46  47
ENDBRANCH   3  46
BRANCH   5  78
ATOM     78  C   LIG    1       -0.789  -2.882   2.652  0.00  0.00    +0.230 C 
BRANCH  78  79
ATOM     79  O   LIG    1       -0.067  -2.340   3.746  0.00  0.00    -0.213 OA
BRANCH  79  80
ATOM     80  S   LIG    1       -0.148  -3.142   5.206  0.00  0.00    +0.208 S 
ATOM     81  O   LIG    1        0.022  -4.582   4.975  0.00  0.00    -0.118 OA
ATOM     82  O   LIG    1        0.693  -2.416   6.163  0.00  0.00    -0.118 OA
BRANCH  80  83
ATOM     83  O   LIG    1       -1.737  -2.864   5.601  0.00  0.00    -0.231 OA
ATOM     84  H   LIG    1       -2.242  -3.699   5.613  0.00  0.00    +0.247 HD
ENDBRANCH  80  83
ENDBRANCH  79  80
ENDBRANCH  78  79
ENDBRANCH   5  78
BRANCH   2  85
ATOM     85  O   LIG    1       -0.855  -0.190  -2.347  0.00  0.00    -0.205 OA
BRANCH  85  86
ATOM     86  S   LIG    1       -2.058  -0.018  -3.494  0.00  0.00    +0.208 S 
ATOM     87  O   LIG    1       -2.603  -1.372  -3.653  0.00  0.00    -0.118 OA
ATOM     88  O   LIG    1       -2.995   0.937  -2.891  0.00  0.00    -0.118 OA
BRANCH  86  89
ATOM     89  O   LIG    1       -1.348   0.491  -4.672  0.00  0.00    -0.231 OA
ATOM     90  H   LIG    1       -1.979   0.622  -5.398  0.00  0.00    +0.247 HD
ENDBRANCH  86  89
ENDBRANCH  85  86
ENDBRANCH   2  85
TORSDOF 41
