REMARK  Name = DB05409
REMARK                            x       y       z     vdW  Elec       q    Type
REMARK                         _______ _______ _______ _____ _____    ______ ____
ROOT
ATOM      1  O   LIG    1        1.778  -2.093   0.904  0.00  0.00    -0.426 OA
ENDROOT
BRANCH   1   2
ATOM      2  C   LIG    1        2.171  -3.412   0.921  0.00  0.00    +0.132 A 
ATOM      3  C   LIG    1        1.355  -4.397   0.361  0.00  0.00    +0.048 A 
ATOM      4  C   LIG    1        1.744  -5.732   0.402  0.00  0.00    +0.027 A 
ATOM      5  C   LIG    1        2.952  -6.093   1.022  0.00  0.00    +0.034 A 
ATOM      6  C   LIG    1        3.765  -5.102   1.577  0.00  0.00    +0.027 A 
ATOM      7  C   LIG    1        3.373  -3.767   1.536  0.00  0.00    +0.048 A 
BRANCH   5   8
ATOM      8  N   LIG    1        3.437  -7.412   1.105  0.00  0.00    -0.286 N 
ATOM      9  H   LIG    1        4.413  -7.486   1.351  0.00  0.00    +0.155 HD
ATOM     10  C   LIG    1        2.761  -8.574   0.974  0.00  0.00    +0.214 C 
ATOM     11  C   LIG    1        3.598  -9.843   1.101  0.00  0.00    +0.109 C 
ATOM     12  O   LIG    1        1.550  -8.679   0.787  0.00  0.00    -0.276 OA
ENDBRANCH   5   8
ENDBRANCH   1   2
BRANCH   1  13
ATOM     13  C   LIG    1        2.020  -1.336  -0.202  0.00  0.00    +0.312 C 
ATOM     14  O   LIG    1        2.595  -1.695  -1.231  0.00  0.00    -0.250 OA
BRANCH  13  15
ATOM     15  C   LIG    1        1.488   0.091  -0.055  0.00  0.00    +0.124 C 
BRANCH  15  16
ATOM     16  C   LIG    1       -0.051   0.163  -0.090  0.00  0.00    +0.055 C 
BRANCH  16  17
ATOM     17  C   LIG    1       -0.576   1.598   0.052  0.00  0.00    +0.268 C 
BRANCH  17  18
ATOM     18  O   LIG    1       -2.006   1.564   0.019  0.00  0.00    -0.354 OA
BRANCH  18  19
ATOM     19  N   LIG    1       -2.636   2.842   0.161  0.00  0.00    +0.171 N 
ATOM     20  O   LIG    1       -3.840   2.766   0.133  0.00  0.00    -0.094 OA
BRANCH  19  21
ATOM     21  O   LIG    1       -1.924   3.814   0.286  0.00  0.00    -0.370 OA
ATOM     22  H   LIG    1       -0.992   3.715   0.288  0.00  0.00    +0.332 HD
ENDBRANCH  19  21
ENDBRANCH  18  19
ENDBRANCH  17  18
ENDBRANCH  16  17
ENDBRANCH  15  16
ENDBRANCH  13  15
ENDBRANCH   1  13
TORSDOF 9
