REMARK  Name = DB05616
REMARK                            x       y       z     vdW  Elec       q    Type
REMARK                         _______ _______ _______ _____ _____    ______ ____
ROOT
ATOM      1  C   UNK A  0       -2.768  -0.107  -0.116  0.00  0.00    -0.047 A 
ATOM      2  C   UNK A  0       -2.037  -1.192  -0.600  0.00  0.00    +0.004 A 
ATOM      3  C   UNK A  0       -0.647  -1.137  -0.634  0.00  0.00    +0.013 A 
ATOM      4  C   UNK A  0        0.034   0.002  -0.182  0.00  0.00    +0.037 A 
ATOM      5  C   UNK A  0       -0.713   1.089   0.303  0.00  0.00    +0.013 A 
ATOM      6  C   UNK A  0       -2.104   1.034   0.336  0.00  0.00    +0.004 A 
ENDROOT
BRANCH   4   7
ATOM      7  C   UNK A  0        1.547   0.040  -0.232  0.00  0.00    +0.245 C 
ATOM      8  O   UNK A  0        2.181  -0.796  -0.881  0.00  0.00    -0.270 OA
ATOM      9  N   UNK A  1        2.146   1.012   0.487  0.00  0.00    -0.298 N 
ATOM     10  H   UNK A  1        1.561   1.644   1.014  0.00  0.00    +0.150 HD
BRANCH   9  11
ATOM     11  C   UNK A  1        3.598   1.247   0.629  0.00  0.00    +0.186 C 
BRANCH  11  12
ATOM     12  C   UNK A  1        4.257   1.903  -0.649  0.00  0.00    +0.326 C 
ATOM     13  O   UNK A  1        5.498   1.744  -0.719  0.00  0.00    -0.249 OA
BRANCH  12  14
ATOM     14  O   UNK A  1        3.508   2.540  -1.428  0.00  0.00    -0.479 OA
ATOM     15  H   UNK A  1        3.864   2.942  -2.196  0.00  0.00    +0.295 HD
ENDBRANCH  12  14
ENDBRANCH  11  12
BRANCH  11  16
ATOM     16  C   UNK A  1        3.928   2.070   1.912  0.00  0.00    +0.075 C 
BRANCH  16  17
ATOM     17  C   UNK A  1        3.526   1.337   3.204  0.00  0.00    +0.032 C 
ATOM     18  C   UNK A  1        4.463   0.728   3.962  0.00  0.00    +0.019 C 
BRANCH  17  19
ATOM     19  C   UNK A  1        2.019   1.330   3.644  0.00  0.00    +0.332 C 
ATOM     20  O   UNK A  1        1.390   2.390   3.421  0.00  0.00    -0.246 OA
BRANCH  19  21
ATOM     21  O   UNK A  1        1.599   0.261   4.147  0.00  0.00    -0.477 OA
ATOM     22  H   UNK A  1        2.182  -0.464   4.260  0.00  0.00    +0.295 HD
ENDBRANCH  19  21
ENDBRANCH  17  19
ENDBRANCH  16  17
ENDBRANCH  11  16
ENDBRANCH   9  11
ENDBRANCH   4   7
BRANCH   1  23
ATOM     23  C   UNK A  0       -4.288  -0.166  -0.089  0.00  0.00    +0.036 C 
BRANCH  23  24
ATOM     24  C   UNK A  0       -4.916   0.183  -1.451  0.00  0.00    +0.013 C 
BRANCH  24  35
ATOM     25  C   UNK A  0       -8.471  -1.205  -1.393  0.00  0.00    +0.021 C 
ATOM     26  C   UNK A  0       -9.232  -0.018  -1.404  0.00  0.00    +0.054 C 
ATOM     27  N   UNK A  0      -10.610  -0.048  -1.386  0.00  0.00    -0.275 NA
ATOM     28  H   UNK A  0      -11.087  -0.937  -1.364  0.00  0.00    +0.126 HD
ATOM     29  C   UNK A  0      -11.347   1.075  -1.398  0.00  0.00    +0.172 C 
ATOM     30  N   UNK A  0      -10.815   2.318  -1.428  0.00  0.00    -0.262 NA
ATOM     31  H   UNK A  0      -11.166   2.782  -2.266  0.00  0.00    +0.127 HD
ATOM     32  C   UNK A  0       -9.462   2.410  -1.445  0.00  0.00    +0.111 C 
ATOM     33  C   UNK A  0       -8.604   1.265  -1.433  0.00  0.00    +0.040 C 
ATOM     34  C   UNK A  0       -7.183   1.307  -1.447  0.00  0.00    +0.012 C 
ATOM     35  C   UNK A  0       -6.437   0.124  -1.435  0.00  0.00    -0.016 C 
ATOM     36  C   UNK A  0       -7.081  -1.116  -1.410  0.00  0.00    +0.005 C 
BRANCH  29  37
ATOM     37  N   UNK A  0      -12.751   1.009  -1.378  0.00  0.00    -0.297 NA
ATOM     38  H   UNK A  0      -13.218   0.115  -1.356  0.00  0.00    +0.121 HD
ATOM     39  H   UNK A  0      -13.291   1.862  -1.386  0.00  0.00    +0.121 HD
ENDBRANCH  29  37
BRANCH  32  40
ATOM     40  N   UNK A  0       -8.956   3.710  -1.478  0.00  0.00    -0.310 NA
ATOM     41  H   UNK A  0       -9.600   4.488  -1.487  0.00  0.00    +0.120 HD
ATOM     42  H   UNK A  0       -7.957   3.858  -1.493  0.00  0.00    +0.120 HD
ENDBRANCH  32  40
ENDBRANCH  24  35
ENDBRANCH  23  24
ENDBRANCH   1  23
TORSDOF 13
