REMARK  Name = DB05431
REMARK                            x       y       z     vdW  Elec       q    Type
REMARK                         _______ _______ _______ _____ _____    ______ ____
ROOT
ATOM      1  C   LIG    1       -2.551  -0.129  -0.198  0.00  0.00    +0.193 C 
ATOM      2  C   LIG    1       -3.234  -0.624   1.078  0.00  0.00    +0.047 C 
ATOM      3  C   LIG    1       -2.999  -2.129   1.083  0.00  0.00    +0.038 C 
ATOM      4  C   LIG    1       -2.763  -2.464  -0.403  0.00  0.00    +0.157 C 
ATOM      5  O   LIG    1       -2.882  -1.203  -1.078  0.00  0.00    -0.358 OA
ENDROOT
BRANCH   1   7
ATOM      6  C   LIG    1        0.131   0.157  -0.022  0.00  0.00    -0.098 C 
ATOM      7  C   LIG    1       -1.082   0.043  -0.105  0.00  0.00    -0.071 C 
BRANCH   6   8
ATOM      8  C   LIG    1        1.595   0.265   0.084  0.00  0.00    +0.110 C 
BRANCH   8   9
ATOM      9  C   LIG    1        2.073   0.974   1.367  0.00  0.00    +0.154 C 
BRANCH   9  15
ATOM     10  C   LIG    1        4.335   1.995   0.936  0.00  0.00    +0.322 C 
ATOM     11  N   LIG    1        5.661   1.833   1.055  0.00  0.00    -0.312 N 
ATOM     12  H   LIG    1        6.292   2.523   0.677  0.00  0.00    +0.147 HD
ATOM     13  H   LIG    1        6.031   1.022   1.530  0.00  0.00    +0.147 HD
ATOM     14  O   LIG    1        3.885   2.988   0.366  0.00  0.00    -0.251 OA
ATOM     15  N   LIG    1        3.535   1.029   1.462  0.00  0.00    -0.167 N 
BRANCH  15  16
ATOM     16  O   LIG    1        4.135  -0.121   2.011  0.00  0.00    -0.291 OA
ATOM     17  H   LIG    1        3.803  -0.827   1.451  0.00  0.00    +0.242 HD
ENDBRANCH  15  16
ENDBRANCH   9  15
ENDBRANCH   8   9
ENDBRANCH   6   8
ENDBRANCH   1   7
BRANCH   4  18
ATOM     18  C   LIG    1       -3.796  -3.414  -1.030  0.00  0.00    +0.260 C 
BRANCH  18  19
ATOM     19  O   LIG    1       -3.563  -4.731  -0.539  0.00  0.00    -0.489 OA
BRANCH  19  20
ATOM     20  C   LIG    1       -4.370  -5.768  -0.966  0.00  0.00    +0.121 A 
ATOM     21  C   LIG    1       -5.453  -5.617  -1.848  0.00  0.00    +0.048 A 
ATOM     22  C   LIG    1       -6.212  -6.724  -2.221  0.00  0.00    +0.042 A 
ATOM     23  C   LIG    1       -5.894  -7.983  -1.718  0.00  0.00    +0.124 A 
ATOM     24  C   LIG    1       -4.824  -8.144  -0.843  0.00  0.00    +0.042 A 
ATOM     25  F   LIG    1       -6.631  -9.056  -2.081  0.00  0.00    -0.205 F 
ATOM     26  C   LIG    1       -4.066  -7.037  -0.469  0.00  0.00    +0.048 A 
ENDBRANCH  19  20
ENDBRANCH  18  19
ENDBRANCH   4  18
TORSDOF 8
