REMARK  Name = DB05938
REMARK                            x       y       z     vdW  Elec       q    Type
REMARK                         _______ _______ _______ _____ _____    ______ ____
ROOT
ATOM      1  O   LIG    1        2.062   0.483  -1.184  0.00  0.00    -0.380 OA
ENDROOT
BRANCH   1   2
ATOM      2  C   LIG    1        1.576  -0.116   0.008  0.00  0.00    +0.158 C 
BRANCH   2   3
ATOM      3  C   LIG    1        0.046   0.007   0.017  0.00  0.00    +0.009 C 
BRANCH   3   4
ATOM      4  C   LIG    1       -0.426   1.473   0.004  0.00  0.00    -0.076 C 
BRANCH   4   5
ATOM      5  N   LIG    1       -1.965   1.536  -0.040  0.00  0.00    +0.383 N 
ATOM      6  H   LIG    1       -2.361   0.985   0.710  0.00  0.00    -0.082 HD
ATOM      7  C   LIG    1       -2.593   2.933  -0.093  0.00  0.00    -0.049 C 
ATOM      8  C   LIG    1       -3.043   2.701  -1.541  0.00  0.00    +0.082 C 
ATOM      9  C   LIG    1       -2.640   1.231  -1.383  0.00  0.00    -0.049 C 
BRANCH   8  10
ATOM     10  O   LIG    1       -4.395   2.969  -1.849  0.00  0.00    -0.395 OA
ATOM     11  H   LIG    1       -4.529   3.920  -1.855  0.00  0.00    +0.210 HD
ENDBRANCH   8  10
ENDBRANCH   4   5
ENDBRANCH   3   4
ENDBRANCH   2   3
ENDBRANCH   1   2
BRANCH   1  12
ATOM     12  C   LIG    1        3.475   0.602  -1.256  0.00  0.00    +0.164 C 
BRANCH  12  13
ATOM     13  C   LIG    1        3.843   1.426  -2.502  0.00  0.00    +0.063 C 
BRANCH  13  14
ATOM     14  C   LIG    1        3.209   2.811  -2.493  0.00  0.00    -0.045 A 
ATOM     15  C   LIG    1        3.883   3.878  -1.894  0.00  0.00    +0.012 A 
ATOM     16  C   LIG    1        3.286   5.150  -1.853  0.00  0.00    -0.011 A 
ATOM     17  C   LIG    1        1.992   5.313  -2.435  0.00  0.00    +0.019 A 
ATOM     18  S   LIG    1        1.417   6.967  -2.279  0.00  0.00    -0.097 S 
ATOM     19  C   LIG    1        2.888   7.411  -1.452  0.00  0.00    +0.046 A 
ATOM     20  C   LIG    1        1.321   4.241  -3.039  0.00  0.00    +0.016 A 
ATOM     21  C   LIG    1        3.773   6.367  -1.299  0.00  0.00    +0.016 A 
ATOM     22  C   LIG    1        1.947   2.999  -3.059  0.00  0.00    +0.005 A 
ENDBRANCH  13  14
ENDBRANCH  12  13
ENDBRANCH   1  12
TORSDOF 8
