REMARK  Name = DB05805
REMARK                            x       y       z     vdW  Elec       q    Type
REMARK                         _______ _______ _______ _____ _____    ______ ____
ROOT
ATOM      1  N   LIG    1       -2.074  -0.649  -1.260  0.00  0.00    +0.382 N 
ATOM      2  H   LIG    1       -2.303   0.267  -0.900  0.00  0.00    -0.081 HD
ATOM      3  C   LIG    1       -2.797  -0.830  -2.611  0.00  0.00    -0.095 C 
ATOM      4  C   LIG    1       -2.418  -1.707  -0.196  0.00  0.00    -0.068 C 
ATOM      5  C   LIG    1       -1.546  -2.913  -0.598  0.00  0.00    -0.017 C 
ATOM      6  C   LIG    1       -0.333  -2.322  -1.334  0.00  0.00    -0.016 C 
ATOM      7  C   LIG    1       -2.043  -1.079   1.170  0.00  0.00    -0.007 C 
ATOM      8  C   LIG    1       -0.545  -0.659   1.264  0.00  0.00    +0.021 C 
ATOM      9  C   LIG    1        0.038  -0.069  -0.067  0.00  0.00    +0.008 C 
ATOM     10  C   LIG    1       -0.540  -0.793  -1.322  0.00  0.00    -0.063 C 
ENDROOT
BRANCH   8  11
ATOM     11  C   LIG    1       -0.280   0.210   2.498  0.00  0.00    -0.043 A 
ATOM     12  C   LIG    1        0.526  -0.259   3.542  0.00  0.00    +0.005 A 
ATOM     13  C   LIG    1        0.765   0.536   4.662  0.00  0.00    +0.022 A 
ATOM     14  C   LIG    1        0.202   1.809   4.755  0.00  0.00    +0.059 A 
ATOM     15 CL   LIG    1        0.521   2.764   6.162  0.00  0.00    -0.082 Cl
ATOM     16  C   LIG    1       -0.606   2.289   3.716  0.00  0.00    +0.060 A 
ATOM     17 CL   LIG    1       -1.325   3.861   3.787  0.00  0.00    -0.082 Cl
ATOM     18  C   LIG    1       -0.842   1.489   2.596  0.00  0.00    +0.025 A 
ENDBRANCH   8  11
BRANCH   9  19
ATOM     19  C   LIG    1        1.579   0.043  -0.015  0.00  0.00    +0.162 C 
BRANCH  19  20
ATOM     20  O   LIG    1        2.048   0.669  -1.202  0.00  0.00    -0.383 OA
ATOM     21  C   LIG    1        3.459   0.809  -1.249  0.00  0.00    +0.193 C 
ENDBRANCH  19  20
ENDBRANCH   9  19
TORSDOF 3
