REMARK  Name = DB05450
REMARK                            x       y       z     vdW  Elec       q    Type
REMARK                         _______ _______ _______ _____ _____    ______ ____
ROOT
ATOM      1  C   LIG    1       -0.321  -1.113  -1.450  0.00  0.00    +0.032 C 
ATOM      2  C   LIG    1        0.033  -0.158  -0.290  0.00  0.00    +0.115 C 
ATOM      3  C   LIG    1       -0.563  -0.684   1.032  0.00  0.00    +0.035 C 
ATOM      4  C   LIG    1       -0.176  -2.160   1.355  0.00  0.00    -0.002 C 
ATOM      5  C   LIG    1       -0.532  -3.139   0.171  0.00  0.00    -0.026 C 
ATOM      6  C   LIG    1        0.169  -4.509   0.419  0.00  0.00    +0.012 C 
ATOM      7  C   LIG    1       -2.102  -3.295   0.087  0.00  0.00    -0.001 C 
ATOM      8  C   LIG    1       -2.709  -3.807   1.442  0.00  0.00    -0.004 C 
ATOM      9  C   LIG    1       -4.247  -3.958   1.301  0.00  0.00    +0.001 C 
ATOM     10  C   LIG    1       -4.655  -4.929   0.169  0.00  0.00    -0.023 C 
ATOM     11  C   LIG    1       -4.080  -6.373   0.355  0.00  0.00    +0.012 C 
ATOM     12  C   LIG    1       -6.205  -4.866   0.359  0.00  0.00    +0.032 C 
ATOM     13  C   LIG    1       -7.050  -6.022  -0.199  0.00  0.00    +0.051 C 
ATOM     14  C   LIG    1       -8.162  -5.568  -1.171  0.00  0.00    +0.013 C 
ATOM     15  C   LIG    1       -7.583  -6.690   1.097  0.00  0.00    +0.173 C 
ATOM     16  O   LIG    1       -8.943  -6.359   1.309  0.00  0.00    -0.348 OA
ATOM     17  C   LIG    1       -9.534  -6.909   2.494  0.00  0.00    +0.166 C 
ATOM     18  C   LIG    1       -9.438  -8.447   2.553  0.00  0.00    +0.012 C 
ATOM     19  C   LIG    1      -10.018  -9.024   3.855  0.00  0.00    +0.010 C 
ATOM     20  C   LIG    1       -7.988  -8.881   2.304  0.00  0.00    +0.011 C 
ATOM     21  C   LIG    1       -7.441  -8.225   1.028  0.00  0.00    +0.065 C 
ATOM     22  O   LIG    1       -6.785  -6.181   2.130  0.00  0.00    -0.345 OA
ATOM     23  C   LIG    1       -6.434  -4.833   1.876  0.00  0.00    +0.126 C 
ATOM     24  C   LIG    1       -4.149  -4.304  -1.156  0.00  0.00    +0.007 C 
ATOM     25  C   LIG    1       -5.093  -4.393   2.502  0.00  0.00    +0.036 C 
ATOM     26  C   LIG    1       -2.329  -2.843   2.593  0.00  0.00    +0.004 C 
ATOM     27  C   LIG    1       -2.611  -4.113  -1.145  0.00  0.00    +0.005 C 
ATOM     28  C   LIG    1       -0.804  -2.633   2.696  0.00  0.00    +0.004 C 
ATOM     29  C   LIG    1        0.105  -2.562  -1.136  0.00  0.00    +0.010 C 
ENDROOT
BRANCH   2  30
ATOM     30  O   LIG    1        1.435  -0.003  -0.173  0.00  0.00    -0.392 OA
ATOM     31  H   LIG    1        1.648   0.928  -0.269  0.00  0.00    +0.210 HD
ENDBRANCH   2  30
TORSDOF 1
