REMARK  Name = DB05532
REMARK                            x       y       z     vdW  Elec       q    Type
REMARK                         _______ _______ _______ _____ _____    ______ ____
ROOT
ATOM      1  C   LIG    1        1.399   0.107   0.235  0.00  0.00    +0.250 C 
ATOM      2  O   LIG    1        2.109   1.071   0.514  0.00  0.00    -0.282 OA
ENDROOT
BRANCH   1  10
ATOM      3  C   LIG    1       -1.982   3.461   0.598  0.00  0.00    +0.161 A 
ATOM      4  N   LIG    1       -3.230   2.978   0.410  0.00  0.00    -0.216 NA
ATOM      5  C   LIG    1       -3.394   1.655   0.143  0.00  0.00    +0.239 A 
ATOM      6  C   LIG    1       -2.289   0.804   0.063  0.00  0.00    +0.113 A 
ATOM      7  N   LIG    1       -2.201  -0.544  -0.195  0.00  0.00    -0.356 N 
ATOM      8  H   LIG    1       -2.957  -1.188  -0.380  0.00  0.00    +0.166 HD
ATOM      9  C   LIG    1       -0.890  -0.932  -0.167  0.00  0.00    +0.095 A 
ATOM     10  C   LIG    1       -0.067   0.150   0.116  0.00  0.00    +0.056 A 
ATOM     11  C   LIG    1       -0.956   1.295   0.264  0.00  0.00    +0.059 A 
ATOM     12  C   LIG    1       -0.816   2.680   0.539  0.00  0.00    +0.148 A 
BRANCH   5  13
ATOM     13  O   LIG    1       -4.657   1.126  -0.053  0.00  0.00    -0.478 OA
ATOM     14  C   LIG    1       -5.792   1.984   0.047  0.00  0.00    +0.279 C 
ENDBRANCH   5  13
BRANCH  12  15
ATOM     15  O   LIG    1        0.464   3.161   0.724  0.00  0.00    -0.493 OA
ATOM     16  C   LIG    1        0.650   4.543   1.006  0.00  0.00    +0.277 C 
ENDBRANCH  12  15
ENDBRANCH   1  10
BRANCH   1  17
ATOM     17  C   LIG    1        2.126  -1.277  -0.019  0.00  0.00    +0.287 C 
ATOM     18  O   LIG    1        2.036  -2.148   0.849  0.00  0.00    -0.266 OA
ATOM     19  N   LIG    1        2.821  -1.387  -1.189  0.00  0.00    -0.292 N 
ATOM     20  C   LIG    1        3.618  -2.617  -1.409  0.00  0.00    +0.127 C 
ATOM     21  C   LIG    1        4.872  -2.239  -2.235  0.00  0.00    +0.127 C 
ATOM     22  N   LIG    1        4.418  -1.716  -3.543  0.00  0.00    -0.295 N 
ATOM     23  C   LIG    1        5.354  -1.510  -4.512  0.00  0.00    +0.247 C 
ATOM     24  O   LIG    1        6.563  -1.472  -4.262  0.00  0.00    -0.270 OA
ATOM     25  C   LIG    1        3.104  -1.034  -3.606  0.00  0.00    +0.127 C 
ATOM     26  C   LIG    1        2.841  -0.344  -2.247  0.00  0.00    +0.127 C 
BRANCH  23  27
ATOM     27  C   LIG    1        4.905  -1.361  -5.954  0.00  0.00    +0.037 A 
ATOM     28  C   LIG    1        3.764  -2.021  -6.440  0.00  0.00    +0.013 A 
ATOM     29  C   LIG    1        3.385  -1.887  -7.772  0.00  0.00    +0.001 A 
ATOM     30  C   LIG    1        4.146  -1.101  -8.632  0.00  0.00    +0.000 A 
ATOM     31  C   LIG    1        5.290  -0.454  -8.172  0.00  0.00    +0.001 A 
ATOM     32  C   LIG    1        5.671  -0.590  -6.840  0.00  0.00    +0.013 A 
ENDBRANCH  23  27
ENDBRANCH   1  17
TORSDOF 5
