REMARK  Name = DB05607
REMARK                            x       y       z     vdW  Elec       q    Type
REMARK                         _______ _______ _______ _____ _____    ______ ____
ROOT
ATOM      1  N   LIG    1        1.628   0.132   0.141  0.00  0.00    +0.382 N 
ATOM      2  H   LIG    1        2.055   0.699  -0.579  0.00  0.00    -0.081 HD
ATOM      3  C   LIG    1        2.041   0.718   1.514  0.00  0.00    -0.077 C 
ATOM      4  C   LIG    1        3.575   0.682   1.637  0.00  0.00    +0.003 C 
ATOM      5  C   LIG    1        4.120  -0.747   1.452  0.00  0.00    +0.068 C 
ATOM      6  C   LIG    1        3.670  -1.334   0.098  0.00  0.00    +0.003 C 
ATOM      7  C   LIG    1        2.138  -1.319  -0.036  0.00  0.00    -0.077 C 
ENDROOT
BRANCH   5   8
ATOM      8  N   LIG    1        5.582  -0.702   1.504  0.00  0.00    -0.326 N 
ATOM      9  H   LIG    1        6.035  -0.021   0.912  0.00  0.00    +0.148 HD
BRANCH   8  10
ATOM     10  C   LIG    1        6.349  -1.842   1.814  0.00  0.00    +0.130 A 
ATOM     11  N   LIG    1        5.741  -2.964   2.292  0.00  0.00    -0.220 NA
ATOM     12  C   LIG    1        6.532  -4.027   2.579  0.00  0.00    +0.224 A 
ATOM     13  N   LIG    1        7.880  -4.109   2.448  0.00  0.00    -0.228 NA
ATOM     14  C   LIG    1        8.453  -2.996   1.981  0.00  0.00    +0.115 A 
ATOM     15  S   LIG    1       10.181  -2.840   1.722  0.00  0.00    -0.057 S 
ATOM     16  C   LIG    1        9.952  -1.200   1.159  0.00  0.00    +0.081 A 
ATOM     17 CL   LIG    1       11.315  -0.278   0.666  0.00  0.00    -0.076 Cl
ATOM     18  C   LIG    1        8.635  -0.788   1.167  0.00  0.00    +0.041 A 
ATOM     19  C   LIG    1        7.750  -1.802   1.636  0.00  0.00    +0.049 A 
ENDBRANCH   8  10
ENDBRANCH   5   8
BRANCH   1  20
ATOM     20  C   LIG    1        0.092   0.174  -0.047  0.00  0.00    -0.043 C 
BRANCH  20  22
ATOM     21  C   LIG    1       -1.131   2.127   1.006  0.00  0.00    +0.004 A 
ATOM     22  C   LIG    1       -0.498   1.576  -0.112  0.00  0.00    -0.063 A 
ATOM     23  C   LIG    1       -0.440   2.307  -1.302  0.00  0.00    +0.023 A 
ATOM     24  C   LIG    1       -0.996   3.589  -1.374  0.00  0.00    +0.087 A 
ATOM     25  C   LIG    1       -1.621   4.138  -0.246  0.00  0.00    +0.141 A 
ATOM     26  F   LIG    1       -2.170   5.377  -0.282  0.00  0.00    -0.204 F 
ATOM     27  C   LIG    1       -1.686   3.404   0.939  0.00  0.00    +0.040 A 
BRANCH  24  28
ATOM     28  C   LIG    1       -0.917   4.334  -2.624  0.00  0.00    +0.102 C 
ATOM     29  N   LIG    1       -0.855   4.925  -3.617  0.00  0.00    -0.191 NA
ENDBRANCH  24  28
ENDBRANCH  20  22
ENDBRANCH   1  20
TORSDOF 5
