REMARK  Name = DB05296
REMARK                            x       y       z     vdW  Elec       q    Type
REMARK                         _______ _______ _______ _____ _____    ______ ____
ROOT
ATOM      1  C   LIG    1       -5.843  -6.081  -0.188  0.00  0.00    -0.019 A 
ATOM      2  C   LIG    1       -4.678  -5.360   0.203  0.00  0.00    -0.021 A 
ATOM      3  C   LIG    1       -4.890  -4.033  -0.080  0.00  0.00    +0.057 A 
ATOM      4  N   LIG    1       -6.163  -3.946  -0.570  0.00  0.00    -0.354 N 
ATOM      5  H   LIG    1       -6.589  -3.082  -0.873  0.00  0.00    +0.166 HD
ATOM      6  C   LIG    1       -4.136  -2.851   0.015  0.00  0.00    +0.098 C 
ATOM      7  N   LIG    1       -2.893  -2.653   0.516  0.00  0.00    -0.317 N 
ATOM      8  H   LIG    1       -2.395  -3.430   0.859  0.00  0.00    +0.152 HD
ATOM      9  C   LIG    1       -2.297  -1.416   0.564  0.00  0.00    +0.056 A 
ATOM     10  C   LIG    1       -2.989  -0.171   0.716  0.00  0.00    +0.056 A 
ATOM     11  N   LIG    1       -4.290  -0.178   1.094  0.00  0.00    -0.317 N 
ATOM     12  H   LIG    1       -4.553  -0.753   1.849  0.00  0.00    +0.152 HD
ATOM     13  C   LIG    1       -5.247   0.561   0.491  0.00  0.00    +0.098 C 
ATOM     14  C   LIG    1       -6.611   0.243   0.630  0.00  0.00    +0.057 A 
ATOM     15  C   LIG    1       -7.196  -0.508   1.627  0.00  0.00    -0.021 A 
ATOM     16  C   LIG    1       -6.562  -0.930   2.943  0.00  0.00    +0.046 C 
ATOM     17  C   LIG    1       -8.477  -0.868   1.187  0.00  0.00    -0.019 A 
ATOM     18  C   LIG    1       -8.640  -0.355  -0.085  0.00  0.00    +0.045 A 
ATOM     19  C   LIG    1       -9.592  -0.773  -1.046  0.00  0.00    +0.051 C 
ATOM     20  C   LIG    1       -9.750  -2.148  -1.352  0.00  0.00    +0.045 A 
ATOM     21  C   LIG    1      -10.614  -2.877  -2.136  0.00  0.00    -0.019 A 
ATOM     22  C   LIG    1      -10.192  -4.241  -2.104  0.00  0.00    -0.019 A 
ATOM     23  C   LIG    1       -9.014  -4.307  -1.395  0.00  0.00    +0.045 A 
ATOM     24  C   LIG    1       -8.103  -5.361  -1.130  0.00  0.00    +0.051 C 
ATOM     25  N   LIG    1       -8.826  -3.049  -0.896  0.00  0.00    -0.355 N 
ATOM     26  H   LIG    1       -8.052  -2.796  -0.300  0.00  0.00    +0.166 HD
ATOM     27  N   LIG    1       -7.590   0.514  -0.308  0.00  0.00    -0.354 N 
ATOM     28  H   LIG    1       -7.430   1.014  -1.171  0.00  0.00    +0.166 HD
ATOM     29  C   LIG    1       -2.283   1.048   0.582  0.00  0.00    +0.074 A 
ATOM     30  C   LIG    1       -0.895   1.042   0.373  0.00  0.00    +0.164 A 
ATOM     31  C   LIG    1       -0.200  -0.173   0.304  0.00  0.00    +0.164 A 
ATOM     32  C   LIG    1       -0.894  -1.390   0.401  0.00  0.00    +0.074 A 
ATOM     33  C   LIG    1       -3.403  -5.936   0.786  0.00  0.00    +0.046 C 
ATOM     34  C   LIG    1       -6.782  -5.173  -0.633  0.00  0.00    +0.045 A 
ENDROOT
BRANCH  21  35
ATOM     35  C   LIG    1      -11.810  -2.315  -2.882  0.00  0.00    +0.034 C 
ATOM     36  C   LIG    1      -13.052  -2.212  -1.987  0.00  0.00    +0.009 C 
ENDBRANCH  21  35
BRANCH  22  37
ATOM     37  C   LIG    1      -10.873  -5.414  -2.787  0.00  0.00    +0.034 C 
ATOM     38  C   LIG    1      -10.237  -5.750  -4.143  0.00  0.00    +0.009 C 
ENDBRANCH  22  37
BRANCH   1  39
ATOM     39  C   LIG    1       -6.039  -7.588  -0.108  0.00  0.00    +0.040 C 
BRANCH  39  40
ATOM     40  C   LIG    1       -5.322  -8.357  -1.241  0.00  0.00    +0.032 C 
BRANCH  40  41
ATOM     41  C   LIG    1       -5.770  -8.015  -2.676  0.00  0.00    +0.156 C 
BRANCH  41  42
ATOM     42  O   LIG    1       -7.147  -8.269  -2.857  0.00  0.00    -0.395 OA
ATOM     43  H   LIG    1       -7.368  -8.114  -3.779  0.00  0.00    +0.209 HD
ENDBRANCH  41  42
ENDBRANCH  40  41
ENDBRANCH  39  40
ENDBRANCH   1  39
BRANCH  17  44
ATOM     44  C   LIG    1       -9.477  -1.717   1.967  0.00  0.00    +0.040 C 
BRANCH  44  45
ATOM     45  C   LIG    1      -10.312  -0.865   2.941  0.00  0.00    +0.032 C 
BRANCH  45  46
ATOM     46  C   LIG    1      -11.307  -1.701   3.762  0.00  0.00    +0.156 C 
BRANCH  46  47
ATOM     47  O   LIG    1      -12.055  -0.877   4.631  0.00  0.00    -0.395 OA
ATOM     48  H   LIG    1      -12.659  -1.429   5.133  0.00  0.00    +0.209 HD
ENDBRANCH  46  47
ENDBRANCH  45  46
ENDBRANCH  44  45
ENDBRANCH  17  44
BRANCH  30  49
ATOM     49  O   LIG    1       -0.140   2.196   0.252  0.00  0.00    -0.486 OA
BRANCH  49  50
ATOM     50  C   LIG    1       -0.780   3.469   0.267  0.00  0.00    +0.257 C 
BRANCH  50  51
ATOM     51  C   LIG    1        0.279   4.556   0.051  0.00  0.00    +0.201 C 
BRANCH  51  52
ATOM     52  O   LIG    1       -0.360   5.825   0.034  0.00  0.00    -0.374 OA
BRANCH  52  53
ATOM     53  C   LIG    1        0.536   6.911  -0.161  0.00  0.00    +0.188 C 
BRANCH  53  54
ATOM     54  C   LIG    1       -0.266   8.224  -0.170  0.00  0.00    +0.188 C 
BRANCH  54  55
ATOM     55  O   LIG    1        0.565   9.381  -0.159  0.00  0.00    -0.375 OA
BRANCH  55  56
ATOM     56  C   LIG    1        1.263   9.645  -1.372  0.00  0.00    +0.188 C 
BRANCH  56  57
ATOM     57  C   LIG    1        2.045  10.957  -1.232  0.00  0.00    +0.187 C 
BRANCH  57  58
ATOM     58  O   LIG    1        2.994  10.832  -0.181  0.00  0.00    -0.381 OA
ATOM     59  C   LIG    1        3.759  12.008   0.033  0.00  0.00    +0.194 C 
ENDBRANCH  57  58
ENDBRANCH  56  57
ENDBRANCH  55  56
ENDBRANCH  54  55
ENDBRANCH  53  54
ENDBRANCH  52  53
ENDBRANCH  51  52
ENDBRANCH  50  51
ENDBRANCH  49  50
ENDBRANCH  30  49
BRANCH  31  60
ATOM     60  O   LIG    1        1.170  -0.093   0.122  0.00  0.00    -0.486 OA
BRANCH  60  61
ATOM     61  C   LIG    1        1.962  -1.277   0.170  0.00  0.00    +0.257 C 
BRANCH  61  62
ATOM     62  C   LIG    1        3.441  -0.884   0.077  0.00  0.00    +0.201 C 
BRANCH  62  63
ATOM     63  O   LIG    1        4.233  -2.062   0.131  0.00  0.00    -0.374 OA
BRANCH  63  64
ATOM     64  C   LIG    1        5.631  -1.814   0.078  0.00  0.00    +0.188 C 
BRANCH  64  65
ATOM     65  C   LIG    1        6.376  -3.159   0.141  0.00  0.00    +0.188 C 
BRANCH  65  66
ATOM     66  O   LIG    1        7.780  -3.031  -0.066  0.00  0.00    -0.375 OA
BRANCH  66  67
ATOM     67  C   LIG    1        8.498  -2.388   0.983  0.00  0.00    +0.188 C 
BRANCH  67  68
ATOM     68  C   LIG    1       10.004  -2.507   0.718  0.00  0.00    +0.187 C 
BRANCH  68  69
ATOM     69  O   LIG    1       10.371  -3.880   0.690  0.00  0.00    -0.381 OA
ATOM     70  C   LIG    1       11.754  -4.090   0.447  0.00  0.00    +0.194 C 
ENDBRANCH  68  69
ENDBRANCH  67  68
ENDBRANCH  66  67
ENDBRANCH  65  66
ENDBRANCH  64  65
ENDBRANCH  63  64
ENDBRANCH  62  63
ENDBRANCH  61  62
ENDBRANCH  60  61
ENDBRANCH  31  60
TORSDOF 30
