REMARK  Name = DB05521
REMARK                            x       y       z     vdW  Elec       q    Type
REMARK                         _______ _______ _______ _____ _____    ______ ____
ROOT
ATOM      1  C   LIG    1        0.621   0.975   0.055  0.00  0.00    +0.165 C 
ATOM      2  C   LIG    1       -0.109   0.967  -1.307  0.00  0.00    +0.023 C 
ATOM      3  C   LIG    1       -1.467   0.240  -1.262  0.00  0.00    +0.006 C 
ATOM      4  C   LIG    1       -2.475   1.328  -0.900  0.00  0.00    +0.001 C 
ATOM      5  C   LIG    1       -1.962   2.545  -1.668  0.00  0.00    +0.005 C 
ATOM      6  C   LIG    1       -0.423   2.433  -1.635  0.00  0.00    +0.012 C 
ATOM      7  C   LIG    1        0.246   3.290  -0.548  0.00  0.00    +0.112 C 
ATOM      8  N   LIG    1        0.480   2.354   0.558  0.00  0.00    -0.288 N 
ATOM      9  C   LIG    1        0.332   2.624   1.883  0.00  0.00    +0.237 C 
ATOM     10  O   LIG    1        0.384   1.738   2.740  0.00  0.00    -0.274 OA
ENDROOT
BRANCH   1  12
ATOM     11  O   LIG    1        3.026   1.326   0.028  0.00  0.00    -0.274 OA
ATOM     12  C   LIG    1        2.096   0.520  -0.042  0.00  0.00    +0.234 C 
ATOM     13  N   LIG    1        2.288  -0.801  -0.197  0.00  0.00    -0.304 N 
ATOM     14  H   LIG    1        1.484  -1.411  -0.250  0.00  0.00    +0.149 HD
BRANCH  13  15
ATOM     15  C   LIG    1        3.594  -1.456  -0.328  0.00  0.00    +0.149 C 
BRANCH  15  16
ATOM     16  C   LIG    1        3.286  -2.786  -1.017  0.00  0.00    +0.237 C 
ATOM     17  O   LIG    1        3.392  -3.884  -0.461  0.00  0.00    -0.285 OA
BRANCH  16  18
ATOM     18  C   LIG    1        2.862  -2.697  -2.548  0.00  0.00    +0.282 C 
ATOM     19  N   LIG    1        2.669  -3.910  -3.099  0.00  0.00    -0.306 N 
ATOM     20  H   LIG    1        2.748  -4.724  -2.508  0.00  0.00    +0.149 HD
ATOM     21  O   LIG    1        2.739  -1.614  -3.123  0.00  0.00    -0.267 OA
BRANCH  19  22
ATOM     22  C   LIG    1        2.169  -4.127  -4.453  0.00  0.00    +0.073 C 
ATOM     23  C   LIG    1        2.996  -3.665  -5.635  0.00  0.00    +0.024 C 
ATOM     24  C   LIG    1        2.873  -5.138  -5.327  0.00  0.00    +0.024 C 
ENDBRANCH  19  22
ENDBRANCH  16  18
ENDBRANCH  15  16
BRANCH  15  25
ATOM     25  C   LIG    1        4.317  -1.614   1.041  0.00  0.00    +0.030 C 
BRANCH  25  26
ATOM     26  C   LIG    1        5.768  -2.129   0.947  0.00  0.00    -0.001 C 
ATOM     27  C   LIG    1        6.463  -2.197   2.314  0.00  0.00    +0.004 C 
ENDBRANCH  25  26
ENDBRANCH  15  25
ENDBRANCH  13  15
ENDBRANCH   1  12
BRANCH   9  28
ATOM     28  C   LIG    1        0.148   4.091   2.375  0.00  0.00    +0.164 C 
BRANCH  28  29
ATOM     29  C   LIG    1        1.320   4.646   3.274  0.00  0.00    -0.011 C 
ATOM     30  C   LIG    1        1.457   3.919   4.639  0.00  0.00    +0.013 C 
ATOM     31  C   LIG    1        2.675   4.548   2.523  0.00  0.00    +0.013 C 
ATOM     32  C   LIG    1        1.070   6.148   3.570  0.00  0.00    +0.013 C 
ENDBRANCH  28  29
BRANCH  28  33
ATOM     33  N   LIG    1       -1.150   4.162   3.055  0.00  0.00    -0.302 N 
ATOM     34  H   LIG    1       -1.133   3.954   4.043  0.00  0.00    +0.150 HD
ATOM     35  C   LIG    1       -2.331   4.371   2.450  0.00  0.00    +0.234 C 
ATOM     36  O   LIG    1       -2.458   4.631   1.253  0.00  0.00    -0.274 OA
BRANCH  35  37
ATOM     37  C   LIG    1       -3.583   4.208   3.345  0.00  0.00    +0.162 C 
BRANCH  37  38
ATOM     38  C   LIG    1       -4.265   2.819   3.134  0.00  0.00    +0.018 C 
ATOM     39  C   LIG    1       -5.310   2.504   4.229  0.00  0.00    +0.006 C 
ATOM     40  C   LIG    1       -5.688   1.009   4.159  0.00  0.00    +0.000 C 
ATOM     41  C   LIG    1       -6.245   0.641   2.759  0.00  0.00    +0.000 C 
ATOM     42  C   LIG    1       -5.366   1.157   1.589  0.00  0.00    +0.000 C 
ATOM     43  C   LIG    1       -5.009   2.646   1.785  0.00  0.00    +0.006 C 
ENDBRANCH  37  38
BRANCH  37  44
ATOM     44  N   LIG    1       -4.523   5.324   3.182  0.00  0.00    -0.298 N 
ATOM     45  H   LIG    1       -5.401   5.087   2.744  0.00  0.00    +0.150 HD
ATOM     46  C   LIG    1       -4.305   6.602   3.549  0.00  0.00    +0.264 C 
ATOM     47  O   LIG    1       -3.266   6.983   4.094  0.00  0.00    -0.268 OA
BRANCH  46  48
ATOM     48  C   LIG    1       -5.431   7.565   3.267  0.00  0.00    +0.143 A 
ATOM     49  C   LIG    1       -6.341   7.373   2.212  0.00  0.00    +0.143 A 
ATOM     50  N   LIG    1       -7.344   8.255   1.964  0.00  0.00    -0.259 NA
ATOM     51  C   LIG    1       -7.435   9.340   2.775  0.00  0.00    +0.130 A 
ATOM     52  C   LIG    1       -6.533   9.544   3.821  0.00  0.00    +0.131 A 
ATOM     53  N   LIG    1       -5.529   8.663   4.071  0.00  0.00    -0.247 NA
ENDBRANCH  46  48
ENDBRANCH  37  44
ENDBRANCH  35  37
ENDBRANCH  28  33
ENDBRANCH   9  28
TORSDOF 14
