REMARK  Name = DB05683
REMARK                            x       y       z     vdW  Elec       q    Type
REMARK                         _______ _______ _______ _____ _____    ______ ____
ROOT
ATOM      1  C   LIG    1       -0.597   1.348  -0.055  0.00  0.00    +0.000 C 
ENDROOT
BRANCH   1   2
ATOM      2  C   LIG    1       -2.135   1.399  -0.085  0.00  0.00    +0.000 C 
BRANCH   2   3
ATOM      3  C   LIG    1       -2.687   2.838  -0.095  0.00  0.00    +0.000 C 
BRANCH   3   4
ATOM      4  C   LIG    1       -4.225   2.932  -0.042  0.00  0.00    +0.000 C 
BRANCH   4   5
ATOM      5  C   LIG    1       -4.940   2.347  -1.275  0.00  0.00    +0.005 C 
BRANCH   5   6
ATOM      6  C   LIG    1       -6.462   2.572  -1.246  0.00  0.00    +0.035 C 
BRANCH   6   7
ATOM      7  C   LIG    1       -7.167   1.973  -2.455  0.00  0.00    -0.047 A 
ATOM      8  C   LIG    1       -7.265   2.708  -3.640  0.00  0.00    +0.004 A 
ATOM      9  C   LIG    1       -7.906   2.158  -4.747  0.00  0.00    +0.014 A 
ATOM     10  C   LIG    1       -8.447   0.876  -4.667  0.00  0.00    +0.013 A 
ATOM     11  I   LIG    1       -9.410   0.052  -6.330  0.00  0.00    -0.044 I 
ATOM     12  C   LIG    1       -8.351   0.139  -3.488  0.00  0.00    +0.014 A 
ATOM     13  C   LIG    1       -7.710   0.687  -2.381  0.00  0.00    +0.004 A 
ENDBRANCH   6   7
ENDBRANCH   5   6
ENDBRANCH   4   5
ENDBRANCH   3   4
ENDBRANCH   2   3
ENDBRANCH   1   2
BRANCH   1  14
ATOM     14  C   LIG    1       -0.045  -0.089  -0.070  0.00  0.00    -0.000 C 
BRANCH  14  15
ATOM     15  C   LIG    1        1.495  -0.140  -0.042  0.00  0.00    +0.000 C 
BRANCH  15  16
ATOM     16  C   LIG    1        2.084  -1.563   0.016  0.00  0.00    +0.000 C 
BRANCH  16  17
ATOM     17  C   LIG    1        1.824  -2.410  -1.245  0.00  0.00    +0.000 C 
BRANCH  17  18
ATOM     18  C   LIG    1        2.518  -3.783  -1.198  0.00  0.00    +0.000 C 
BRANCH  18  19
ATOM     19  C   LIG    1        2.260  -4.629  -2.463  0.00  0.00    +0.004 C 
BRANCH  19  20
ATOM     20  C   LIG    1        2.849  -6.062  -2.423  0.00  0.00    -0.004 C 
ATOM     21  C   LIG    1        4.391  -6.060  -2.313  0.00  0.00    +0.008 C 
BRANCH  20  22
ATOM     22  C   LIG    1        2.357  -6.886  -3.655  0.00  0.00    +0.123 C 
BRANCH  22  23
ATOM     23  C   LIG    1        2.538  -8.422  -3.559  0.00  0.00    +0.305 C 
ATOM     24  O   LIG    1        2.618  -9.041  -4.644  0.00  0.00    -0.251 OA
BRANCH  23  25
ATOM     25  O   LIG    1        2.558  -8.976  -2.435  0.00  0.00    -0.481 OA
ATOM     26  H   LIG    1        2.667  -9.904  -2.372  0.00  0.00    +0.295 HD
ENDBRANCH  23  25
ENDBRANCH  22  23
ENDBRANCH  20  22
ENDBRANCH  19  20
ENDBRANCH  18  19
ENDBRANCH  17  18
ENDBRANCH  16  17
ENDBRANCH  15  16
ENDBRANCH  14  15
ENDBRANCH   1  14
TORSDOF 16
