REMARK  Name = DB05785
REMARK                            x       y       z     vdW  Elec       q    Type
REMARK                         _______ _______ _______ _____ _____    ______ ____
ROOT
ATOM      1  C   LIG    1        3.594  -1.256   0.000  0.00  0.00    -0.022 A 
ATOM      2  C   LIG    1        4.297  -0.035   0.000  0.00  0.00    +0.012 A 
ATOM      3  C   LIG    1        5.697   0.040   0.000  0.00  0.00    -0.041 A 
ATOM      4  C   LIG    1        6.415  -1.159   0.000  0.00  0.00    +0.008 A 
ATOM      5  C   LIG    1        5.780  -2.404   0.000  0.00  0.00    -0.041 A 
ATOM      6  C   LIG    1        4.377  -2.426   0.000  0.00  0.00    +0.012 A 
ENDROOT
BRANCH   3   7
ATOM      7  C   LIG    1        6.468   1.387   0.000  0.00  0.00    -0.013 C 
ATOM      8  C   LIG    1        7.361   1.477  -1.262  0.00  0.00    +0.015 C 
ATOM      9  C   LIG    1        5.542   2.634   0.000  0.00  0.00    +0.015 C 
ATOM     10  C   LIG    1        7.361   1.477   1.262  0.00  0.00    +0.015 C 
ENDBRANCH   3   7
BRANCH   5  11
ATOM     11  C   LIG    1        6.643  -3.694   0.000  0.00  0.00    -0.013 C 
ATOM     12  C   LIG    1        7.541  -3.721   1.263  0.00  0.00    +0.015 C 
ATOM     13  C   LIG    1        5.808  -5.003   0.000  0.00  0.00    +0.015 C 
ATOM     14  C   LIG    1        7.541  -3.721  -1.263  0.00  0.00    +0.015 C 
ENDBRANCH   5  11
BRANCH   1  15
ATOM     15  C   LIG    1        2.076  -1.295   0.000  0.00  0.00    -0.043 C 
ATOM     16  C   LIG    1        1.349  -2.649   0.000  0.00  0.00    +0.044 C 
ATOM     17  C   LIG    1        1.321  -0.163   0.000  0.00  0.00    +0.004 C 
BRANCH  17  18
ATOM     18  C   LIG    1       -0.137  -0.105   0.000  0.00  0.00    +0.001 C 
ATOM     19  C   LIG    1       -0.819   1.061   0.000  0.00  0.00    +0.003 C 
BRANCH  19  20
ATOM     20  C   LIG    1       -2.273   1.263   0.000  0.00  0.00    -0.044 C 
ATOM     21  C   LIG    1       -2.744   2.715   0.000  0.00  0.00    +0.044 C 
ATOM     22  C   LIG    1       -3.139   0.207   0.000  0.00  0.00    +0.094 C 
BRANCH  22  23
ATOM     23  C   LIG    1       -4.703   0.172   0.000  0.00  0.00    +0.330 C 
ATOM     24  O   LIG    1       -5.172  -0.988   0.000  0.00  0.00    -0.246 OA
BRANCH  23  25
ATOM     25  O   LIG    1       -5.319   1.261   0.000  0.00  0.00    -0.478 OA
ATOM     26  H   LIG    1       -4.844   2.069   0.000  0.00  0.00    +0.295 HD
ENDBRANCH  23  25
ENDBRANCH  22  23
ENDBRANCH  19  20
ENDBRANCH  17  18
ENDBRANCH   1  15
TORSDOF 7
