REMARK  Name = DB05143
REMARK                            x       y       z     vdW  Elec       q    Type
REMARK                         _______ _______ _______ _____ _____    ______ ____
ROOT
ATOM      1  C   LIG    1        0.831   5.292  -0.035  0.00  0.00    +0.166 A 
ATOM      2  C   LIG    1       -0.203   4.880  -0.895  0.00  0.00    +0.216 A 
ATOM      3  C   LIG    1       -0.604   3.535  -0.932  0.00  0.00    +0.185 A 
ATOM      4  C   LIG    1       -0.028   2.602  -0.050  0.00  0.00    +0.021 A 
ATOM      5  C   LIG    1        0.970   3.029   0.830  0.00  0.00    +0.015 A 
ATOM      6  C   LIG    1        1.405   4.349   0.830  0.00  0.00    +0.050 A 
ENDROOT
BRANCH   1   8
ATOM      7  C   LIG    1        2.295   7.061   0.752  0.00  0.00    +0.277 C 
ATOM      8  O   LIG    1        1.254   6.606  -0.104  0.00  0.00    -0.491 OA
ENDBRANCH   1   8
BRANCH   4   9
ATOM      9  C   LIG    1       -0.486   1.197  -0.001  0.00  0.00    +0.012 C 
ATOM     10  C   LIG    1        0.260   0.073   0.083  0.00  0.00    +0.009 C 
BRANCH  10  11
ATOM     11  C   LIG    1        1.730  -0.057   0.025  0.00  0.00    -0.018 A 
ATOM     12  C   LIG    1        2.364  -1.011   0.822  0.00  0.00    +0.057 A 
ATOM     13  C   LIG    1        3.762  -1.149   0.814  0.00  0.00    +0.166 A 
ATOM     14  C   LIG    1        4.521  -0.307  -0.011  0.00  0.00    +0.204 A 
ATOM     15  C   LIG    1        3.904   0.642  -0.836  0.00  0.00    +0.166 A 
ATOM     16  C   LIG    1        2.506   0.751  -0.811  0.00  0.00    +0.057 A 
BRANCH  13  17
ATOM     17  O   LIG    1        4.451  -2.069   1.584  0.00  0.00    -0.491 OA
ATOM     18  C   LIG    1        3.727  -2.941   2.445  0.00  0.00    +0.277 C 
ENDBRANCH  13  17
BRANCH  14  19
ATOM     19  O   LIG    1        5.890  -0.431  -0.027  0.00  0.00    -0.488 OA
ATOM     20  C   LIG    1        6.556   0.406   0.908  0.00  0.00    +0.277 C 
ENDBRANCH  14  19
BRANCH  15  21
ATOM     21  O   LIG    1        4.722   1.427  -1.630  0.00  0.00    -0.491 OA
ATOM     22  C   LIG    1        4.136   2.429  -2.456  0.00  0.00    +0.277 C 
ENDBRANCH  15  21
ENDBRANCH  10  11
ENDBRANCH   4   9
BRANCH   2  23
ATOM     23  O   LIG    1       -0.831   5.756  -1.750  0.00  0.00    -0.396 OA
BRANCH  23  24
ATOM     24  P   LIG    1       -1.327   7.435  -1.510  0.00  0.00    +0.528 P 
ATOM     25  O   LIG    1       -2.666   7.583  -2.256  0.00  0.00    -0.216 OA
BRANCH  24  26
ATOM     26  O   LIG    1       -1.476   7.640   0.011  0.00  0.00    -0.293 OA
ATOM     27  H   LIG    1       -1.749   8.553   0.189  0.00  0.00    +0.223 HD
ENDBRANCH  24  26
BRANCH  24  28
ATOM     28  O   LIG    1       -0.210   8.300  -2.124  0.00  0.00    -0.293 OA
ATOM     29  H   LIG    1       -0.432   9.238  -2.019  0.00  0.00    +0.223 HD
ENDBRANCH  24  28
ENDBRANCH  23  24
ENDBRANCH   2  23
BRANCH   3  30
ATOM     30  O   LIG    1       -1.581   3.189  -1.835  0.00  0.00    -0.400 OA
BRANCH  30  31
ATOM     31  P   LIG    1       -1.623   1.876  -3.016  0.00  0.00    +0.528 P 
ATOM     32  O   LIG    1       -0.180   1.349  -3.146  0.00  0.00    -0.216 OA
BRANCH  31  33
ATOM     33  O   LIG    1       -2.594   0.825  -2.444  0.00  0.00    -0.293 OA
ATOM     34  H   LIG    1       -2.656   0.075  -3.056  0.00  0.00    +0.223 HD
ENDBRANCH  31  33
BRANCH  31  35
ATOM     35  O   LIG    1       -2.139   2.507  -4.322  0.00  0.00    -0.293 OA
ATOM     36  H   LIG    1       -2.184   1.829  -5.014  0.00  0.00    +0.223 HD
ENDBRANCH  31  35
ENDBRANCH  30  31
ENDBRANCH   3  30
TORSDOF 14
