REMARK  Name = DB05708
REMARK                            x       y       z     vdW  Elec       q    Type
REMARK                         _______ _______ _______ _____ _____    ______ ____
ROOT
ATOM      1  C   LIG    1        0.028   0.041   0.167  0.00  0.00    +0.017 C 
ATOM      2  C   LIG    1       -0.750   1.146   0.022  0.00  0.00    -0.023 C 
ATOM      3  C   LIG    1       -2.155   1.061   0.088  0.00  0.00    +0.047 C 
ATOM      4  N   LIG    1       -2.859   2.122   0.504  0.00  0.00    -0.384 N 
ATOM      5  H   LIG    1       -3.869   2.017   0.502  0.00  0.00    +0.160 HD
ATOM      6  C   LIG    1       -2.347   3.470   0.907  0.00  0.00    +0.113 C 
ATOM      7  C   LIG    1       -0.805   3.479   0.955  0.00  0.00    +0.026 C 
ATOM      8  C   LIG    1       -0.189   2.573  -0.127  0.00  0.00    +0.039 C 
ENDROOT
BRANCH   1  12
ATOM      9  C   LIG    1        4.305  -0.209  -0.122  0.00  0.00    +0.124 A 
ATOM     10  C   LIG    1        3.634  -0.746   0.989  0.00  0.00    +0.091 A 
ATOM     11  C   LIG    1        2.234  -0.671   1.102  0.00  0.00    +0.131 A 
ATOM     12  C   LIG    1        1.501  -0.038   0.085  0.00  0.00    +0.017 A 
ATOM     13  C   LIG    1        2.170   0.490  -1.024  0.00  0.00    +0.015 A 
ATOM     14  C   LIG    1        3.555   0.406  -1.123  0.00  0.00    +0.046 A 
BRANCH   9  16
ATOM     15  C   LIG    1        6.493  -0.859   0.683  0.00  0.00    +0.277 C 
ATOM     16  O   LIG    1        5.673  -0.245  -0.306  0.00  0.00    -0.495 OA
ENDBRANCH   9  16
BRANCH  11  17
ATOM     17  O   LIG    1        1.525  -1.189   2.174  0.00  0.00    -0.494 OA
ATOM     18  C   LIG    1        2.220  -1.846   3.229  0.00  0.00    +0.277 C 
ENDBRANCH  11  17
ENDBRANCH   1  12
BRANCH   3  19
ATOM     19  C   LIG    1       -2.891  -0.143  -0.337  0.00  0.00    +0.016 A 
ATOM     20  C   LIG    1       -4.085  -0.519   0.302  0.00  0.00    +0.120 A 
ATOM     21  N   LIG    1       -4.808  -1.616  -0.041  0.00  0.00    -0.263 NA
ATOM     22  C   LIG    1       -4.351  -2.383  -1.060  0.00  0.00    +0.111 A 
ATOM     23  C   LIG    1       -3.183  -2.090  -1.762  0.00  0.00    +0.020 A 
ATOM     24  C   LIG    1       -2.451  -0.959  -1.395  0.00  0.00    +0.013 A 
ENDBRANCH   3  19
TORSDOF 4
