REMARK  Name = DB05990
REMARK                            x       y       z     vdW  Elec       q    Type
REMARK                         _______ _______ _______ _____ _____    ______ ____
ROOT
ATOM      1  C   LIG    1        5.166   1.797   5.654  0.00  0.00    +0.010 C 
ATOM      2  C   LIG    1        5.981   0.496   5.669  0.00  0.00    +0.032 C 
ATOM      3  C   LIG    1        7.402   0.747   5.133  0.00  0.00    +0.115 C 
ATOM      4  C   LIG    1        7.394   1.464   3.766  0.00  0.00    +0.035 C 
ATOM      5  C   LIG    1        6.480   2.732   3.694  0.00  0.00    +0.003 C 
ATOM      6  C   LIG    1        6.440   3.402   2.275  0.00  0.00    +0.021 C 
ATOM      7  C   LIG    1        5.599   2.585   1.240  0.00  0.00    +0.122 C 
ATOM      8  C   LIG    1        4.179   2.229   1.783  0.00  0.00    +0.025 C 
ATOM      9  C   LIG    1        3.364   1.321   0.812  0.00  0.00    +0.001 C 
ATOM     10  C   LIG    1        1.922   1.030   1.306  0.00  0.00    -0.026 C 
ATOM     11  C   LIG    1        1.067   2.318   1.531  0.00  0.00    +0.012 C 
ATOM     12  C   LIG    1        1.383   0.214   0.081  0.00  0.00    -0.002 C 
ATOM     13  C   LIG    1        2.007   0.941  -1.146  0.00  0.00    +0.004 C 
ATOM     14  C   LIG    1        2.103   0.223   2.623  0.00  0.00    +0.007 C 
ATOM     15  C   LIG    1        2.882   1.022   3.695  0.00  0.00    +0.005 C 
ATOM     16  C   LIG    1        3.208   1.756  -0.645  0.00  0.00    +0.005 C 
ATOM     17  C   LIG    1        4.266   1.546   3.195  0.00  0.00    +0.001 C 
ATOM     18  C   LIG    1        5.031   2.446   4.240  0.00  0.00    -0.026 C 
ATOM     19  C   LIG    1        4.288   3.797   4.489  0.00  0.00    +0.012 C 
ENDROOT
BRANCH   3  20
ATOM     20  O   LIG    1        8.128  -0.464   5.064  0.00  0.00    -0.392 OA
ATOM     21  H   LIG    1        8.866  -0.412   5.676  0.00  0.00    +0.210 HD
ENDBRANCH   3  20
BRANCH   6  22
ATOM     22  C   LIG    1        7.854   3.790   1.761  0.00  0.00    +0.003 C 
ATOM     23  C   LIG    1        7.854   4.729   0.544  0.00  0.00    +0.004 C 
ENDBRANCH   6  22
BRANCH   7  24
ATOM     24  O   LIG    1        6.299   1.453   0.749  0.00  0.00    -0.391 OA
ATOM     25  H   LIG    1        7.111   1.754   0.336  0.00  0.00    +0.210 HD
ENDBRANCH   7  24
BRANCH  12  26
ATOM     26  C   LIG    1       -0.164  -0.012  -0.061  0.00  0.00    -0.010 C 
ATOM     27  C   LIG    1       -0.801  -0.661   1.189  0.00  0.00    +0.008 C 
BRANCH  26  28
ATOM     28  C   LIG    1       -0.501  -0.840  -1.335  0.00  0.00    +0.014 C 
BRANCH  28  29
ATOM     29  C   LIG    1       -2.006  -0.903  -1.695  0.00  0.00    +0.121 C 
BRANCH  29  30
ATOM     30  C   LIG    1       -2.256  -1.493  -3.086  0.00  0.00    +0.305 C 
ATOM     31  O   LIG    1       -2.660  -2.639  -3.268  0.00  0.00    -0.251 OA
BRANCH  30  32
ATOM     32  O   LIG    1       -1.978  -0.596  -4.075  0.00  0.00    -0.481 OA
ATOM     33  H   LIG    1       -2.132  -0.959  -4.950  0.00  0.00    +0.295 HD
ENDBRANCH  30  32
ENDBRANCH  29  30
ENDBRANCH  28  29
ENDBRANCH  26  28
ENDBRANCH  12  26
TORSDOF 8
