REMARK  Name = DB05434
REMARK                            x       y       z     vdW  Elec       q    Type
REMARK                         _______ _______ _______ _____ _____    ______ ____
ROOT
ATOM      1  C   LIG    1        1.710  -0.297   0.203  0.00  0.00    +0.159 C 
ENDROOT
BRANCH   1   4
ATOM      2  N   LIG    1        2.637   1.556  -1.094  0.00  0.00    -0.302 N 
ATOM      3  H   LIG    1        2.991   1.890  -0.208  0.00  0.00    +0.150 HD
ATOM      4  C   LIG    1        1.926   0.420  -1.142  0.00  0.00    +0.234 C 
ATOM      5  O   LIG    1        1.464  -0.072  -2.172  0.00  0.00    -0.274 OA
BRANCH   2   6
ATOM      6  C   LIG    1        2.940   2.390  -2.254  0.00  0.00    +0.162 C 
BRANCH   6   9
ATOM      7  N   LIG    1        5.155   3.066  -3.006  0.00  0.00    -0.302 N 
ATOM      8  H   LIG    1        4.915   2.567  -3.851  0.00  0.00    +0.150 HD
ATOM      9  C   LIG    1        4.258   3.145  -2.013  0.00  0.00    +0.234 C 
ATOM     10  O   LIG    1        4.446   3.743  -0.953  0.00  0.00    -0.274 OA
BRANCH   7  11
ATOM     11  C   LIG    1        6.529   3.559  -2.930  0.00  0.00    +0.159 C 
BRANCH  11  13
ATOM     12  O   LIG    1        7.736   3.036  -4.932  0.00  0.00    -0.274 OA
ATOM     13  C   LIG    1        7.029   3.865  -4.359  0.00  0.00    +0.237 C 
ATOM     14  N   LIG    1        6.626   5.030  -4.931  0.00  0.00    -0.288 N 
ATOM     15  C   LIG    1        5.755   6.038  -4.322  0.00  0.00    +0.109 C 
ATOM     16  C   LIG    1        5.138   6.771  -5.502  0.00  0.00    +0.021 C 
ATOM     17  C   LIG    1        6.267   6.775  -6.516  0.00  0.00    +0.033 C 
ATOM     18  C   LIG    1        6.997   5.432  -6.306  0.00  0.00    +0.162 C 
BRANCH  18  19
ATOM     19  C   LIG    1        8.515   5.564  -6.531  0.00  0.00    +0.234 C 
ATOM     20  N   LIG    1        9.029   4.810  -7.517  0.00  0.00    -0.314 N 
ATOM     21  H   LIG    1        8.413   4.206  -8.042  0.00  0.00    +0.149 HD
ATOM     22  O   LIG    1        9.174   6.319  -5.816  0.00  0.00    -0.274 OA
BRANCH  20  23
ATOM     23  C   LIG    1       10.441   4.788  -7.890  0.00  0.00    +0.101 C 
ATOM     24  C   LIG    1       10.876   6.016  -8.706  0.00  0.00    +0.024 C 
ENDBRANCH  20  23
ENDBRANCH  18  19
ENDBRANCH  11  13
BRANCH  11  25
ATOM     25  C   LIG    1        7.414   2.563  -2.130  0.00  0.00    +0.033 C 
BRANCH  25  26
ATOM     26  C   LIG    1        7.312   1.069  -2.532  0.00  0.00    +0.017 C 
BRANCH  26  27
ATOM     27  C   LIG    1        8.163   0.125  -1.663  0.00  0.00    +0.084 C 
BRANCH  27  28
ATOM     28  N   LIG    1        7.623  -0.035  -0.299  0.00  0.00    -0.283 NA
ATOM     29  H   LIG    1        6.797   0.511  -0.094  0.00  0.00    +0.125 HD
BRANCH  28  30
ATOM     30  C   LIG    1        8.112  -0.816   0.684  0.00  0.00    +0.167 C 
BRANCH  30  31
ATOM     31  N   LIG    1        7.484  -0.831   1.868  0.00  0.00    -0.297 NA
ATOM     32  H   LIG    1        7.832  -1.405   2.623  0.00  0.00    +0.121 HD
ATOM     33  H   LIG    1        6.658  -0.266   2.007  0.00  0.00    +0.121 HD
ENDBRANCH  30  31
BRANCH  30  34
ATOM     34  N   LIG    1        9.207  -1.578   0.521  0.00  0.00    -0.297 NA
ATOM     35  H   LIG    1        9.694  -1.578  -0.365  0.00  0.00    +0.121 HD
ATOM     36  H   LIG    1        9.548  -2.153   1.278  0.00  0.00    +0.121 HD
ENDBRANCH  30  34
ENDBRANCH  28  30
ENDBRANCH  27  28
ENDBRANCH  26  27
ENDBRANCH  25  26
ENDBRANCH  11  25
ENDBRANCH   7  11
ENDBRANCH   6   9
BRANCH   6  37
ATOM     37  C   LIG    1        1.777   3.372  -2.595  0.00  0.00    +0.015 C 
ATOM     38  C   LIG    1        1.400   4.333  -1.446  0.00  0.00    +0.010 C 
BRANCH  37  39
ATOM     39  C   LIG    1        2.028   4.152  -3.906  0.00  0.00    +0.002 C 
ATOM     40  C   LIG    1        0.768   4.803  -4.495  0.00  0.00    +0.004 C 
ENDBRANCH  37  39
ENDBRANCH   6  37
ENDBRANCH   2   6
ENDBRANCH   1   4
BRANCH   1  41
ATOM     41  N   LIG    1        0.289  -0.527   0.474  0.00  0.00    -0.302 N 
ATOM     42  H   LIG    1        0.015  -1.496   0.539  0.00  0.00    +0.150 HD
ATOM     43  C   LIG    1       -0.659   0.421   0.598  0.00  0.00    +0.236 C 
ATOM     44  O   LIG    1       -0.449   1.633   0.536  0.00  0.00    -0.274 OA
BRANCH  43  45
ATOM     45  C   LIG    1       -2.097  -0.098   0.816  0.00  0.00    +0.187 C 
BRANCH  45  46
ATOM     46  N   LIG    1       -2.853   0.727   1.763  0.00  0.00    -0.300 N 
ATOM     47  H   LIG    1       -3.645   1.217   1.374  0.00  0.00    +0.150 HD
ATOM     48  C   LIG    1       -2.559   0.901   3.062  0.00  0.00    +0.234 C 
ATOM     49  O   LIG    1       -1.609   0.367   3.638  0.00  0.00    -0.274 OA
BRANCH  48  50
ATOM     50  C   LIG    1       -3.512   1.833   3.837  0.00  0.00    +0.162 C 
BRANCH  50  51
ATOM     51  N   LIG    1       -2.784   2.588   4.856  0.00  0.00    -0.302 N 
ATOM     52  H   LIG    1       -2.674   2.132   5.750  0.00  0.00    +0.150 HD
ATOM     53  C   LIG    1       -2.201   3.777   4.640  0.00  0.00    +0.234 C 
ATOM     54  O   LIG    1       -2.276   4.410   3.585  0.00  0.00    -0.274 OA
BRANCH  53  55
ATOM     55  C   LIG    1       -1.394   4.356   5.819  0.00  0.00    +0.161 C 
BRANCH  55  56
ATOM     56  N   LIG    1       -0.102   4.870   5.353  0.00  0.00    -0.302 N 
ATOM     57  H   LIG    1       -0.014   5.875   5.333  0.00  0.00    +0.150 HD
ATOM     58  C   LIG    1        0.907   4.112   4.893  0.00  0.00    +0.231 C 
ATOM     59  O   LIG    1        0.875   2.879   4.885  0.00  0.00    -0.274 OA
BRANCH  58  60
ATOM     60  C   LIG    1        2.113   4.882   4.336  0.00  0.00    +0.200 C 
BRANCH  60  61
ATOM     61  N   LIG    1        3.226   3.970   4.086  0.00  0.00    -0.305 N 
ATOM     62  H   LIG    1        3.245   3.525   3.179  0.00  0.00    +0.149 HD
ATOM     63  C   LIG    1        4.160   3.634   4.994  0.00  0.00    +0.231 C 
ATOM     64  O   LIG    1        4.199   4.124   6.122  0.00  0.00    -0.274 OA
BRANCH  63  65
ATOM     65  C   LIG    1        5.213   2.578   4.610  0.00  0.00    +0.203 C 
BRANCH  65  66
ATOM     66  N   LIG    1        4.902   1.861   3.358  0.00  0.00    -0.296 N 
ATOM     67  C   LIG    1        5.397   2.237   2.147  0.00  0.00    +0.213 C 
ATOM     68  C   LIG    1        6.349   3.435   2.059  0.00  0.00    +0.109 C 
ATOM     69  O   LIG    1        5.119   1.656   1.098  0.00  0.00    -0.276 OA
ATOM     70  C   LIG    1        3.950   0.746   3.462  0.00  0.00    +0.132 C 
ENDBRANCH  65  66
ENDBRANCH  63  65
ENDBRANCH  60  61
ENDBRANCH  58  60
ENDBRANCH  55  56
BRANCH  55  71
ATOM     71  C   LIG    1       -2.227   5.477   6.511  0.00  0.00    +0.012 C 
ATOM     72  C   LIG    1       -3.679   5.084   6.864  0.00  0.00    +0.009 C 
ATOM     73  C   LIG    1       -1.518   5.986   7.780  0.00  0.00    +0.009 C 
ENDBRANCH  55  71
ENDBRANCH  53  55
ENDBRANCH  50  51
BRANCH  50  74
ATOM     74  C   LIG    1       -4.662   0.988   4.466  0.00  0.00    +0.015 C 
ATOM     75  C   LIG    1       -4.193  -0.110   5.447  0.00  0.00    +0.010 C 
BRANCH  74  76
ATOM     76  C   LIG    1       -5.735   1.873   5.141  0.00  0.00    +0.002 C 
ATOM     77  C   LIG    1       -6.368   2.923   4.216  0.00  0.00    +0.004 C 
ENDBRANCH  74  76
ENDBRANCH  50  74
ENDBRANCH  48  50
ENDBRANCH  45  46
BRANCH  45  78
ATOM     78  C   LIG    1       -2.826  -0.132  -0.557  0.00  0.00    +0.141 C 
ATOM     79  C   LIG    1       -2.109  -0.882  -1.697  0.00  0.00    +0.040 C 
BRANCH  78  80
ATOM     80  O   LIG    1       -4.092  -0.740  -0.385  0.00  0.00    -0.390 OA
ATOM     81  H   LIG    1       -4.614  -0.198   0.211  0.00  0.00    +0.210 HD
ENDBRANCH  78  80
ENDBRANCH  45  78
ENDBRANCH  43  45
ENDBRANCH   1  41
BRANCH   1  82
ATOM     82  C   LIG    1        2.500  -1.626   0.287  0.00  0.00    +0.031 C 
BRANCH  82  83
ATOM     83  C   LIG    1        3.998  -1.544  -0.082  0.00  0.00    -0.001 C 
ATOM     84  C   LIG    1        4.743  -2.864   0.153  0.00  0.00    +0.004 C 
ENDBRANCH  82  83
ENDBRANCH   1  82
TORSDOF 34
