REMARK  Name = DB05961
REMARK                            x       y       z     vdW  Elec       q    Type
REMARK                         _______ _______ _______ _____ _____    ______ ____
ROOT
ATOM      1  C   LIG    1        2.987   1.919   3.883  0.00  0.00    +0.104 C 
ENDROOT
BRANCH   1   2
ATOM      2  N   LIG    1        2.907   3.342   3.567  0.00  0.00    -0.314 N 
ATOM      3  H   LIG    1        2.010   3.789   3.696  0.00  0.00    +0.149 HD
ATOM      4  C   LIG    1        3.941   4.070   3.110  0.00  0.00    +0.234 C 
ATOM      5  O   LIG    1        5.074   3.621   2.931  0.00  0.00    -0.274 OA
BRANCH   4   6
ATOM      6  C   LIG    1        3.641   5.544   2.752  0.00  0.00    +0.174 C 
BRANCH   6   7
ATOM      7  N   LIG    1        4.368   6.443   3.666  0.00  0.00    -0.269 N 
ATOM      8  H   LIG    1        5.293   6.755   3.406  0.00  0.00    +0.153 HD
ATOM      9  C   LIG    1        3.827   6.841   4.883  0.00  0.00    +0.401 C 
ATOM     10  O   LIG    1        2.728   6.511   5.339  0.00  0.00    -0.226 OA
BRANCH   9  11
ATOM     11  O   LIG    1        4.704   7.656   5.502  0.00  0.00    -0.454 OA
ATOM     12  C   LIG    1        4.402   8.216   6.771  0.00  0.00    +0.282 C 
ENDBRANCH   9  11
ENDBRANCH   6   7
BRANCH   6  13
ATOM     13  C   LIG    1        3.907   5.884   1.245  0.00  0.00    +0.078 C 
BRANCH  13  14
ATOM     14  C   LIG    1        3.095   5.015   0.271  0.00  0.00    -0.038 A 
ATOM     15  C   LIG    1        1.695   5.025   0.299  0.00  0.00    +0.004 A 
ATOM     16  C   LIG    1        0.972   4.231  -0.587  0.00  0.00    +0.000 A 
ATOM     17  C   LIG    1        1.646   3.419  -1.495  0.00  0.00    +0.000 A 
ATOM     18  C   LIG    1        3.038   3.390  -1.522  0.00  0.00    +0.000 A 
ATOM     19  C   LIG    1        3.761   4.187  -0.640  0.00  0.00    +0.004 A 
ENDBRANCH  13  14
BRANCH  13  20
ATOM     20  C   LIG    1        3.806   7.383   0.920  0.00  0.00    -0.038 A 
ATOM     21  C   LIG    1        2.693   8.133   1.323  0.00  0.00    +0.004 A 
ATOM     22  C   LIG    1        2.621   9.493   1.033  0.00  0.00    +0.000 A 
ATOM     23  C   LIG    1        3.663  10.108   0.343  0.00  0.00    +0.000 A 
ATOM     24  C   LIG    1        4.776   9.374  -0.061  0.00  0.00    +0.000 A 
ATOM     25  C   LIG    1        4.848   8.014   0.229  0.00  0.00    +0.004 A 
ENDBRANCH  13  20
ENDBRANCH   6  13
ENDBRANCH   4   6
ENDBRANCH   1   2
BRANCH   1  26
ATOM     26  C   LIG    1        2.817   1.007   2.650  0.00  0.00    +0.019 C 
BRANCH  26  27
ATOM     27  C   LIG    1        1.411   1.062   2.021  0.00  0.00    +0.003 C 
BRANCH  27  28
ATOM     28  C   LIG    1        1.285   0.193   0.754  0.00  0.00    +0.023 C 
BRANCH  28  29
ATOM     29  C   LIG    1       -0.169  -0.046   0.272  0.00  0.00    +0.105 C 
BRANCH  29  30
ATOM     30  N   LIG    1       -0.193  -1.007  -0.872  0.00  0.00    -0.171 NA
BRANCH  30  31
ATOM     31  S   LIG    1       -0.560  -2.708  -0.513  0.00  0.00    +0.061 S 
ATOM     32  O   LIG    1        0.067  -3.044   0.770  0.00  0.00    -0.153 OA
ATOM     33  O   LIG    1       -0.282  -3.519  -1.704  0.00  0.00    -0.153 OA
BRANCH  31  34
ATOM     34  C   LIG    1       -2.333  -2.729  -0.258  0.00  0.00    +0.106 A 
ATOM     35  C   LIG    1       -3.186  -2.932  -1.345  0.00  0.00    +0.030 A 
ATOM     36  C   LIG    1       -4.565  -2.925  -1.154  0.00  0.00    +0.024 A 
ATOM     37  C   LIG    1       -5.086  -2.715   0.123  0.00  0.00    +0.025 A 
ATOM     38  C   LIG    1       -4.236  -2.508   1.209  0.00  0.00    +0.024 A 
ATOM     39  C   LIG    1       -2.857  -2.514   1.019  0.00  0.00    +0.030 A 
BRANCH  37  40
ATOM     40  N   LIG    1       -6.467  -2.708   0.315  0.00  0.00    -0.358 N 
ATOM     41  H   LIG    1       -6.839  -2.563   1.242  0.00  0.00    +0.142 HD
ATOM     42  H   LIG    1       -7.078  -2.868  -0.473  0.00  0.00    +0.142 HD
ENDBRANCH  37  40
ENDBRANCH  31  34
ENDBRANCH  30  31
BRANCH  30  43
ATOM     43  C   LIG    1        0.512  -0.661  -2.140  0.00  0.00    +0.113 C 
BRANCH  43  45
ATOM     44  C   LIG    1        0.464  -0.387  -4.655  0.00  0.00    +0.008 C 
ATOM     45  C   LIG    1       -0.338  -0.842  -3.423  0.00  0.00    -0.001 C 
ATOM     46  C   LIG    1       -1.696  -0.116  -3.364  0.00  0.00    +0.008 C 
ENDBRANCH  43  45
ENDBRANCH  30  43
ENDBRANCH  29  30
BRANCH  29  47
ATOM     47  C   LIG    1       -0.979   1.233  -0.052  0.00  0.00    +0.176 C 
BRANCH  47  48
ATOM     48  O   LIG    1       -2.364   0.952  -0.083  0.00  0.00    -0.393 OA
ATOM     49  H   LIG    1       -2.837   1.763  -0.287  0.00  0.00    +0.209 HD
ENDBRANCH  47  48
ENDBRANCH  29  47
ENDBRANCH  28  29
ENDBRANCH  27  28
ENDBRANCH  26  27
ENDBRANCH   1  26
TORSDOF 19
