REMARK  Name = DB05252
REMARK                            x       y       z     vdW  Elec       q    Type
REMARK                         _______ _______ _______ _____ _____    ______ ____
ROOT
ATOM      1  C   LIG    1       -2.108   3.758  -0.241  0.00  0.00    +0.134 A 
ATOM      2  C   LIG    1       -0.722   3.724  -0.416  0.00  0.00    +0.050 A 
ATOM      3  C   LIG    1       -0.020   2.542  -0.200  0.00  0.00    +0.049 A 
ATOM      4  C   LIG    1       -0.699   1.381   0.203  0.00  0.00    +0.122 A 
ATOM      5  C   LIG    1       -2.082   1.427   0.381  0.00  0.00    +0.049 A 
ATOM      6  C   LIG    1       -2.785   2.609   0.167  0.00  0.00    +0.050 A 
ENDROOT
BRANCH   1   7
ATOM      7  O   LIG    1       -2.828   4.918  -0.417  0.00  0.00    -0.410 OA
BRANCH   7  15
ATOM      8 CL   LIG    1       -3.925  10.015  -5.643  0.00  0.00    -0.083 Cl
ATOM      9  C   LIG    1       -3.425   8.568  -4.845  0.00  0.00    +0.045 A 
ATOM     10  C   LIG    1       -2.761   7.575  -5.574  0.00  0.00    +0.022 A 
ATOM     11  C   LIG    1       -2.336   6.383  -4.976  0.00  0.00    +0.033 A 
ATOM     12  C   LIG    1       -2.594   6.204  -3.608  0.00  0.00    +0.113 A 
ATOM     13  C   LIG    1       -3.265   7.218  -2.896  0.00  0.00    +0.160 A 
ATOM     14  O   LIG    1       -3.397   6.808  -1.605  0.00  0.00    -0.408 OA
ATOM     15  C   LIG    1       -2.790   5.587  -1.616  0.00  0.00    +0.402 A 
ATOM     16  N   LIG    1       -2.307   5.163  -2.768  0.00  0.00    -0.175 NA
ATOM     17  C   LIG    1       -3.694   8.412  -3.482  0.00  0.00    +0.068 A 
ENDBRANCH   7  15
ENDBRANCH   1   7
BRANCH   4  18
ATOM     18  O   LIG    1       -0.090   0.160   0.442  0.00  0.00    -0.478 OA
BRANCH  18  19
ATOM     19  C   LIG    1        1.335   0.025   0.382  0.00  0.00    +0.278 C 
ATOM     20  C   LIG    1        1.630  -1.480   0.259  0.00  0.00    +0.064 C 
BRANCH  19  21
ATOM     21  C   LIG    1        2.027   0.626   1.623  0.00  0.00    +0.348 C 
ATOM     22  O   LIG    1        1.398   0.925   2.642  0.00  0.00    -0.247 OA
BRANCH  21  23
ATOM     23  O   LIG    1        3.357   0.774   1.443  0.00  0.00    -0.462 OA
BRANCH  23  24
ATOM     24  C   LIG    1        4.171   1.318   2.474  0.00  0.00    +0.229 C 
ATOM     25  C   LIG    1        5.630   1.345   2.010  0.00  0.00    +0.048 C 
ENDBRANCH  23  24
ENDBRANCH  21  23
ENDBRANCH  19  21
ENDBRANCH  18  19
ENDBRANCH   4  18
TORSDOF 7
