REMARK  Name = DB05289
REMARK                            x       y       z     vdW  Elec       q    Type
REMARK                         _______ _______ _______ _____ _____    ______ ____
ROOT
ATOM      1  F   LIG    1        4.254   1.120  -2.203  0.00  0.00    -0.205 F 
ATOM      2  C   LIG    1        3.616   0.567  -1.145  0.00  0.00    +0.131 A 
ATOM      3  C   LIG    1        2.221   0.564  -1.142  0.00  0.00    +0.043 A 
ATOM      4  C   LIG    1        1.508   0.031  -0.062  0.00  0.00    -0.031 A 
ATOM      5  C   LIG    1        2.219  -0.490   1.022  0.00  0.00    +0.005 A 
ATOM      6  C   LIG    1        3.613  -0.487   1.019  0.00  0.00    +0.011 A 
ATOM      7  C   LIG    1        4.338   0.034  -0.062  0.00  0.00    +0.017 A 
ENDROOT
BRANCH   7   8
ATOM      8  C   LIG    1        5.833   0.013  -0.038  0.00  0.00    -0.015 A 
ATOM      9  C   LIG    1        6.571  -0.306  -1.188  0.00  0.00    +0.008 A 
ATOM     10  C   LIG    1        7.963  -0.326  -1.159  0.00  0.00    +0.001 A 
ATOM     11  C   LIG    1        8.632  -0.029   0.024  0.00  0.00    +0.000 A 
ATOM     12  C   LIG    1        7.920   0.285   1.178  0.00  0.00    +0.001 A 
ATOM     13  C   LIG    1        6.528   0.303   1.145  0.00  0.00    +0.008 A 
ENDBRANCH   7   8
BRANCH   4  14
ATOM     14  C   LIG    1       -0.029   0.035  -0.044  0.00  0.00    +0.124 C 
ATOM     15  C   LIG    1       -0.595   1.477   0.033  0.00  0.00    +0.024 C 
BRANCH  14  16
ATOM     16  C   LIG    1       -0.595  -0.819  -1.221  0.00  0.00    +0.312 C 
ATOM     17  O   LIG    1       -0.387  -2.054  -1.177  0.00  0.00    -0.250 OA
BRANCH  16  18
ATOM     18  O   LIG    1       -1.233  -0.259  -2.144  0.00  0.00    -0.480 OA
ATOM     19  H   LIG    1       -1.917   0.347  -1.939  0.00  0.00    +0.295 HD
ENDBRANCH  16  18
ENDBRANCH  14  16
ENDBRANCH   4  14
TORSDOF 4
