REMARK  Name = DB05015
REMARK                            x       y       z     vdW  Elec       q    Type
REMARK                         _______ _______ _______ _____ _____    ______ ____
ROOT
ATOM      1  C   LIG    1        1.819  -0.042  -0.070  0.00  0.00    +0.109 A 
ATOM      2  C   LIG    1        2.570  -0.020   1.109  0.00  0.00    +0.036 A 
ATOM      3  C   LIG    1        3.968   0.039   1.068  0.00  0.00    -0.023 A 
ATOM      4  C   LIG    1        4.604   0.079  -0.182  0.00  0.00    +0.008 A 
ATOM      5  C   LIG    1        3.857   0.065  -1.360  0.00  0.00    +0.002 A 
ATOM      6  C   LIG    1        2.466   0.008  -1.306  0.00  0.00    +0.029 A 
ENDROOT
BRANCH   1   7
ATOM      7  S   LIG    1        0.033  -0.092   0.003  0.00  0.00    +0.072 S 
ATOM      8  O   LIG    1       -0.465  -0.684  -1.244  0.00  0.00    -0.150 OA
ATOM      9  O   LIG    1       -0.365  -0.643   1.304  0.00  0.00    -0.150 OA
BRANCH   7  10
ATOM     10  N   LIG    1       -0.468   1.610  -0.005  0.00  0.00    -0.216 N 
ATOM     11  H   LIG    1        0.252   2.316  -0.058  0.00  0.00    +0.174 HD
BRANCH  10  16
ATOM     12  C   LIG    1       -4.185   1.620   0.156  0.00  0.00    +0.002 A 
ATOM     13  C   LIG    1       -4.419   2.992   0.108  0.00  0.00    +0.000 A 
ATOM     14  C   LIG    1       -3.358   3.889   0.022  0.00  0.00    +0.002 A 
ATOM     15  C   LIG    1       -2.051   3.410  -0.015  0.00  0.00    +0.024 A 
ATOM     16  C   LIG    1       -1.804   2.036   0.033  0.00  0.00    +0.048 A 
ATOM     17  C   LIG    1       -2.878   1.140   0.117  0.00  0.00    +0.024 A 
ENDBRANCH  10  16
ENDBRANCH   7  10
ENDBRANCH   1   7
BRANCH   3  18
ATOM     18  C   LIG    1        4.716   0.049   2.344  0.00  0.00    +0.013 C 
ATOM     19  C   LIG    1        6.054  -0.076   2.490  0.00  0.00    +0.070 C 
BRANCH  19  20
ATOM     20  C   LIG    1        6.703  -0.047   3.782  0.00  0.00    +0.259 C 
ATOM     21  N   LIG    1        8.037  -0.195   3.698  0.00  0.00    -0.194 N 
ATOM     22  H   LIG    1        8.609  -0.279   2.869  0.00  0.00    +0.183 HD
ATOM     23  O   LIG    1        6.092   0.092   4.846  0.00  0.00    -0.269 OA
BRANCH  21  24
ATOM     24  O   LIG    1        8.787  -0.159   4.879  0.00  0.00    -0.295 OA
ATOM     25  H   LIG    1        9.231   0.691   4.832  0.00  0.00    +0.241 HD
ENDBRANCH  21  24
ENDBRANCH  19  20
ENDBRANCH   3  18
TORSDOF 6
