REMARK  Name = DB05475
REMARK                            x       y       z     vdW  Elec       q    Type
REMARK                         _______ _______ _______ _____ _____    ______ ____
ROOT
ATOM      1  CA  LIG    1        3.364  -1.397   0.942  0.00  0.00    +0.186 C 
ENDROOT
BRANCH   1   2
ATOM      2  N   LIG    1        1.946  -0.993   0.936  0.00  0.00    -0.302 N 
ATOM      3  H   LIG    1        1.363  -1.446   1.625  0.00  0.00    +0.150 HD
ATOM      4  C   LIG    1        1.385  -0.132   0.068  0.00  0.00    +0.214 C 
ATOM      5  O   LIG    1        2.025   0.443  -0.814  0.00  0.00    -0.276 OA
BRANCH   4   6
ATOM      6  C   LIG    1       -0.123   0.109   0.237  0.00  0.00    +0.095 C 
BRANCH   6   7
ATOM      7  C   LIG    1       -0.650   1.374  -0.484  0.00  0.00    +0.004 C 
BRANCH   7   8
ATOM      8  CA  LIG    1       -2.122   1.732  -0.152  0.00  0.00    +0.036 C 
BRANCH   8   9
ATOM      9  N   LIG    1       -2.378   3.185  -0.588  0.00  0.00    +0.387 N 
ATOM     10  H1  LIG    1       -1.735   3.803  -0.113  0.00  0.00    -0.089 HD
ATOM     11  H2  LIG    1       -2.239   3.278  -1.584  0.00  0.00    -0.089 HD
ATOM     12  H3  LIG    1       -3.321   3.458  -0.353  0.00  0.00    -0.089 HD
ENDBRANCH   8   9
BRANCH   8  13
ATOM     13  C   LIG    1       -3.140   0.814  -0.882  0.00  0.00    +0.290 C 
ATOM     14  OXT LIG    1       -3.665   1.182  -1.960  0.00  0.00    -0.253 OA
BRANCH  13  15
ATOM     15  O   LIG    1       -3.372  -0.289  -0.339  0.00  0.00    -0.482 OA
ATOM     16  H   LIG    1       -3.725  -0.320   0.528  0.00  0.00    +0.295 HD
ENDBRANCH  13  15
ENDBRANCH   8  13
ENDBRANCH   7   8
ENDBRANCH   6   7
ENDBRANCH   4   6
ENDBRANCH   1   2
BRANCH   1  17
ATOM     17  C   LIG    1        3.675  -2.539  -0.104  0.00  0.00    +0.326 C 
ATOM     18  OXT LIG    1        4.817  -2.471  -0.614  0.00  0.00    -0.249 OA
BRANCH  17  19
ATOM     19  O   LIG    1        2.786  -3.408  -0.278  0.00  0.00    -0.479 OA
ATOM     20  H   LIG    1        1.953  -3.316   0.140  0.00  0.00    +0.295 HD
ENDBRANCH  17  19
ENDBRANCH   1  17
BRANCH   1  21
ATOM     21  CB  LIG    1        3.732  -1.882   2.372  0.00  0.00    +0.071 C 
BRANCH  21  22
ATOM     22  CG  LIG    1        5.192  -2.061   2.682  0.00  0.00    -0.020 A 
ATOM     23  CD1 LIG    1        6.040  -1.071   3.039  0.00  0.00    +0.087 A 
ATOM     24  NE1 LIG    1        7.310  -1.583   3.207  0.00  0.00    -0.360 N 
ATOM     25  HE1 LIG    1        8.097  -1.011   3.476  0.00  0.00    +0.165 HD
ATOM     26  CE2 LIG    1        7.352  -2.936   2.941  0.00  0.00    +0.047 A 
ATOM     27  CZ2 LIG    1        8.386  -3.889   2.957  0.00  0.00    +0.026 A 
ATOM     28  CH2 LIG    1        8.096  -5.222   2.614  0.00  0.00    +0.002 A 
ATOM     29  CZ3 LIG    1        6.781  -5.585   2.260  0.00  0.00    +0.001 A 
ATOM     30  CE3 LIG    1        5.753  -4.621   2.251  0.00  0.00    +0.010 A 
ATOM     31  CD2 LIG    1        6.008  -3.271   2.593  0.00  0.00    +0.003 A 
ENDBRANCH  21  22
ENDBRANCH   1  21
TORSDOF 11
