REMARK  Name = DB05294
REMARK                            x       y       z     vdW  Elec       q    Type
REMARK                         _______ _______ _______ _____ _____    ______ ____
ROOT
ATOM      1  C   LIG    1       -2.957  -0.398  -0.216  0.00  0.00    +0.044 A 
ATOM      2  C   LIG    1       -2.227   0.805  -0.031  0.00  0.00    +0.062 A 
ATOM      3  C   LIG    1       -0.828   0.793   0.079  0.00  0.00    +0.162 A 
ATOM      4  C   LIG    1       -0.131  -0.420   0.008  0.00  0.00    +0.164 A 
ATOM      5  C   LIG    1       -0.833  -1.622  -0.169  0.00  0.00    +0.078 A 
ATOM      6  C   LIG    1       -2.241  -1.630  -0.283  0.00  0.00    +0.080 A 
ATOM      7  N   LIG    1       -2.877  -2.823  -0.457  0.00  0.00    -0.235 NA
ATOM      8  C   LIG    1       -4.226  -2.780  -0.564  0.00  0.00    +0.223 A 
ATOM      9  N   LIG    1       -5.008  -1.677  -0.518  0.00  0.00    -0.220 NA
ATOM     10  C   LIG    1       -4.380  -0.486  -0.348  0.00  0.00    +0.134 A 
ENDROOT
BRANCH   3  11
ATOM     11  O   LIG    1       -0.069   1.938   0.257  0.00  0.00    -0.491 OA
ATOM     12  C   LIG    1       -0.713   3.205   0.339  0.00  0.00    +0.277 C 
ENDBRANCH   3  11
BRANCH  10  13
ATOM     13  N   LIG    1       -5.157   0.688  -0.286  0.00  0.00    -0.297 N 
ATOM     14  H   LIG    1       -4.598   1.506  -0.089  0.00  0.00    +0.154 HD
BRANCH  13  15
ATOM     15  C   LIG    1       -6.522   1.001  -0.448  0.00  0.00    +0.068 A 
ATOM     16  C   LIG    1       -7.495   0.075  -0.859  0.00  0.00    +0.027 A 
ATOM     17  C   LIG    1       -8.829   0.461  -0.999  0.00  0.00    +0.017 A 
ATOM     18  C   LIG    1       -9.210   1.773  -0.730  0.00  0.00    +0.021 A 
ATOM     19 BR   LIG    1      -11.029   2.297  -0.923  0.00  0.00    -0.050 Br
ATOM     20  C   LIG    1       -8.255   2.702  -0.321  0.00  0.00    +0.055 A 
ATOM     21  C   LIG    1       -6.920   2.320  -0.181  0.00  0.00    +0.145 A 
ATOM     22  F   LIG    1       -6.016   3.247   0.219  0.00  0.00    -0.204 F 
ENDBRANCH  13  15
ENDBRANCH  10  13
BRANCH   4  23
ATOM     23  O   LIG    1        1.247  -0.354   0.119  0.00  0.00    -0.488 OA
BRANCH  23  24
ATOM     24  C   LIG    1        2.023  -1.549   0.062  0.00  0.00    +0.232 C 
BRANCH  24  25
ATOM     25  C   LIG    1        3.519  -1.201   0.178  0.00  0.00    +0.029 C 
ATOM     26  C   LIG    1        3.879  -0.499   1.501  0.00  0.00    +0.022 C 
ATOM     27  C   LIG    1        5.375  -0.122   1.546  0.00  0.00    +0.084 C 
ATOM     28  N   LIG    1        6.241  -1.292   1.329  0.00  0.00    -0.305 NA
ATOM     29  C   LIG    1        5.911  -2.071   0.124  0.00  0.00    +0.084 C 
ATOM     30  C   LIG    1        7.646  -0.899   1.320  0.00  0.00    +0.104 C 
ATOM     31  C   LIG    1        4.415  -2.449   0.079  0.00  0.00    +0.022 C 
ENDBRANCH  24  25
ENDBRANCH  23  24
ENDBRANCH   4  23
TORSDOF 6
