REMARK  Name = DB05403
REMARK                            x       y       z     vdW  Elec       q    Type
REMARK                         _______ _______ _______ _____ _____    ______ ____
ROOT
ATOM      1  C   LIG    1        0.132   0.414   0.268  0.00  0.00    -0.037 A 
ATOM      2  C   LIG    1       -0.583  -0.782   0.267  0.00  0.00    +0.006 A 
ATOM      3  C   LIG    1       -1.976  -0.815   0.209  0.00  0.00    +0.027 A 
ATOM      4  C   LIG    1       -2.662   0.410   0.155  0.00  0.00    +0.053 A 
ATOM      5  C   LIG    1       -1.938   1.645   0.118  0.00  0.00    +0.008 A 
ATOM      6  C   LIG    1       -2.862   2.689  -0.025  0.00  0.00    +0.015 A 
ATOM      7  C   LIG    1       -2.769   4.091  -0.137  0.00  0.00    -0.008 A 
ATOM      8  C   LIG    1       -1.562   4.976  -0.076  0.00  0.00    +0.141 C 
ATOM      9  N   LIG    1       -2.154   6.291  -0.255  0.00  0.00    -0.307 N 
ATOM     10  H   LIG    1       -1.590   7.128  -0.259  0.00  0.00    +0.149 HD
ATOM     11  C   LIG    1       -3.487   6.311  -0.423  0.00  0.00    +0.245 C 
ATOM     12  O   LIG    1       -4.171   7.316  -0.597  0.00  0.00    -0.270 OA
ATOM     13  C   LIG    1       -3.906   4.871  -0.351  0.00  0.00    +0.052 A 
ATOM     14  C   LIG    1       -5.178   4.265  -0.483  0.00  0.00    +0.022 A 
ATOM     15  C   LIG    1       -6.512   4.684  -0.723  0.00  0.00    +0.009 A 
ATOM     16  C   LIG    1       -7.109   5.942  -0.905  0.00  0.00    +0.015 A 
ATOM     17  C   LIG    1       -8.489   6.028  -1.102  0.00  0.00    -0.037 A 
ATOM     18  C   LIG    1       -9.273   4.875  -1.135  0.00  0.00    +0.006 A 
ATOM     19  C   LIG    1       -8.727   3.602  -0.976  0.00  0.00    +0.027 A 
ATOM     20  C   LIG    1       -7.344   3.516  -0.772  0.00  0.00    +0.052 A 
ATOM     21  N   LIG    1       -6.534   2.403  -0.605  0.00  0.00    -0.311 N 
ATOM     22  C   LIG    1       -6.906   0.996  -0.513  0.00  0.00    +0.223 C 
ATOM     23  C   LIG    1       -6.978  -0.270  -1.377  0.00  0.00    +0.074 C 
ATOM     24  C   LIG    1       -5.596  -0.951  -1.041  0.00  0.00    +0.158 C 
ATOM     25  C   LIG    1       -5.172  -0.245   0.298  0.00  0.00    +0.160 C 
ATOM     26  C   LIG    1       -4.946  -1.132   1.541  0.00  0.00    +0.067 C 
ATOM     27  O   LIG    1       -6.312   0.492   0.637  0.00  0.00    -0.330 OA
ATOM     28  C   LIG    1       -5.246   2.872  -0.349  0.00  0.00    +0.077 A 
ATOM     29  C   LIG    1       -4.123   2.083  -0.089  0.00  0.00    +0.077 A 
ATOM     30  N   LIG    1       -4.032   0.701   0.135  0.00  0.00    -0.308 N 
ATOM     31  C   LIG    1       -0.537   1.636   0.196  0.00  0.00    +0.015 A 
ENDROOT
BRANCH  24  32
ATOM     32  C   LIG    1       -5.665  -2.492  -0.995  0.00  0.00    +0.351 C 
ATOM     33  O   LIG    1       -6.719  -3.101  -0.790  0.00  0.00    -0.247 OA
BRANCH  32  34
ATOM     34  O   LIG    1       -4.445  -3.037  -1.223  0.00  0.00    -0.297 OA
BRANCH  34  35
ATOM     35  O   LIG    1       -4.485  -4.510  -1.131  0.00  0.00    -0.187 OA
ATOM     36  C   LIG    1       -3.289  -4.884  -0.472  0.00  0.00    +0.253 C 
ENDBRANCH  34  35
ENDBRANCH  32  34
ENDBRANCH  24  32
BRANCH   1  37
ATOM     37  C   LIG    1        1.653   0.392   0.334  0.00  0.00    +0.104 C 
BRANCH  37  38
ATOM     38  S   LIG    1        2.410   0.746  -1.281  0.00  0.00    -0.156 S 
BRANCH  38  39
ATOM     39  C   LIG    1        1.956  -0.742  -2.216  0.00  0.00    +0.066 C 
ATOM     40  C   LIG    1        2.630  -0.847  -3.587  0.00  0.00    +0.015 C 
ENDBRANCH  38  39
ENDBRANCH  37  38
ENDBRANCH   1  37
BRANCH  17  41
ATOM     41  C   LIG    1       -9.141   7.391  -1.279  0.00  0.00    +0.104 C 
BRANCH  41  42
ATOM     42  S   LIG    1       -9.835   8.021   0.280  0.00  0.00    -0.156 S 
BRANCH  42  43
ATOM     43  C   LIG    1       -8.324   8.343   1.237  0.00  0.00    +0.066 C 
ATOM     44  C   LIG    1       -8.557   9.143   2.522  0.00  0.00    +0.015 C 
ENDBRANCH  42  43
ENDBRANCH  41  42
ENDBRANCH  17  41
TORSDOF 9
