REMARK  Name = DB05585
REMARK                            x       y       z     vdW  Elec       q    Type
REMARK                         _______ _______ _______ _____ _____    ______ ____
ROOT
ATOM      1  C   LIG    1        1.977   0.290  -1.397  0.00  0.00    +0.137 A 
ATOM      2  C   LIG    1        2.727  -0.279  -2.480  0.00  0.00    +0.041 A 
ATOM      3  C   LIG    1        3.552   0.628  -3.219  0.00  0.00    +0.076 A 
ATOM      4  N   LIG    1        3.611   1.955  -2.918  0.00  0.00    -0.232 NA
ATOM      5  C   LIG    1        2.838   2.379  -1.889  0.00  0.00    +0.129 A 
ATOM      6  C   LIG    1        2.891   3.858  -1.555  0.00  0.00    +0.088 C 
ATOM      7  C   LIG    1        4.327   0.143  -4.300  0.00  0.00    +0.028 A 
ATOM      8  C   LIG    1        4.277  -1.203  -4.650  0.00  0.00    +0.002 A 
ATOM      9  C   LIG    1        3.463  -2.087  -3.949  0.00  0.00    +0.001 A 
ATOM     10  C   LIG    1        2.689  -1.645  -2.879  0.00  0.00    +0.013 A 
ATOM     11  N   LIG    1        2.026   1.621  -1.117  0.00  0.00    -0.217 NA
ENDROOT
BRANCH   1  12
ATOM     12  N   LIG    1        1.148  -0.488  -0.552  0.00  0.00    -0.288 N 
ATOM     13  C   LIG    1        1.900  -1.475   0.237  0.00  0.00    +0.137 C 
BRANCH  12  17
ATOM     14  C   LIG    1       -2.793   0.523   0.674  0.00  0.00    +0.120 A 
ATOM     15  C   LIG    1       -2.232   1.083  -0.481  0.00  0.00    +0.047 A 
ATOM     16  C   LIG    1       -0.938   0.744  -0.868  0.00  0.00    +0.027 A 
ATOM     17  C   LIG    1       -0.166  -0.154  -0.115  0.00  0.00    +0.035 A 
ATOM     18  C   LIG    1       -0.746  -0.717   1.035  0.00  0.00    +0.027 A 
ATOM     19  C   LIG    1       -2.039  -0.377   1.424  0.00  0.00    +0.047 A 
BRANCH  14  21
ATOM     20  C   LIG    1       -4.890   1.699   0.404  0.00  0.00    +0.277 C 
ATOM     21  O   LIG    1       -4.066   0.798   1.136  0.00  0.00    -0.495 OA
ENDBRANCH  14  21
ENDBRANCH  12  17
ENDBRANCH   1  12
TORSDOF 3
