REMARK  Name = DB05109
REMARK                            x       y       z     vdW  Elec       q    Type
REMARK                         _______ _______ _______ _____ _____    ______ ____
ROOT
ATOM      1  O   LIG    1        5.637  -0.171  -0.045  0.00  0.00    -0.452 OA
ATOM      2  C   LIG    1        5.817  -0.514  -1.390  0.00  0.00    +0.466 C 
ATOM      3  O   LIG    1        4.598  -0.303  -2.044  0.00  0.00    -0.452 OA
ATOM      4  C   LIG    1        3.664  -0.224  -1.058  0.00  0.00    +0.173 A 
ATOM      5  C   LIG    1        2.281  -0.196  -1.173  0.00  0.00    +0.038 A 
ATOM      6  C   LIG    1        1.595  -0.287  -2.529  0.00  0.00    +0.051 C 
ATOM      7  C   LIG    1        1.537  -0.104   0.022  0.00  0.00    +0.143 A 
ATOM      8  C   LIG    1        2.187  -0.059   1.284  0.00  0.00    +0.018 A 
ATOM      9  C   LIG    1        1.423  -0.011   2.608  0.00  0.00    +0.099 C 
ATOM     10  S   LIG    1        1.190  -1.685   3.360  0.00  0.00    -0.148 S 
ATOM     11  C   LIG    1        1.354  -2.971   2.062  0.00  0.00    +0.108 C 
ATOM     12  C   LIG    1        2.544  -3.987   2.163  0.00  0.00    +0.152 C 
ATOM     13  C   LIG    1        3.883  -3.183   2.008  0.00  0.00    +0.333 C 
ATOM     14  O   LIG    1        4.552  -3.202   0.970  0.00  0.00    -0.248 OA
ATOM     15  O   LIG    1        4.192  -2.425   3.100  0.00  0.00    -0.461 OA
ATOM     16  C   LIG    1        5.091  -1.320   3.015  0.00  0.00    +0.256 C 
ATOM     17  C   LIG    1        4.330  -0.002   2.710  0.00  0.00    +0.131 C 
ATOM     18  N   LIG    1        3.521   0.497   3.856  0.00  0.00    -0.260 NA
ATOM     19  C   LIG    1        4.282   1.366   4.781  0.00  0.00    +0.204 C 
ATOM     20  C   LIG    1        3.432   1.832   6.001  0.00  0.00    +0.105 C 
ATOM     21  C   LIG    1        3.105   0.698   7.021  0.00  0.00    +0.058 C 
ATOM     22  C   LIG    1        1.751   0.019   6.814  0.00  0.00    -0.037 A 
ATOM     23  C   LIG    1        1.339  -1.001   7.676  0.00  0.00    +0.011 A 
ATOM     24  C   LIG    1        0.086  -1.597   7.550  0.00  0.00    -0.005 A 
ATOM     25  C   LIG    1       -0.328  -2.697   8.516  0.00  0.00    +0.047 C 
ATOM     26  C   LIG    1       -0.785  -1.162   6.546  0.00  0.00    +0.164 A 
ATOM     27  C   LIG    1       -0.391  -0.128   5.688  0.00  0.00    +0.164 A 
ATOM     28  C   LIG    1        0.887   0.452   5.791  0.00  0.00    +0.020 A 
ATOM     29  C   LIG    1        1.382   1.529   4.807  0.00  0.00    +0.109 C 
ATOM     30  N   LIG    1        2.242   2.519   5.473  0.00  0.00    -0.290 NA
ATOM     31  C   LIG    1        1.544   3.341   6.461  0.00  0.00    +0.106 C 
ATOM     32  N   LIG    1        2.528  -4.605   3.504  0.00  0.00    -0.297 NA
ATOM     33  H   LIG    1        2.780  -3.909   4.192  0.00  0.00    +0.123 HD
ATOM     34  C   LIG    1        3.346  -5.803   3.642  0.00  0.00    +0.087 C 
ATOM     35  C   LIG    1        2.778  -6.903   2.733  0.00  0.00    +0.051 C 
ATOM     36  C   LIG    1        2.592  -6.424   1.298  0.00  0.00    -0.037 A 
ATOM     37  C   LIG    1        2.562  -7.349   0.251  0.00  0.00    +0.053 A 
ATOM     38  C   LIG    1        2.386  -6.945  -1.068  0.00  0.00    +0.159 A 
ATOM     39  C   LIG    1        2.238  -5.592  -1.376  0.00  0.00    +0.162 A 
ATOM     40  C   LIG    1        2.269  -4.665  -0.324  0.00  0.00    +0.055 A 
ATOM     41  C   LIG    1        2.449  -5.046   1.019  0.00  0.00    -0.009 A 
ATOM     42  C   LIG    1        2.162   1.006   3.538  0.00  0.00    +0.099 C 
ATOM     43  C   LIG    1        3.599  -0.046   1.355  0.00  0.00    +0.026 A 
ATOM     44  C   LIG    1        4.292  -0.147   0.150  0.00  0.00    +0.172 A 
ENDROOT
BRANCH  19  45
ATOM     45  O   LIG    1        4.896   2.504   4.192  0.00  0.00    -0.376 OA
ATOM     46  H   LIG    1        5.553   2.845   4.803  0.00  0.00    +0.212 HD
ENDBRANCH  19  45
BRANCH  26  47
ATOM     47  O   LIG    1       -2.025  -1.743   6.418  0.00  0.00    -0.491 OA
ATOM     48  C   LIG    1       -2.091  -2.755   5.421  0.00  0.00    +0.277 C 
ENDBRANCH  26  47
BRANCH  27  49
ATOM     49  O   LIG    1       -1.270   0.315   4.729  0.00  0.00    -0.503 OA
ATOM     50  H   LIG    1       -2.111  -0.146   4.763  0.00  0.00    +0.292 HD
ENDBRANCH  27  49
BRANCH  38  51
ATOM     51  O   LIG    1        2.365  -7.892  -2.060  0.00  0.00    -0.503 OA
ATOM     52  H   LIG    1        2.247  -7.507  -2.932  0.00  0.00    +0.292 HD
ENDBRANCH  38  51
BRANCH  39  53
ATOM     53  O   LIG    1        2.078  -5.248  -2.708  0.00  0.00    -0.491 OA
ATOM     54  C   LIG    1        1.936  -3.877  -3.063  0.00  0.00    +0.277 C 
ENDBRANCH  39  53
BRANCH   7  55
ATOM     55  O   LIG    1        0.158  -0.123  -0.032  0.00  0.00    -0.425 OA
BRANCH  55  56
ATOM     56  C   LIG    1       -0.523   1.049  -0.151  0.00  0.00    +0.309 C 
ATOM     57  C   LIG    1       -2.030   0.832  -0.172  0.00  0.00    +0.136 C 
ATOM     58  O   LIG    1       -0.040   2.180  -0.230  0.00  0.00    -0.251 OA
ENDBRANCH  55  56
ENDBRANCH   7  55
TORSDOF 7
