REMARK  Name = DB05659
REMARK                            x       y       z     vdW  Elec       q    Type
REMARK                         _______ _______ _______ _____ _____    ______ ____
ROOT
ATOM      1  S   LIG    1       -2.344  -0.468   0.250  0.00  0.00    -0.101 S 
ATOM      2  C   LIG    1       -0.637  -1.012   0.110  0.00  0.00    +0.044 C 
ATOM      3  C   LIG    1        0.241   0.018  -0.038  0.00  0.00    +0.134 C 
ATOM      4  N   LIG    1       -0.421   1.210  -0.043  0.00  0.00    -0.251 N 
ATOM      5  C   LIG    1       -0.543   2.165  -1.061  0.00  0.00    +0.229 C 
ATOM      6  C   LIG    1       -2.085   2.215  -0.860  0.00  0.00    +0.135 C 
ATOM      7  O   LIG    1        0.253   2.691  -1.837  0.00  0.00    -0.275 OA
ATOM      8  C   LIG    1       -1.839   1.254   0.331  0.00  0.00    +0.158 C 
ENDROOT
BRANCH   2   9
ATOM      9  C   LIG    1       -0.345  -2.511   0.130  0.00  0.00    +0.157 C 
ATOM     10  C   LIG    1       -0.364  -3.115   1.537  0.00  0.00    +0.039 C 
ATOM     11  C   LIG    1       -0.800  -4.535   1.268  0.00  0.00    +0.031 C 
ATOM     12  C   LIG    1       -1.844  -4.332   0.177  0.00  0.00    +0.161 C 
ATOM     13  O   LIG    1       -1.328  -3.251  -0.602  0.00  0.00    -0.371 OA
ENDBRANCH   2   9
BRANCH   3  14
ATOM     14  C   LIG    1        1.716  -0.010  -0.184  0.00  0.00    +0.355 C 
ATOM     15  O   LIG    1        2.353  -1.047  -0.380  0.00  0.00    -0.243 OA
BRANCH  14  16
ATOM     16  O   LIG    1        2.298   1.209  -0.063  0.00  0.00    -0.452 OA
BRANCH  16  17
ATOM     17  C   LIG    1        3.700   1.381  -0.210  0.00  0.00    +0.310 C 
BRANCH  17  18
ATOM     18  C   LIG    1        4.100   2.833  -0.029  0.00  0.00    +0.187 A 
ATOM     19  C   LIG    1        3.487   3.961   0.332  0.00  0.00    +0.151 A 
ATOM     20  C   LIG    1        2.089   4.341   0.774  0.00  0.00    +0.090 C 
ATOM     21  O   LIG    1        4.374   4.962   0.299  0.00  0.00    -0.396 OA
ATOM     22  C   LIG    1        5.551   4.436  -0.102  0.00  0.00    +0.521 A 
ATOM     23  O   LIG    1        6.601   5.057  -0.254  0.00  0.00    -0.202 OA
ATOM     24  O   LIG    1        5.379   3.113  -0.307  0.00  0.00    -0.392 OA
ENDBRANCH  17  18
ENDBRANCH  16  17
ENDBRANCH  14  16
ENDBRANCH   3  14
BRANCH   6  25
ATOM     25  C   LIG    1       -2.631   3.636  -0.545  0.00  0.00    +0.126 C 
ATOM     26  C   LIG    1       -4.090   3.590  -0.062  0.00  0.00    +0.038 C 
BRANCH  25  27
ATOM     27  O   LIG    1       -1.880   4.327   0.442  0.00  0.00    -0.391 OA
ATOM     28  H   LIG    1       -0.976   4.412   0.132  0.00  0.00    +0.210 HD
ENDBRANCH  25  27
ENDBRANCH   6  25
TORSDOF 7
