REMARK  Name = DB05262
REMARK                            x       y       z     vdW  Elec       q    Type
REMARK                         _______ _______ _______ _____ _____    ______ ____
ROOT
ATOM      1  C   LIG    1        1.446  -0.865  -3.737  0.00  0.00    +0.153 C 
ATOM      2  C   LIG    1        0.733   0.206  -3.212  0.00  0.00    +0.123 C 
ATOM      3  C   LIG    1        0.889   0.075  -1.824  0.00  0.00    +0.109 C 
ATOM      4  N   LIG    1        1.625  -0.969  -1.494  0.00  0.00    -0.249 NA
ATOM      5  H   LIG    1        1.088  -1.620  -0.920  0.00  0.00    +0.141 HD
ATOM      6  C   LIG    1        0.044   1.144  -4.090  0.00  0.00    +0.233 C 
ATOM      7  O   LIG    1       -0.622   2.131  -3.785  0.00  0.00    -0.275 OA
ATOM      8  N   LIG    1        0.245   0.763  -5.396  0.00  0.00    -0.240 N 
ATOM      9  H   LIG    1       -0.195   1.353  -6.087  0.00  0.00    +0.159 HD
ATOM     10  C   LIG    1        0.954  -0.300  -5.909  0.00  0.00    +0.307 C 
ATOM     11  O   LIG    1        0.947  -0.374  -7.135  0.00  0.00    -0.252 OA
ATOM     12  N   LIG    1        1.960  -1.536  -2.664  0.00  0.00    -0.229 NA
ATOM     13  H   LIG    1        2.531  -2.367  -2.720  0.00  0.00    +0.143 HD
ATOM     14  N   LIG    1        1.565  -1.127  -5.061  0.00  0.00    -0.276 N 
ATOM     15  H   LIG    1        2.082  -1.900  -5.384  0.00  0.00    +0.152 HD
ENDROOT
TORSDOF 0
