REMARK  Name = DB05518
REMARK                            x       y       z     vdW  Elec       q    Type
REMARK                         _______ _______ _______ _____ _____    ______ ____
ROOT
ATOM      1  P   LIG    1        1.953   0.103   0.069  0.00  0.00    +0.278 P 
ATOM      2  O   LIG    1        2.713   0.634  -1.095  0.00  0.00    -0.279 OA
ENDROOT
BRANCH   1   3
ATOM      3  C   LIG    1        0.161   0.270  -0.170  0.00  0.00    +0.193 A 
ATOM      4  O   LIG    1       -0.526   1.437  -0.049  0.00  0.00    -0.448 OA
ATOM      5  C   LIG    1       -1.842   1.193  -0.285  0.00  0.00    +0.155 A 
ATOM      6  C   LIG    1       -2.004  -0.153  -0.573  0.00  0.00    +0.052 A 
ATOM      7  C   LIG    1       -0.739  -0.733  -0.512  0.00  0.00    +0.056 A 
BRANCH   5   8
ATOM      8  C   LIG    1       -2.750   2.319  -0.175  0.00  0.00    +0.118 A 
ATOM      9  N   LIG    1       -2.427   3.463  -0.754  0.00  0.00    -0.222 NA
ATOM     10  C   LIG    1       -3.328   4.385  -0.567  0.00  0.00    +0.156 A 
ATOM     11  S   LIG    1       -4.680   3.892   0.381  0.00  0.00    -0.057 S 
ATOM     12  C   LIG    1       -3.966   2.304   0.533  0.00  0.00    +0.022 A 
BRANCH  10  13
ATOM     13  N   LIG    1       -3.257   5.656  -1.057  0.00  0.00    -0.337 N 
ATOM     14  H   LIG    1       -3.989   6.332  -0.889  0.00  0.00    +0.144 HD
ATOM     15  H   LIG    1       -2.472   5.963  -1.613  0.00  0.00    +0.144 HD
ENDBRANCH  10  13
BRANCH  12  16
ATOM     16  C   LIG    1       -4.632   1.205   1.344  0.00  0.00    +0.047 C 
BRANCH  16  17
ATOM     17  C   LIG    1       -4.514   1.409   2.874  0.00  0.00    -0.012 C 
ATOM     18  C   LIG    1       -3.049   1.477   3.354  0.00  0.00    +0.007 C 
ATOM     19  C   LIG    1       -5.287   0.318   3.637  0.00  0.00    +0.007 C 
ENDBRANCH  16  17
ENDBRANCH  12  16
ENDBRANCH   5   8
ENDBRANCH   1   3
BRANCH   1  20
ATOM     20  N   LIG    1        2.205   0.842   1.581  0.00  0.00    -0.236 NA
ATOM     21  H   LIG    1        2.945   0.467   2.175  0.00  0.00    +0.132 HD
BRANCH  20  22
ATOM     22  C   LIG    1        1.898   2.251   1.829  0.00  0.00    +0.167 C 
ATOM     23  C   LIG    1        0.904   2.420   2.996  0.00  0.00    +0.036 C 
BRANCH  22  24
ATOM     24  C   LIG    1        3.174   3.043   2.039  0.00  0.00    +0.324 C 
ATOM     25  O   LIG    1        3.573   3.422   3.144  0.00  0.00    -0.249 OA
BRANCH  24  26
ATOM     26  O   LIG    1        3.800   3.273   0.863  0.00  0.00    -0.464 OA
BRANCH  26  27
ATOM     27  C   LIG    1        5.022   3.997   0.816  0.00  0.00    +0.229 C 
ATOM     28  C   LIG    1        5.513   4.065  -0.634  0.00  0.00    +0.048 C 
ENDBRANCH  26  27
ENDBRANCH  24  26
ENDBRANCH  22  24
ENDBRANCH  20  22
ENDBRANCH   1  20
BRANCH   1  29
ATOM     29  N   LIG    1        2.110  -1.547   0.448  0.00  0.00    -0.236 NA
ATOM     30  H   LIG    1        1.430  -2.002   1.057  0.00  0.00    +0.132 HD
BRANCH  29  31
ATOM     31  C   LIG    1        3.204  -2.388  -0.042  0.00  0.00    +0.167 C 
ATOM     32  C   LIG    1        3.786  -3.289   1.063  0.00  0.00    +0.036 C 
BRANCH  31  33
ATOM     33  C   LIG    1        2.785  -3.220  -1.239  0.00  0.00    +0.324 C 
ATOM     34  O   LIG    1        3.451  -3.257  -2.275  0.00  0.00    -0.249 OA
BRANCH  33  35
ATOM     35  O   LIG    1        1.630  -3.907  -1.024  0.00  0.00    -0.464 OA
BRANCH  35  36
ATOM     36  C   LIG    1        1.065  -4.750  -2.024  0.00  0.00    +0.229 C 
ATOM     37  C   LIG    1        1.754  -6.123  -2.071  0.00  0.00    +0.048 C 
ENDBRANCH  35  36
ENDBRANCH  33  35
ENDBRANCH  31  33
ENDBRANCH  29  31
ENDBRANCH   1  29
TORSDOF 15
