REMARK  Name = DB05796
REMARK                            x       y       z     vdW  Elec       q    Type
REMARK                         _______ _______ _______ _____ _____    ______ ____
ROOT
ATOM      1  O   LIG    1        0.370   3.342   1.172  0.00  0.00    -0.275 OA
ATOM      2  C   LIG    1       -0.077   2.192   1.157  0.00  0.00    +0.220 C 
ATOM      3  N   LIG    1       -0.126   1.424   2.268  0.00  0.00    -0.304 N 
ATOM      4  H   LIG    1       -0.726   0.614   2.221  0.00  0.00    +0.149 HD
ENDROOT
BRANCH   3   5
ATOM      5  C   LIG    1        0.347   1.764   3.624  0.00  0.00    +0.160 C 
ATOM      6  C   LIG    1        1.877   2.070   3.643  0.00  0.00    +0.241 C 
ATOM      7  N   LIG    1        2.289   2.777   4.746  0.00  0.00    -0.259 N 
ATOM      8  C   LIG    1        1.482   3.125   5.872  0.00  0.00    +0.040 A 
ATOM      9  C   LIG    1        1.523   4.422   6.410  0.00  0.00    +0.024 A 
ATOM     10  C   LIG    1        0.793   4.771   7.542  0.00  0.00    +0.002 A 
ATOM     11  C   LIG    1        0.006   3.820   8.177  0.00  0.00    +0.000 A 
ATOM     12  C   LIG    1       -0.049   2.525   7.675  0.00  0.00    +0.005 A 
ATOM     13  C   LIG    1        0.679   2.155   6.537  0.00  0.00    -0.026 A 
ATOM     14  C   LIG    1        0.562   0.728   6.003  0.00  0.00    +0.039 C 
ATOM     15  O   LIG    1        2.625   1.668   2.745  0.00  0.00    -0.273 OA
ATOM     16  C   LIG    1       -0.036   0.617   4.585  0.00  0.00    +0.036 C 
BRANCH   7  17
ATOM     17  C   LIG    1        3.736   3.143   4.785  0.00  0.00    +0.234 C 
BRANCH  17  18
ATOM     18  C   LIG    1        4.599   2.315   5.773  0.00  0.00    +0.323 C 
ATOM     19  O   LIG    1        5.712   2.809   6.061  0.00  0.00    -0.249 OA
BRANCH  18  20
ATOM     20  O   LIG    1        4.188   1.215   6.208  0.00  0.00    -0.480 OA
ATOM     21  H   LIG    1        3.817   1.160   7.067  0.00  0.00    +0.295 HD
ENDBRANCH  18  20
ENDBRANCH  17  18
ENDBRANCH   7  17
ENDBRANCH   3   5
BRANCH   2  22
ATOM     22  C   LIG    1       -0.609   1.541  -0.164  0.00  0.00    +0.048 C 
ATOM     23  C   LIG    1       -2.156   1.662  -0.156  0.00  0.00    +0.016 C 
ATOM     24  C   LIG    1       -2.509   3.084  -0.610  0.00  0.00    +0.001 C 
ATOM     25  C   LIG    1       -1.345   3.535  -1.501  0.00  0.00    +0.001 C 
ATOM     26  C   LIG    1       -0.269   2.439  -1.392  0.00  0.00    +0.016 C 
BRANCH  22  27
ATOM     27  C   LIG    1       -0.149   0.050  -0.348  0.00  0.00    +0.030 C 
BRANCH  27  28
ATOM     28  C   LIG    1        1.342  -0.324  -0.068  0.00  0.00    +0.099 C 
BRANCH  28  29
ATOM     29  C   LIG    1        2.319   0.449  -0.971  0.00  0.00    +0.310 C 
ATOM     30  O   LIG    1        2.501   0.140  -2.151  0.00  0.00    -0.251 OA
BRANCH  29  31
ATOM     31  O   LIG    1        2.913   1.466  -0.316  0.00  0.00    -0.465 OA
BRANCH  31  32
ATOM     32  C   LIG    1        3.826   2.332  -0.970  0.00  0.00    +0.229 C 
ATOM     33  C   LIG    1        4.241   3.436   0.007  0.00  0.00    +0.048 C 
ENDBRANCH  31  32
ENDBRANCH  29  31
ENDBRANCH  28  29
BRANCH  28  34
ATOM     34  C   LIG    1        1.609  -1.851  -0.124  0.00  0.00    +0.019 C 
BRANCH  34  35
ATOM     35  C   LIG    1        0.963  -2.640   1.033  0.00  0.00    +0.036 C 
BRANCH  35  36
ATOM     36  C   LIG    1        1.369  -4.107   1.043  0.00  0.00    -0.047 A 
ATOM     37  C   LIG    1        2.498  -4.512   1.759  0.00  0.00    +0.003 A 
ATOM     38  C   LIG    1        2.871  -5.854   1.767  0.00  0.00    +0.000 A 
ATOM     39  C   LIG    1        2.113  -6.785   1.060  0.00  0.00    +0.000 A 
ATOM     40  C   LIG    1        0.987  -6.386   0.343  0.00  0.00    +0.000 A 
ATOM     41  C   LIG    1        0.614  -5.045   0.333  0.00  0.00    +0.003 A 
ENDBRANCH  35  36
ENDBRANCH  34  35
ENDBRANCH  28  34
ENDBRANCH  27  28
ENDBRANCH  22  27
ENDBRANCH   2  22
TORSDOF 13
