REMARK  Name = DB05874
REMARK                            x       y       z     vdW  Elec       q    Type
REMARK                         _______ _______ _______ _____ _____    ______ ____
ROOT
ATOM      1  C   LIG    1       -2.279  -2.770   0.435  0.00  0.00    +0.048 A 
ATOM      2  N   LIG    1       -2.060  -1.444   0.289  0.00  0.00    -0.354 N 
ATOM      3  H   LIG    1       -2.770  -0.729   0.270  0.00  0.00    +0.166 HD
ATOM      4  C   LIG    1       -0.728  -1.236   0.183  0.00  0.00    +0.048 A 
ATOM      5  C   LIG    1       -0.094   0.009   0.026  0.00  0.00    +0.037 C 
ATOM      6  C   LIG    1       -0.736   1.257  -0.070  0.00  0.00    +0.048 A 
ATOM      7  C   LIG    1       -0.096   2.475  -0.203  0.00  0.00    +0.028 A 
ATOM      8  C   LIG    1       -1.060   3.441  -0.259  0.00  0.00    +0.028 A 
ATOM      9  C   LIG    1       -2.286   2.810  -0.161  0.00  0.00    +0.048 A 
ATOM     10  C   LIG    1       -3.535   3.456  -0.180  0.00  0.00    +0.037 C 
ATOM     11  C   LIG    1       -4.789   2.832  -0.058  0.00  0.00    +0.048 A 
ATOM     12  C   LIG    1       -6.014   3.471  -0.096  0.00  0.00    +0.028 A 
ATOM     13  C   LIG    1       -6.980   2.517   0.057  0.00  0.00    +0.028 A 
ATOM     14  C   LIG    1       -6.341   1.298   0.192  0.00  0.00    +0.048 A 
ATOM     15  C   LIG    1       -6.974   0.056   0.376  0.00  0.00    +0.037 C 
ATOM     16  C   LIG    1       -6.331  -1.190   0.494  0.00  0.00    +0.048 A 
ATOM     17  C   LIG    1       -6.966  -2.400   0.701  0.00  0.00    +0.028 A 
ATOM     18  C   LIG    1       -6.003  -3.365   0.760  0.00  0.00    +0.028 A 
ATOM     19  C   LIG    1       -4.780  -2.743   0.589  0.00  0.00    +0.048 A 
ATOM     20  N   LIG    1       -4.997  -1.416   0.430  0.00  0.00    -0.354 N 
ATOM     21  H   LIG    1       -4.287  -0.717   0.283  0.00  0.00    +0.166 HD
ATOM     22  N   LIG    1       -5.007   1.509   0.115  0.00  0.00    -0.354 N 
ATOM     23  H   LIG    1       -4.295   0.799   0.182  0.00  0.00    +0.166 HD
ATOM     24  N   LIG    1       -2.071   1.478  -0.045  0.00  0.00    -0.354 N 
ATOM     25  H   LIG    1       -2.784   0.772   0.042  0.00  0.00    +0.166 HD
ATOM     26  C   LIG    1       -0.092  -2.462   0.256  0.00  0.00    +0.028 A 
ATOM     27  C   LIG    1       -1.057  -3.417   0.412  0.00  0.00    +0.028 A 
ATOM     28  C   LIG    1       -3.532  -3.391   0.585  0.00  0.00    +0.037 C 
ENDROOT
BRANCH  10  29
ATOM     29  C   LIG    1       -3.529   4.951  -0.340  0.00  0.00    +0.143 C 
ATOM     30  N   LIG    1       -3.369   5.648  -1.531  0.00  0.00    -0.272 NA
ATOM     31  C   LIG    1       -3.417   7.004  -1.246  0.00  0.00    +0.096 C 
ATOM     32  C   LIG    1       -3.596   7.151   0.119  0.00  0.00    +0.096 C 
ATOM     33  N   LIG    1       -3.673   5.884   0.679  0.00  0.00    -0.272 NA
BRANCH  30  34
ATOM     34  C   LIG    1       -3.191   5.077  -2.862  0.00  0.00    +0.083 C 
ATOM     35  C   LIG    1       -4.546   4.697  -3.478  0.00  0.00    +0.020 C 
ENDBRANCH  30  34
BRANCH  33  36
ATOM     36  C   LIG    1       -3.832   5.605   2.103  0.00  0.00    +0.083 C 
ATOM     37  C   LIG    1       -2.463   5.412   2.773  0.00  0.00    +0.020 C 
ENDBRANCH  33  36
ENDBRANCH  10  29
BRANCH  15  38
ATOM     38  C   LIG    1       -8.476   0.061   0.456  0.00  0.00    +0.143 C 
ATOM     39  N   LIG    1       -9.238   0.418   1.562  0.00  0.00    -0.272 NA
ATOM     40  C   LIG    1      -10.576   0.291   1.222  0.00  0.00    +0.096 C 
ATOM     41  C   LIG    1      -10.647  -0.138  -0.092  0.00  0.00    +0.096 C 
ATOM     42  N   LIG    1       -9.352  -0.290  -0.564  0.00  0.00    -0.272 NA
BRANCH  39  43
ATOM     43  C   LIG    1       -8.741   0.840   2.869  0.00  0.00    +0.083 C 
ATOM     44  C   LIG    1       -8.321  -0.374   3.713  0.00  0.00    +0.020 C 
ENDBRANCH  39  43
BRANCH  42  45
ATOM     45  C   LIG    1       -8.995  -0.709  -1.916  0.00  0.00    +0.083 C 
ATOM     46  C   LIG    1       -8.753   0.512  -2.816  0.00  0.00    +0.020 C 
ENDBRANCH  42  45
ENDBRANCH  15  38
BRANCH   5  47
ATOM     47  C   LIG    1        1.408   0.007  -0.043  0.00  0.00    +0.143 C 
ATOM     48  N   LIG    1        2.176   0.096  -1.198  0.00  0.00    -0.272 NA
ATOM     49  C   LIG    1        3.513   0.059  -0.832  0.00  0.00    +0.096 C 
ATOM     50  C   LIG    1        3.576  -0.039   0.548  0.00  0.00    +0.096 C 
ATOM     51  N   LIG    1        2.279  -0.076   1.036  0.00  0.00    -0.272 NA
BRANCH  48  52
ATOM     52  C   LIG    1        1.684   0.177  -2.570  0.00  0.00    +0.083 C 
ATOM     53  C   LIG    1        1.406  -1.226  -3.130  0.00  0.00    +0.020 C 
ENDBRANCH  48  52
BRANCH  51  54
ATOM     54  C   LIG    1        1.917  -0.166   2.448  0.00  0.00    +0.083 C 
ATOM     55  C   LIG    1        1.644   1.229   3.031  0.00  0.00    +0.020 C 
ENDBRANCH  51  54
ENDBRANCH   5  47
BRANCH  28  56
ATOM     56  C   LIG    1       -3.538  -4.886   0.758  0.00  0.00    +0.143 C 
ATOM     57  N   LIG    1       -3.832  -5.822  -0.225  0.00  0.00    -0.272 NA
ATOM     58  C   LIG    1       -3.720  -7.086   0.335  0.00  0.00    +0.096 C 
ATOM     59  C   LIG    1       -3.372  -6.934   1.666  0.00  0.00    +0.096 C 
ATOM     60  N   LIG    1       -3.256  -5.578   1.929  0.00  0.00    -0.272 NA
BRANCH  57  61
ATOM     61  C   LIG    1       -4.166  -5.550  -1.620  0.00  0.00    +0.083 C 
ATOM     62  C   LIG    1       -2.891  -5.367  -2.457  0.00  0.00    +0.020 C 
ENDBRANCH  57  61
BRANCH  60  63
ATOM     63  C   LIG    1       -2.914  -5.002   3.226  0.00  0.00    +0.083 C 
ATOM     64  C   LIG    1       -4.175  -4.536   3.969  0.00  0.00    +0.020 C 
ENDBRANCH  60  63
ENDBRANCH  28  56
TORSDOF 12
