REMARK  Name = DB05377
REMARK                            x       y       z     vdW  Elec       q    Type
REMARK                         _______ _______ _______ _____ _____    ______ ____
ROOT
ATOM      1  S   LIG    1       -0.097  -0.050   0.470  0.00  0.00    +0.151 S 
ATOM      2  O   LIG    1       -0.083  -0.332   1.910  0.00  0.00    -0.131 OA
ATOM      3  O   LIG    1       -0.930  -0.818  -0.464  0.00  0.00    -0.131 OA
ENDROOT
BRANCH   1   8
ATOM      4 CL   LIG    1       -1.236   6.082  -0.374  0.00  0.00    -0.084 Cl
ATOM      5  C   LIG    1       -0.928   4.399  -0.141  0.00  0.00    +0.041 A 
ATOM      6  C   LIG    1       -0.375   3.957   1.060  0.00  0.00    +0.022 A 
ATOM      7  C   LIG    1       -0.124   2.601   1.247  0.00  0.00    +0.032 A 
ATOM      8  C   LIG    1       -0.432   1.692   0.233  0.00  0.00    +0.128 A 
ATOM      9  C   LIG    1       -0.984   2.136  -0.971  0.00  0.00    +0.032 A 
ATOM     10  C   LIG    1       -1.234   3.494  -1.157  0.00  0.00    +0.022 A 
ENDBRANCH   1   8
BRANCH   1  11
ATOM     11  O   LIG    1        1.474  -0.048  -0.090  0.00  0.00    -0.342 OA
BRANCH  11  12
ATOM     12  C   LIG    1        2.121  -1.252  -0.129  0.00  0.00    +0.157 A 
ATOM     13  C   LIG    1        2.837  -1.693   0.985  0.00  0.00    +0.050 A 
ATOM     14  C   LIG    1        3.500  -2.917   0.940  0.00  0.00    +0.023 A 
ATOM     15  C   LIG    1        3.448  -3.690  -0.219  0.00  0.00    +0.041 A 
ATOM     16  C   LIG    1        2.737  -3.248  -1.335  0.00  0.00    +0.023 A 
ATOM     17 CL   LIG    1        4.271  -5.206  -0.274  0.00  0.00    -0.084 Cl
ATOM     18  C   LIG    1        2.074  -2.025  -1.290  0.00  0.00    +0.050 A 
ENDBRANCH  11  12
ENDBRANCH   1  11
TORSDOF 3
