REMARK  Name = DB05009
REMARK                            x       y       z     vdW  Elec       q    Type
REMARK                         _______ _______ _______ _____ _____    ______ ____
ROOT
ATOM      1  N   LIG    1       -0.280  -0.116  -0.045  0.00  0.00    -0.285 N 
ATOM      2  C   LIG    1       -1.088  -1.191   0.071  0.00  0.00    +0.203 A 
ATOM      3  N   LIG    1       -2.339  -0.889   0.318  0.00  0.00    -0.231 NA
ATOM      4  C   LIG    1       -2.359   0.452   0.340  0.00  0.00    +0.147 A 
ATOM      5  C   LIG    1       -3.414   1.372   0.543  0.00  0.00    +0.148 A 
ATOM      6  N   LIG    1       -3.127   2.702   0.496  0.00  0.00    -0.203 NA
ATOM      7  C   LIG    1       -1.857   3.066   0.259  0.00  0.00    +0.209 A 
ATOM      8  N   LIG    1       -0.782   2.288   0.054  0.00  0.00    -0.200 NA
ATOM      9  C   LIG    1       -1.096   0.971   0.110  0.00  0.00    +0.169 A 
ENDROOT
BRANCH   1  10
ATOM     10  C   LIG    1        1.204  -0.076  -0.359  0.00  0.00    +0.254 C 
ATOM     11  O   LIG    1        1.736  -1.362  -0.426  0.00  0.00    -0.339 OA
ATOM     12  C   LIG    1        3.146  -1.262  -0.359  0.00  0.00    +0.237 C 
ATOM     13  C   LIG    1        3.272  -0.299   0.828  0.00  0.00    +0.185 C 
ATOM     14  C   LIG    1        2.091   0.676   0.650  0.00  0.00    +0.196 C 
BRANCH  12  15
ATOM     15  C   LIG    1        3.771  -2.640  -0.070  0.00  0.00    +0.245 C 
ATOM     16  O   LIG    1        3.165  -3.469   0.610  0.00  0.00    -0.273 OA
ATOM     17  N   LIG    1        4.997  -2.855  -0.581  0.00  0.00    -0.313 N 
ATOM     18  H   LIG    1        5.430  -2.120  -1.122  0.00  0.00    +0.149 HD
BRANCH  17  19
ATOM     19  C   LIG    1        5.776  -4.082  -0.419  0.00  0.00    +0.101 C 
ATOM     20  C   LIG    1        6.405  -4.228   0.976  0.00  0.00    +0.024 C 
ENDBRANCH  17  19
ENDBRANCH  12  15
BRANCH  13  21
ATOM     21  O   LIG    1        4.550   0.312   0.906  0.00  0.00    -0.386 OA
ATOM     22  H   LIG    1        4.568   0.884   1.677  0.00  0.00    +0.210 HD
ENDBRANCH  13  21
BRANCH  14  23
ATOM     23  O   LIG    1        2.418   1.958   0.135  0.00  0.00    -0.385 OA
ATOM     24  H   LIG    1        2.940   1.844  -0.662  0.00  0.00    +0.210 HD
ENDBRANCH  14  23
ENDBRANCH   1  10
BRANCH   5  25
ATOM     25  N   LIG    1       -4.729   0.980   0.781  0.00  0.00    -0.341 N 
ATOM     26  H   LIG    1       -5.439   1.686   0.911  0.00  0.00    +0.144 HD
ATOM     27  H   LIG    1       -4.953  -0.004   0.819  0.00  0.00    +0.144 HD
ENDBRANCH   5  25
BRANCH   7  28
ATOM     28  C   LIG    1       -1.609   4.482   0.216  0.00  0.00    -0.026 C 
ATOM     29  C   LIG    1       -1.361   5.677   0.167  0.00  0.00    -0.094 C 
BRANCH  29  30
ATOM     30  C   LIG    1       -1.001   7.107   0.090  0.00  0.00    +0.092 C 
BRANCH  30  31
ATOM     31  C   LIG    1        0.444   7.427  -0.377  0.00  0.00    +0.001 C 
ATOM     32  C   LIG    1        0.728   6.967  -1.835  0.00  0.00    +0.005 C 
ATOM     33  C   LIG    1        2.148   7.366  -2.289  0.00  0.00    +0.015 C 
ATOM     34  C   LIG    1        3.184   6.740  -1.322  0.00  0.00    +0.098 C 
ATOM     35  C   LIG    1        2.952   7.262   0.117  0.00  0.00    +0.015 C 
ATOM     36  C   LIG    1        1.535   6.862   0.577  0.00  0.00    +0.005 C 
BRANCH  34  37
ATOM     37  C   LIG    1        4.619   7.052  -1.784  0.00  0.00    +0.310 C 
ATOM     38  O   LIG    1        5.405   6.141  -2.053  0.00  0.00    -0.251 OA
BRANCH  37  39
ATOM     39  O   LIG    1        4.891   8.377  -1.850  0.00  0.00    -0.468 OA
ATOM     40  C   LIG    1        6.173   8.830  -2.258  0.00  0.00    +0.280 C 
ENDBRANCH  37  39
ENDBRANCH  34  37
ENDBRANCH  30  31
ENDBRANCH  29  30
ENDBRANCH   7  28
TORSDOF 11
