REMARK  Name = DB05263
REMARK                            x       y       z     vdW  Elec       q    Type
REMARK                         _______ _______ _______ _____ _____    ______ ____
ROOT
ATOM      1  C   LIG    1       -6.502  -4.347   1.007  0.00  0.00    +0.012 C 
ATOM      2  C   LIG    1       -6.891  -2.913   0.515  0.00  0.00    -0.023 C 
ATOM      3  C   LIG    1       -6.327  -1.788   1.411  0.00  0.00    +0.001 C 
ATOM      4  C   LIG    1       -4.775  -1.801   1.513  0.00  0.00    +0.000 C 
ATOM      5  C   LIG    1       -4.278  -0.659   2.432  0.00  0.00    +0.031 C 
ATOM      6  C   LIG    1       -2.804  -0.354   2.221  0.00  0.00    -0.027 C 
ATOM      7  C   LIG    1       -2.023  -0.833   1.229  0.00  0.00    -0.064 C 
ATOM      8  C   LIG    1       -0.528  -0.499   1.175  0.00  0.00    +0.075 C 
ATOM      9  C   LIG    1       -0.150   0.053  -0.216  0.00  0.00    +0.180 C 
ATOM     10  C   LIG    1       -0.511  -0.960  -1.310  0.00  0.00    +0.046 C 
ATOM     11  C   LIG    1       -2.020  -1.254  -1.271  0.00  0.00    +0.015 C 
ATOM     12  C   LIG    1       -2.563  -1.764   0.106  0.00  0.00    -0.008 C 
ATOM     13  C   LIG    1       -2.044  -3.203   0.387  0.00  0.00    +0.016 C 
ATOM     14  C   LIG    1       -4.140  -1.706   0.085  0.00  0.00    +0.003 C 
ATOM     15  C   LIG    1       -4.804  -2.689  -0.940  0.00  0.00    +0.005 C 
ATOM     16  C   LIG    1       -7.185  -1.849   2.680  0.00  0.00    +0.036 C 
ATOM     17  C   LIG    1       -8.592  -2.214   2.160  0.00  0.00    +0.126 C 
ATOM     18  O   LIG    1       -9.136  -3.403   2.704  0.00  0.00    -0.345 OA
ATOM     19  C   LIG    1      -10.024  -4.002   1.798  0.00  0.00    +0.173 C 
ATOM     20  C   LIG    1       -9.413  -3.740   0.396  0.00  0.00    +0.051 C 
ATOM     21  C   LIG    1      -10.458  -3.387  -0.685  0.00  0.00    +0.013 C 
ATOM     22  O   LIG    1      -11.311  -3.421   1.898  0.00  0.00    -0.348 OA
ATOM     23  C   LIG    1      -11.970  -3.590   3.159  0.00  0.00    +0.166 C 
ATOM     24  C   LIG    1      -12.119  -5.071   3.562  0.00  0.00    +0.012 C 
ATOM     25  C   LIG    1      -12.777  -5.242   4.942  0.00  0.00    +0.010 C 
ATOM     26  C   LIG    1      -10.758  -5.768   3.461  0.00  0.00    +0.011 C 
ATOM     27  C   LIG    1      -10.127  -5.515   2.084  0.00  0.00    +0.065 C 
ATOM     28  C   LIG    1       -6.350  -2.652  -0.911  0.00  0.00    +0.007 C 
ATOM     29  C   LIG    1       -8.414  -2.608   0.688  0.00  0.00    +0.032 C 
ENDROOT
BRANCH   9  30
ATOM     30  O   LIG    1        1.242   0.354  -0.304  0.00  0.00    -0.461 OA
BRANCH  30  31
ATOM     31  C   LIG    1        1.750   1.524   0.147  0.00  0.00    +0.307 C 
ATOM     32  O   LIG    1        1.104   2.445   0.652  0.00  0.00    -0.251 OA
BRANCH  31  33
ATOM     33  C   LIG    1        3.269   1.603  -0.058  0.00  0.00    +0.120 C 
BRANCH  33  34
ATOM     34  C   LIG    1        3.863   3.029  -0.084  0.00  0.00    +0.011 C 
BRANCH  34  35
ATOM     35  C   LIG    1        3.460   3.855  -1.322  0.00  0.00    +0.000 C 
BRANCH  35  36
ATOM     36  C   LIG    1        4.121   5.244  -1.360  0.00  0.00    -0.003 C 
ATOM     37  C   LIG    1        3.735   6.055  -2.604  0.00  0.00    +0.004 C 
ENDBRANCH  35  36
ENDBRANCH  34  35
ENDBRANCH  33  34
ENDBRANCH  31  33
ENDBRANCH  30  31
ENDBRANCH   9  30
TORSDOF 6
