REMARK  Name = DB05653
REMARK                            x       y       z     vdW  Elec       q    Type
REMARK                         _______ _______ _______ _____ _____    ______ ____
ROOT
ATOM      1  C   LIG    1       -2.517  -3.049   1.463  0.00  0.00    +0.016 C 
ATOM      2  C   LIG    1       -2.687  -2.492   0.026  0.00  0.00    -0.009 C 
ATOM      3  C   LIG    1       -1.973  -3.380  -1.031  0.00  0.00    +0.016 C 
ATOM      4  C   LIG    1       -2.138  -1.038  -0.009  0.00  0.00    -0.036 A 
ATOM      5  C   LIG    1       -0.751  -0.882   0.048  0.00  0.00    +0.021 A 
ATOM      6  C   LIG    1       -0.075   0.338  -0.003  0.00  0.00    +0.080 A 
ATOM      7  C   LIG    1       -0.883   1.503  -0.134  0.00  0.00    +0.147 A 
ATOM      8  C   LIG    1       -2.300   1.385  -0.177  0.00  0.00    +0.087 A 
ATOM      9 CL   LIG    1       -3.266   2.831  -0.419  0.00  0.00    -0.079 Cl
ATOM     10  C   LIG    1       -2.958   0.127  -0.060  0.00  0.00    -0.016 A 
ATOM     11  C   LIG    1       -4.527   0.000  -0.029  0.00  0.00    -0.008 C 
ATOM     12  C   LIG    1       -5.163   0.880   1.089  0.00  0.00    +0.016 C 
ATOM     13  C   LIG    1       -5.096   0.293  -1.444  0.00  0.00    +0.016 C 
ATOM     14  C   LIG    1       -4.970  -1.440   0.359  0.00  0.00    +0.012 C 
ATOM     15  C   LIG    1       -4.181  -2.520  -0.363  0.00  0.00    +0.012 C 
ENDROOT
BRANCH   6  16
ATOM     16  C   LIG    1        1.465   0.264   0.076  0.00  0.00    +0.252 C 
ATOM     17  N   LIG    1        2.178   1.410  -0.010  0.00  0.00    -0.281 N 
ATOM     18  H   LIG    1        1.645   2.268  -0.039  0.00  0.00    +0.155 HD
ATOM     19  O   LIG    1        2.020  -0.830   0.222  0.00  0.00    -0.270 OA
BRANCH  17  20
ATOM     20  C   LIG    1        3.575   1.571   0.003  0.00  0.00    +0.039 A 
ATOM     21  C   LIG    1        4.463   0.653  -0.575  0.00  0.00    +0.062 A 
ATOM     22  C   LIG    1        5.838   0.890  -0.553  0.00  0.00    +0.142 A 
ATOM     23  F   LIG    1        6.664  -0.022  -1.120  0.00  0.00    -0.204 F 
ATOM     24  C   LIG    1        6.348   2.057   0.040  0.00  0.00    +0.129 A 
ATOM     25  C   LIG    1        5.452   2.982   0.604  0.00  0.00    +0.142 A 
ATOM     26  F   LIG    1        5.900   4.124   1.181  0.00  0.00    -0.204 F 
ATOM     27  C   LIG    1        4.079   2.739   0.577  0.00  0.00    +0.062 A 
BRANCH  24  28
ATOM     28  C   LIG    1        7.816   2.314   0.065  0.00  0.00    +0.342 C 
ATOM     29  O   LIG    1        8.455   1.886   1.054  0.00  0.00    -0.245 OA
BRANCH  28  30
ATOM     30  O   LIG    1        8.304   2.941  -0.903  0.00  0.00    -0.477 OA
ATOM     31  H   LIG    1        7.750   3.225  -1.604  0.00  0.00    +0.295 HD
ENDBRANCH  28  30
ENDBRANCH  24  28
ENDBRANCH  17  20
ENDBRANCH   6  16
BRANCH   7  32
ATOM     32  O   LIG    1       -0.373   2.681  -0.213  0.00  0.00    -0.505 OA
ATOM     33  H   LIG    1        0.557   2.791  -0.188  0.00  0.00    +0.292 HD
ENDBRANCH   7  32
TORSDOF 5
