REMARK  Name = DB05381
REMARK                            x       y       z     vdW  Elec       q    Type
REMARK                         _______ _______ _______ _____ _____    ______ ____
ROOT
ATOM      1  C   LIG    1       -1.081   2.194  -1.148  0.00  0.00    +0.107 A 
ATOM      2  N   LIG    1       -1.366   3.412  -0.598  0.00  0.00    -0.351 N 
ATOM      3  H   LIG    1       -1.803   4.201  -1.052  0.00  0.00    +0.166 HD
ATOM      4  C   LIG    1       -0.936   3.337   0.698  0.00  0.00    +0.196 A 
ATOM      5  N   LIG    1       -0.410   2.171   0.986  0.00  0.00    -0.241 NA
ATOM      6  C   LIG    1       -0.484   1.454  -0.131  0.00  0.00    +0.060 A 
ENDROOT
BRANCH   6   7
ATOM      7  C   LIG    1        0.033   0.029  -0.173  0.00  0.00    +0.072 C 
BRANCH   7   8
ATOM      8  C   LIG    1        1.540  -0.064   0.132  0.00  0.00    +0.084 C 
BRANCH   8   9
ATOM      9  N   LIG    1        1.984  -1.443   0.078  0.00  0.00    -0.330 NA
ATOM     10  H   LIG    1        2.972  -1.490   0.284  0.00  0.00    +0.118 HD
ATOM     11  H   LIG    1        1.870  -1.800  -0.860  0.00  0.00    +0.118 HD
ENDBRANCH   8   9
ENDBRANCH   7   8
ENDBRANCH   6   7
TORSDOF 3
