REMARK  Name = DB05316
REMARK                            x       y       z     vdW  Elec       q    Type
REMARK                         _______ _______ _______ _____ _____    ______ ____
ROOT
ATOM      1  N   LIG    1        1.980   1.049  -2.891  0.00  0.00    -0.295 N 
ATOM      2  H   LIG    1        1.755   0.946  -3.870  0.00  0.00    +0.151 HD
ATOM      3  C   LIG    1        2.917   0.228  -2.374  0.00  0.00    +0.303 C 
ATOM      4  N   LIG    1        3.390  -0.745  -3.213  0.00  0.00    -0.278 N 
ATOM      5  O   LIG    1        3.317   0.372  -1.217  0.00  0.00    -0.253 OA
ENDROOT
BRANCH   4   6
ATOM      6  C   LIG    1        4.417  -1.747  -2.826  0.00  0.00    +0.080 C 
ATOM      7  C   LIG    1        5.786  -1.127  -2.431  0.00  0.00    +0.038 C 
ATOM      8  C   LIG    1        6.842  -2.173  -2.020  0.00  0.00    +0.086 C 
ATOM      9  N   LIG    1        6.370  -3.020  -0.922  0.00  0.00    -0.305 NA
ATOM     10  C   LIG    1        7.383  -4.004  -0.554  0.00  0.00    +0.104 C 
ATOM     11  C   LIG    1        5.096  -3.673  -1.232  0.00  0.00    +0.086 C 
ATOM     12  C   LIG    1        4.011  -2.652  -1.629  0.00  0.00    +0.038 C 
ENDBRANCH   4   6
BRANCH   1  13
ATOM     13  C   LIG    1        1.029   1.837  -2.107  0.00  0.00    +0.141 C 
BRANCH  13  17
ATOM     14  C   LIG    1       -2.189  -0.570  -0.518  0.00  0.00    +0.121 A 
ATOM     15  C   LIG    1       -1.046  -0.317   0.257  0.00  0.00    +0.046 A 
ATOM     16  C   LIG    1       -0.013   0.464  -0.253  0.00  0.00    +0.009 A 
ATOM     17  C   LIG    1       -0.103   0.987  -1.544  0.00  0.00    -0.030 A 
ATOM     18  C   LIG    1       -1.248   0.759  -2.309  0.00  0.00    +0.009 A 
ATOM     19  C   LIG    1       -2.281  -0.021  -1.797  0.00  0.00    +0.046 A 
BRANCH  14  20
ATOM     20  O   LIG    1       -3.259  -1.338  -0.101  0.00  0.00    -0.492 OA
BRANCH  20  21
ATOM     21  C   LIG    1       -3.220  -1.956   1.184  0.00  0.00    +0.232 C 
BRANCH  21  23
ATOM     22  C   LIG    1       -5.770  -1.865   1.365  0.00  0.00    +0.010 C 
ATOM     23  C   LIG    1       -4.517  -2.759   1.416  0.00  0.00    +0.020 C 
ATOM     24  C   LIG    1       -4.454  -3.549   2.736  0.00  0.00    +0.010 C 
ENDBRANCH  21  23
ENDBRANCH  20  21
ENDBRANCH  14  20
ENDBRANCH  13  17
ENDBRANCH   1  13
BRANCH   4  25
ATOM     25  C   LIG    1        2.827  -1.016  -4.557  0.00  0.00    +0.144 C 
BRANCH  25  26
ATOM     26  C   LIG    1        1.835  -2.175  -4.605  0.00  0.00    -0.030 A 
ATOM     27  C   LIG    1        2.007  -3.187  -5.553  0.00  0.00    +0.008 A 
ATOM     28  C   LIG    1        1.115  -4.255  -5.603  0.00  0.00    +0.038 A 
ATOM     29  C   LIG    1        0.050  -4.309  -4.705  0.00  0.00    +0.123 A 
ATOM     30  F   LIG    1       -0.816  -5.347  -4.754  0.00  0.00    -0.205 F 
ATOM     31  C   LIG    1       -0.130  -3.304  -3.757  0.00  0.00    +0.038 A 
ATOM     32  C   LIG    1        0.763  -2.237  -3.707  0.00  0.00    +0.008 A 
ENDBRANCH  25  26
ENDBRANCH   4  25
TORSDOF 8
