REMARK  Name = DB05462
REMARK                            x       y       z     vdW  Elec       q    Type
REMARK                         _______ _______ _______ _____ _____    ______ ____
ROOT
ATOM      1  C   LIG    1        5.599   0.310  -0.054  0.00  0.00    +0.056 C 
ENDROOT
BRANCH   1   5
ATOM      2  C   LIG    1        1.338   1.119   0.131  0.00  0.00    +0.120 A 
ATOM      3  C   LIG    1        1.881   0.007   0.773  0.00  0.00    +0.046 A 
ATOM      4  C   LIG    1        3.248  -0.248   0.716  0.00  0.00    +0.008 A 
ATOM      5  C   LIG    1        4.096   0.617   0.018  0.00  0.00    -0.039 A 
ATOM      6  C   LIG    1        3.558   1.740  -0.618  0.00  0.00    +0.008 A 
ATOM      7  C   LIG    1        2.191   1.994  -0.560  0.00  0.00    +0.046 A 
BRANCH   2   8
ATOM      8  O   LIG    1       -0.030   1.286   0.242  0.00  0.00    -0.494 OA
BRANCH   8   9
ATOM      9  C   LIG    1       -0.712   2.257  -0.555  0.00  0.00    +0.210 C 
BRANCH   9  10
ATOM     10  C   LIG    1       -0.758   1.896  -2.060  0.00  0.00    -0.038 C 
BRANCH  10  11
ATOM     11  N   LIG    1       -1.147   0.415  -2.287  0.00  0.00    +0.378 N 
ATOM     12  H   LIG    1       -0.503  -0.142  -1.742  0.00  0.00    -0.082 HD
ATOM     13  C   LIG    1       -0.957   0.004  -3.760  0.00  0.00    -0.096 C 
ATOM     14  C   LIG    1       -2.570   0.075  -1.798  0.00  0.00    -0.096 C 
ENDBRANCH  10  11
ENDBRANCH   9  10
ENDBRANCH   8   9
ENDBRANCH   2   8
ENDBRANCH   1   5
BRANCH   1  15
ATOM     15  C   LIG    1        6.368   1.142   0.983  0.00  0.00    -0.039 A 
ATOM     16  C   LIG    1        6.706   2.476   0.725  0.00  0.00    +0.004 A 
ATOM     17  C   LIG    1        7.416   3.213   1.669  0.00  0.00    +0.000 A 
ATOM     18  C   LIG    1        7.786   2.619   2.873  0.00  0.00    +0.000 A 
ATOM     19  C   LIG    1        7.453   1.294   3.141  0.00  0.00    +0.000 A 
ATOM     20  C   LIG    1        6.745   0.556   2.196  0.00  0.00    +0.004 A 
ENDBRANCH   1  15
BRANCH   1  21
ATOM     21  C   LIG    1        6.202   0.370  -1.502  0.00  0.00    +0.030 C 
BRANCH  21  22
ATOM     22  C   LIG    1        7.718   0.118  -1.514  0.00  0.00    -0.043 A 
ATOM     23  C   LIG    1        8.587   1.118  -1.968  0.00  0.00    +0.004 A 
ATOM     24  C   LIG    1        9.961   0.899  -1.976  0.00  0.00    +0.000 A 
ATOM     25  C   LIG    1       10.469  -0.319  -1.532  0.00  0.00    +0.000 A 
ATOM     26  C   LIG    1        9.614  -1.322  -1.080  0.00  0.00    +0.000 A 
ATOM     27  C   LIG    1        8.239  -1.103  -1.071  0.00  0.00    +0.004 A 
ENDBRANCH  21  22
BRANCH  21  28
ATOM     28  C   LIG    1        5.466  -0.576  -2.493  0.00  0.00    +0.006 C 
ATOM     29  C   LIG    1        5.914  -0.432  -3.958  0.00  0.00    +0.004 C 
ENDBRANCH  21  28
ENDBRANCH   1  21
TORSDOF 9
