REMARK  Name = DB05010
REMARK                            x       y       z     vdW  Elec       q    Type
REMARK                         _______ _______ _______ _____ _____    ______ ____
ROOT
ATOM      1  P   LIG    1        1.877  -0.207  -0.028  0.00  0.00    +0.202 P 
ATOM      2  O   LIG    1        2.109  -0.139  -1.521  0.00  0.00    -0.291 OA
ENDROOT
BRANCH   1   3
ATOM      3  O   LIG    1        2.610   0.699   0.936  0.00  0.00    -0.344 OA
ATOM      4  H   LIG    1        2.486   1.623   0.669  0.00  0.00    +0.218 HD
ENDBRANCH   1   3
BRANCH   1   5
ATOM      5  C   LIG    1        0.034  -0.035   0.283  0.00  0.00    +0.097 C 
BRANCH   5   6
ATOM      6  C   LIG    1       -0.487   1.356  -0.116  0.00  0.00    +0.009 C 
BRANCH   6   8
ATOM      7  C   LIG    1       -2.523   2.898  -0.305  0.00  0.00    +0.004 C 
ATOM      8  C   LIG    1       -2.002   1.513   0.101  0.00  0.00    -0.003 C 
ENDBRANCH   6   8
ENDBRANCH   5   6
ENDBRANCH   1   5
BRANCH   1   9
ATOM      9  C   LIG    1        2.144  -1.984   0.527  0.00  0.00    +0.095 C 
BRANCH   9  10
ATOM     10  C   LIG    1        3.627  -2.393   0.604  0.00  0.00    -0.010 C 
BRANCH  10  11
ATOM     11  C   LIG    1        4.356  -2.349  -0.750  0.00  0.00    -0.086 C 
BRANCH  11  12
ATOM     12  N   LIG    1        5.806  -2.810  -0.578  0.00  0.00    +0.378 N 
ATOM     13  H   LIG    1        6.285  -2.204   0.073  0.00  0.00    -0.090 HD
ATOM     14  H   LIG    1        5.832  -3.755  -0.224  0.00  0.00    -0.090 HD
ATOM     15  H   LIG    1        6.286  -2.779  -1.466  0.00  0.00    -0.090 HD
ENDBRANCH  11  12
ENDBRANCH  10  11
ENDBRANCH   9  10
ENDBRANCH   1   9
TORSDOF 8
