REMARK  Name = DB05984
REMARK                            x       y       z     vdW  Elec       q    Type
REMARK                         _______ _______ _______ _____ _____    ______ ____
ROOT
ATOM      1  C   LIG    1       -4.340   0.700   0.745  0.00  0.00    +0.152 C 
ATOM      2  N   LIG    1       -3.397  -0.259   0.176  0.00  0.00    -0.315 N 
ATOM      3  C   LIG    1       -3.670  -1.347  -0.641  0.00  0.00    +0.201 A 
ATOM      4  N   LIG    1       -2.589  -1.997  -1.002  0.00  0.00    -0.214 NA
ATOM      5  C   LIG    1       -1.553  -1.322  -0.419  0.00  0.00    +0.094 A 
ATOM      6  C   LIG    1       -0.178  -1.586  -0.485  0.00  0.00    +0.076 A 
ATOM      7  C   LIG    1        0.694  -0.729   0.191  0.00  0.00    +0.131 A 
ATOM      8  C   LIG    1        0.208   0.355   0.927  0.00  0.00    +0.048 A 
ATOM      9  C   LIG    1       -1.157   0.641   1.016  0.00  0.00    +0.031 A 
ATOM     10  C   LIG    1       -2.024  -0.216   0.329  0.00  0.00    +0.070 A 
ENDROOT
BRANCH   3  11
ATOM     11  N   LIG    1       -4.965  -1.644  -1.017  0.00  0.00    -0.285 N 
ATOM     12  H   LIG    1       -5.671  -0.937  -0.879  0.00  0.00    +0.155 HD
BRANCH  11  13
ATOM     13  C   LIG    1       -5.480  -2.771  -1.685  0.00  0.00    +0.034 A 
ATOM     14  C   LIG    1       -4.802  -3.993  -1.780  0.00  0.00    +0.024 A 
ATOM     15  C   LIG    1       -5.382  -5.068  -2.448  0.00  0.00    +0.014 A 
ATOM     16  C   LIG    1       -6.650  -4.938  -3.025  0.00  0.00    +0.055 A 
ATOM     17  C   LIG    1       -7.331  -3.722  -2.920  0.00  0.00    +0.014 A 
ATOM     18  C   LIG    1       -6.750  -2.649  -2.251  0.00  0.00    +0.024 A 
BRANCH  16  19
ATOM     19  C   LIG    1       -7.304  -6.107  -3.760  0.00  0.00    +0.417 C 
ATOM     20  F   LIG    1       -8.569  -6.256  -3.363  0.00  0.00    -0.166 F 
ATOM     21  F   LIG    1       -6.668  -7.260  -3.548  0.00  0.00    -0.166 F 
ATOM     22  F   LIG    1       -7.295  -5.860  -5.070  0.00  0.00    -0.166 F 
ENDBRANCH  16  19
ENDBRANCH  11  13
ENDBRANCH   3  11
BRANCH   7  23
ATOM     23  O   LIG    1        2.047  -0.959   0.128  0.00  0.00    -0.456 OA
BRANCH  23  24
ATOM     24  C   LIG    1        2.833  -0.294  -0.793  0.00  0.00    +0.132 A 
ATOM     25  C   LIG    1        2.333   0.582  -1.774  0.00  0.00    +0.077 A 
ATOM     26  C   LIG    1        3.222   1.200  -2.663  0.00  0.00    +0.109 A 
ATOM     27  N   LIG    1        4.564   0.978  -2.610  0.00  0.00    -0.252 NA
ATOM     28  C   LIG    1        5.037   0.129  -1.664  0.00  0.00    +0.115 A 
ATOM     29  C   LIG    1        4.211  -0.520  -0.747  0.00  0.00    +0.066 A 
BRANCH  26  30
ATOM     30  C   LIG    1        2.747   2.139  -3.729  0.00  0.00    +0.157 A 
ATOM     31  N   LIG    1        3.567   2.772  -4.631  0.00  0.00    -0.343 N 
ATOM     32  H   LIG    1        4.572   2.689  -4.692  0.00  0.00    +0.167 HD
ATOM     33  C   LIG    1        2.757   3.530  -5.428  0.00  0.00    +0.116 A 
ATOM     34  C   LIG    1        1.467   3.312  -4.957  0.00  0.00    +0.162 A 
ATOM     35  N   LIG    1        1.488   2.469  -3.930  0.00  0.00    -0.222 NA
BRANCH  34  36
ATOM     36  C   LIG    1        0.152   3.885  -5.451  0.00  0.00    +0.436 C 
ATOM     37  F   LIG    1       -0.462   4.579  -4.492  0.00  0.00    -0.164 F 
ATOM     38  F   LIG    1       -0.675   2.919  -5.852  0.00  0.00    -0.164 F 
ATOM     39  F   LIG    1        0.337   4.708  -6.484  0.00  0.00    -0.164 F 
ENDBRANCH  34  36
ENDBRANCH  26  30
ENDBRANCH  23  24
ENDBRANCH   7  23
TORSDOF 7
