REMARK  Name = DB05137
REMARK                            x       y       z     vdW  Elec       q    Type
REMARK                         _______ _______ _______ _____ _____    ______ ____
ROOT
ATOM      1  C   LIG    1       -0.091   0.082  -0.029  0.00  0.00    -0.066 C 
ATOM      2  C   LIG    1       -0.592   1.546   0.101  0.00  0.00    -0.015 C 
ATOM      3  C   LIG    1       -2.106   1.654   0.315  0.00  0.00    -0.003 C 
ATOM      4  C   LIG    1       -2.543   0.820   1.522  0.00  0.00    -0.015 C 
ATOM      5  C   LIG    1       -2.126  -0.661   1.395  0.00  0.00    -0.061 C 
ATOM      6  N   LIG    1       -0.570  -0.733   1.223  0.00  0.00    +0.382 N 
ATOM      7  H   LIG    1       -0.170  -0.281   2.034  0.00  0.00    -0.081 HD
ATOM      8  C   LIG    1       -0.050  -2.194   1.192  0.00  0.00    -0.095 C 
ENDROOT
BRANCH   1   9
ATOM      9  C   LIG    1        1.462   0.002  -0.165  0.00  0.00    +0.021 C 
BRANCH   9  10
ATOM     10  C   LIG    1        2.107   0.898  -1.252  0.00  0.00    +0.143 C 
BRANCH  10  11
ATOM     11  C   LIG    1        3.628   0.734  -1.278  0.00  0.00    -0.019 A 
ATOM     12  C   LIG    1        4.427   1.627  -0.556  0.00  0.00    +0.006 A 
ATOM     13  C   LIG    1        5.812   1.484  -0.555  0.00  0.00    +0.000 A 
ATOM     14  C   LIG    1        6.399   0.444  -1.273  0.00  0.00    +0.000 A 
ATOM     15  C   LIG    1        5.612  -0.456  -1.989  0.00  0.00    +0.000 A 
ATOM     16  C   LIG    1        4.227  -0.313  -1.989  0.00  0.00    +0.006 A 
ENDBRANCH  10  11
BRANCH  10  17
ATOM     17  O   LIG    1        1.505   0.627  -2.506  0.00  0.00    -0.387 OA
ATOM     18  H   LIG    1        1.833   1.265  -3.145  0.00  0.00    +0.210 HD
ENDBRANCH  10  17
ENDBRANCH   9  10
ENDBRANCH   1   9
BRANCH   5  19
ATOM     19  C   LIG    1       -2.602  -1.451   2.655  0.00  0.00    +0.064 C 
BRANCH  19  20
ATOM     20  C   LIG    1       -3.022  -2.924   2.452  0.00  0.00    +0.162 C 
ATOM     21  O   LIG    1       -3.022  -3.405   1.317  0.00  0.00    -0.292 OA
BRANCH  20  22
ATOM     22  C   LIG    1       -3.397  -3.716   3.670  0.00  0.00    +0.017 A 
ATOM     23  C   LIG    1       -3.720  -5.075   3.532  0.00  0.00    +0.011 A 
ATOM     24  C   LIG    1       -4.075  -5.835   4.644  0.00  0.00    +0.001 A 
ATOM     25  C   LIG    1       -4.111  -5.241   5.902  0.00  0.00    +0.000 A 
ATOM     26  C   LIG    1       -3.797  -3.894   6.057  0.00  0.00    +0.001 A 
ATOM     27  C   LIG    1       -3.441  -3.133   4.947  0.00  0.00    +0.011 A 
ENDBRANCH  20  22
ENDBRANCH  19  20
ENDBRANCH   5  19
TORSDOF 7
