REMARK  Name = DB05885
REMARK                            x       y       z     vdW  Elec       q    Type
REMARK                         _______ _______ _______ _____ _____    ______ ____
ROOT
ATOM      1  C   LIG    1       -2.182  -0.675  -0.395  0.00  0.00    +0.043 C 
ATOM      2  C   LIG    1       -2.130   0.842  -0.277  0.00  0.00    +0.105 C 
ATOM      3  C   LIG    1       -0.648   1.217  -0.245  0.00  0.00    +0.217 C 
ATOM      4  N   LIG    1        0.027   0.063  -0.021  0.00  0.00    -0.289 N 
ATOM      5  O   LIG    1       -0.196   2.350  -0.406  0.00  0.00    -0.276 OA
ATOM      6  C   LIG    1       -0.835  -1.107   0.163  0.00  0.00    +0.116 C 
ENDROOT
BRANCH   1   9
ATOM      7  F   LIG    1       -3.464  -2.282  -3.591  0.00  0.00    -0.173 F 
ATOM      8  C   LIG    1       -3.350  -1.901  -2.301  0.00  0.00    +0.267 C 
ATOM      9  C   LIG    1       -2.352  -1.129  -1.841  0.00  0.00    +0.048 C 
ATOM     10  F   LIG    1       -4.353  -2.385  -1.536  0.00  0.00    -0.173 F 
ENDBRANCH   1   9
BRANCH   4  11
ATOM     11  C   LIG    1        1.501   0.008   0.093  0.00  0.00    +0.161 C 
BRANCH  11  12
ATOM     12  C   LIG    1        2.062  -0.486  -1.264  0.00  0.00    +0.231 C 
ATOM     13  N   LIG    1        1.889   0.306  -2.327  0.00  0.00    -0.328 N 
ATOM     14  H   LIG    1        1.399   1.184  -2.234  0.00  0.00    +0.145 HD
ATOM     15  H   LIG    1        2.244   0.027  -3.230  0.00  0.00    +0.145 HD
ATOM     16  O   LIG    1        2.660  -1.558  -1.360  0.00  0.00    -0.274 OA
ENDBRANCH  11  12
BRANCH  11  17
ATOM     17  C   LIG    1        2.005  -0.823   1.306  0.00  0.00    +0.028 C 
ATOM     18  C   LIG    1        1.578  -0.246   2.665  0.00  0.00    +0.006 C 
ENDBRANCH  11  17
ENDBRANCH   4  11
TORSDOF 4
