REMARK  Name = DB05710
REMARK                            x       y       z     vdW  Elec       q    Type
REMARK                         _______ _______ _______ _____ _____    ______ ____
ROOT
ATOM      1  C   LIG    1        1.748   0.470  -0.424  0.00  0.00    +0.131 C 
ATOM      2 CL   LIG    1        2.280   2.157  -0.621  0.00  0.00    -0.076 Cl
ATOM      3  C   LIG    1        2.592  -0.562  -0.155  0.00  0.00    +0.118 C 
ENDROOT
BRANCH   1   4
ATOM      4  C   LIG    1        0.291   0.297  -0.579  0.00  0.00    +0.351 C 
ATOM      5  O   LIG    1       -0.475   1.244  -0.775  0.00  0.00    -0.244 OA
BRANCH   4   6
ATOM      6  O   LIG    1       -0.132  -0.996  -0.476  0.00  0.00    -0.461 OA
BRANCH   6   7
ATOM      7  C   LIG    1       -1.515  -1.345  -0.528  0.00  0.00    +0.230 C 
BRANCH   7   8
ATOM      8  C   LIG    1       -2.231  -1.057   0.806  0.00  0.00    +0.023 C 
BRANCH   8   9
ATOM      9  C   LIG    1       -1.667  -1.900   1.976  0.00  0.00    -0.071 C 
BRANCH   9  11
ATOM     10  C   LIG    1       -1.575  -0.009   3.665  0.00  0.00    -0.091 C 
ATOM     11  N   LIG    1       -2.136  -1.435   3.398  0.00  0.00    +0.383 N 
ATOM     12  C   LIG    1       -3.700  -1.485   3.542  0.00  0.00    -0.030 C 
ATOM     13  C   LIG    1       -4.188  -2.941   3.441  0.00  0.00    -0.053 A 
ATOM     14  C   LIG    1       -5.479  -3.203   2.972  0.00  0.00    +0.051 A 
ATOM     15  C   LIG    1       -6.032  -4.491   2.979  0.00  0.00    +0.162 A 
ATOM     16  C   LIG    1       -5.257  -5.558   3.442  0.00  0.00    +0.162 A 
ATOM     17  C   LIG    1       -3.949  -5.307   3.882  0.00  0.00    +0.053 A 
ATOM     18  C   LIG    1       -3.400  -4.022   3.887  0.00  0.00    -0.044 A 
ATOM     19  C   LIG    1       -1.945  -3.835   4.316  0.00  0.00    +0.017 C 
ATOM     20  C   LIG    1       -1.484  -2.367   4.461  0.00  0.00    -0.070 C 
BRANCH  15  21
ATOM     21  O   LIG    1       -7.322  -4.776   2.566  0.00  0.00    -0.491 OA
ATOM     22  C   LIG    1       -8.181  -3.714   2.164  0.00  0.00    +0.277 C 
ENDBRANCH  15  21
BRANCH  16  23
ATOM     23  O   LIG    1       -5.840  -6.813   3.434  0.00  0.00    -0.491 OA
ATOM     24  C   LIG    1       -5.104  -7.933   3.914  0.00  0.00    +0.277 C 
ENDBRANCH  16  23
BRANCH  12  25
ATOM     25  C   LIG    1       -4.198  -0.792   4.854  0.00  0.00    +0.025 C 
BRANCH  25  26
ATOM     26  C   LIG    1       -5.715  -0.663   4.934  0.00  0.00    -0.041 A 
ATOM     27  C   LIG    1       -6.467  -1.615   5.623  0.00  0.00    +0.053 A 
ATOM     28  C   LIG    1       -7.868  -1.537   5.657  0.00  0.00    +0.165 A 
ATOM     29  C   LIG    1       -8.502  -0.464   5.015  0.00  0.00    +0.204 A 
ATOM     30  C   LIG    1       -7.761   0.504   4.322  0.00  0.00    +0.165 A 
ATOM     31  C   LIG    1       -6.362   0.392   4.289  0.00  0.00    +0.053 A 
BRANCH  28  32
ATOM     32  O   LIG    1       -8.677  -2.469   6.281  0.00  0.00    -0.491 OA
ATOM     33  C   LIG    1       -8.085  -3.619   6.875  0.00  0.00    +0.277 C 
ENDBRANCH  28  32
BRANCH  29  34
ATOM     34  O   LIG    1       -9.873  -0.380   5.034  0.00  0.00    -0.488 OA
ATOM     35  C   LIG    1      -10.393   0.358   6.132  0.00  0.00    +0.277 C 
ENDBRANCH  29  34
BRANCH  30  36
ATOM     36  O   LIG    1       -8.469   1.518   3.702  0.00  0.00    -0.491 OA
ATOM     37  C   LIG    1       -7.765   2.527   2.986  0.00  0.00    +0.277 C 
ENDBRANCH  30  36
ENDBRANCH  25  26
ENDBRANCH  12  25
ENDBRANCH   9  11
ENDBRANCH   8   9
ENDBRANCH   7   8
ENDBRANCH   6   7
ENDBRANCH   4   6
ENDBRANCH   1   4
BRANCH   3  38
ATOM     38  C   LIG    1        4.044  -0.476   0.021  0.00  0.00    +0.334 C 
ATOM     39  O   LIG    1        4.697   0.568  -0.036  0.00  0.00    -0.246 OA
BRANCH  38  40
ATOM     40  O   LIG    1        4.581  -1.692   0.258  0.00  0.00    -0.462 OA
BRANCH  40  41
ATOM     41  C   LIG    1        5.982  -1.853   0.454  0.00  0.00    +0.230 C 
BRANCH  41  42
ATOM     42  C   LIG    1        6.323  -3.344   0.590  0.00  0.00    +0.023 C 
BRANCH  42  43
ATOM     43  C   LIG    1        6.007  -4.136  -0.703  0.00  0.00    -0.071 C 
BRANCH  43  44
ATOM     44  N   LIG    1        6.265  -5.681  -0.619  0.00  0.00    +0.386 N 
ATOM     45  C   LIG    1        7.788  -5.931  -0.437  0.00  0.00    -0.091 C 
ATOM     46  C   LIG    1        5.745  -6.324  -1.958  0.00  0.00    -0.003 C 
ATOM     47  C   LIG    1        4.205  -6.343  -2.015  0.00  0.00    -0.049 A 
ATOM     48  C   LIG    1        3.571  -6.463  -3.257  0.00  0.00    +0.052 A 
ATOM     49  C   LIG    1        2.176  -6.526  -3.382  0.00  0.00    +0.162 A 
ATOM     50  C   LIG    1        1.389  -6.468  -2.229  0.00  0.00    +0.162 A 
ATOM     51  C   LIG    1        2.017  -6.343  -0.982  0.00  0.00    +0.053 A 
ATOM     52  C   LIG    1        3.407  -6.271  -0.854  0.00  0.00    -0.043 A 
ATOM     53  C   LIG    1        4.020  -6.081   0.531  0.00  0.00    +0.017 C 
ATOM     54  C   LIG    1        5.539  -6.336   0.589  0.00  0.00    -0.069 C 
BRANCH  46  55
ATOM     55  C   LIG    1        6.357  -7.705  -2.268  0.00  0.00    -0.049 A 
ATOM     56  C   LIG    1        5.816  -8.880  -1.736  0.00  0.00    +0.052 A 
ATOM     57  C   LIG    1        6.368 -10.135  -2.035  0.00  0.00    +0.165 A 
ATOM     58  C   LIG    1        7.476 -10.200  -2.890  0.00  0.00    +0.204 A 
ATOM     59  C   LIG    1        8.018  -9.039  -3.458  0.00  0.00    +0.165 A 
ATOM     60  C   LIG    1        7.445  -7.798  -3.140  0.00  0.00    +0.052 A 
BRANCH  57  61
ATOM     61  O   LIG    1        5.885 -11.330  -1.533  0.00  0.00    -0.491 OA
ATOM     62  C   LIG    1        4.764 -11.319  -0.655  0.00  0.00    +0.277 C 
ENDBRANCH  57  61
BRANCH  58  63
ATOM     63  O   LIG    1        8.020 -11.423  -3.199  0.00  0.00    -0.488 OA
ATOM     64  C   LIG    1        9.077 -11.822  -2.337  0.00  0.00    +0.277 C 
ENDBRANCH  58  63
BRANCH  59  65
ATOM     65  O   LIG    1        9.098  -9.197  -4.308  0.00  0.00    -0.491 OA
ATOM     66  C   LIG    1        9.691  -8.050  -4.907  0.00  0.00    +0.277 C 
ENDBRANCH  59  65
ENDBRANCH  46  55
BRANCH  49  67
ATOM     67  O   LIG    1        1.517  -6.646  -4.593  0.00  0.00    -0.491 OA
ATOM     68  C   LIG    1        2.270  -6.714  -5.799  0.00  0.00    +0.277 C 
ENDBRANCH  49  67
BRANCH  50  69
ATOM     69  O   LIG    1        0.016  -6.533  -2.397  0.00  0.00    -0.491 OA
ATOM     70  C   LIG    1       -0.835  -6.476  -1.257  0.00  0.00    +0.277 C 
ENDBRANCH  50  69
ENDBRANCH  43  44
ENDBRANCH  42  43
ENDBRANCH  41  42
ENDBRANCH  40  41
ENDBRANCH  38  40
ENDBRANCH   3  38
TORSDOF 25
