REMARK  Name = DB05837
REMARK                            x       y       z     vdW  Elec       q    Type
REMARK                         _______ _______ _______ _____ _____    ______ ____
ROOT
ATOM      1  C   LIG    1        1.656  -0.258  -0.076  0.00  0.00    +0.287 C 
ATOM      2  C   LIG    1        2.364  -0.721  -1.382  0.00  0.00    +0.228 C 
ATOM      3  C   LIG    1        3.745  -0.071  -1.232  0.00  0.00    +0.181 C 
ATOM      4  C   LIG    1        3.482   1.226  -0.457  0.00  0.00    +0.180 C 
ATOM      5  O   LIG    1        2.175   1.039   0.084  0.00  0.00    -0.321 OA
ENDROOT
BRANCH   1  12
ATOM      6  S   LIG    1       -0.124  -2.924  -0.718  0.00  0.00    -0.011 S 
ATOM      7  C   LIG    1       -0.644  -1.375  -0.356  0.00  0.00    +0.186 A 
ATOM      8  N   LIG    1       -2.037  -1.199  -0.328  0.00  0.00    -0.208 NA
ATOM      9  C   LIG    1       -2.622  -0.100   0.003  0.00  0.00    +0.120 A 
ATOM     10  C   LIG    1       -1.833   1.044   0.371  0.00  0.00    +0.061 A 
ATOM     11  C   LIG    1       -0.490   0.914   0.329  0.00  0.00    +0.096 A 
ATOM     12  N   LIG    1        0.163  -0.258  -0.053  0.00  0.00    -0.272 N 
BRANCH   9  13
ATOM     13  N   LIG    1       -3.992  -0.004   0.009  0.00  0.00    -0.343 N 
ATOM     14  H   LIG    1       -4.557  -0.802  -0.245  0.00  0.00    +0.144 HD
ATOM     15  H   LIG    1       -4.449   0.856   0.272  0.00  0.00    +0.144 HD
ENDBRANCH   9  13
ENDBRANCH   1  12
BRANCH   3  16
ATOM     16  O   LIG    1        4.680  -0.909  -0.573  0.00  0.00    -0.386 OA
ATOM     17  H   LIG    1        4.686  -1.764  -1.010  0.00  0.00    +0.210 HD
ENDBRANCH   3  16
BRANCH   2  18
ATOM     18  O   LIG    1        1.677  -0.245  -2.530  0.00  0.00    -0.382 OA
ATOM     19  H   LIG    1        0.903  -0.795  -2.672  0.00  0.00    +0.210 HD
ENDBRANCH   2  18
BRANCH   1  20
ATOM     20  O   LIG    1        2.087  -1.081   0.947  0.00  0.00    -0.346 OA
ATOM     21  H   LIG    1        1.718  -0.748   1.769  0.00  0.00    +0.215 HD
ENDBRANCH   1  20
BRANCH   4  22
ATOM     22  C   LIG    1        3.418   2.499  -1.324  0.00  0.00    +0.190 C 
BRANCH  22  23
ATOM     23  O   LIG    1        4.716   2.908  -1.704  0.00  0.00    -0.392 OA
ATOM     24  H   LIG    1        4.644   3.710  -2.227  0.00  0.00    +0.210 HD
ENDBRANCH  22  23
ENDBRANCH   4  22
TORSDOF 7
