REMARK  Name = DB05966
REMARK                            x       y       z     vdW  Elec       q    Type
REMARK                         _______ _______ _______ _____ _____    ______ ____
ROOT
ATOM      1  C   LIG    1        4.279  -2.531  -0.408  0.00  0.00    -0.002 C 
ATOM      2  C   LIG    1        5.818  -2.308  -0.376  0.00  0.00    -0.026 C 
ATOM      3  C   LIG    1        6.239  -1.164  -1.354  0.00  0.00    +0.012 C 
ATOM      4  C   LIG    1        6.410  -2.062   1.036  0.00  0.00    +0.008 C 
ATOM      5  C   LIG    1        7.961  -2.140   1.042  0.00  0.00    +0.009 C 
ATOM      6  C   LIG    1        8.503  -3.464   0.411  0.00  0.00    +0.023 C 
ATOM      7  C   LIG    1       10.039  -3.602   0.339  0.00  0.00    -0.041 A 
ATOM      8  C   LIG    1       10.864  -2.997   1.301  0.00  0.00    +0.008 A 
ATOM      9  C   LIG    1       12.244  -3.176   1.301  0.00  0.00    +0.046 A 
ATOM     10  C   LIG    1       12.835  -3.974   0.330  0.00  0.00    +0.117 A 
ATOM     11  C   LIG    1       12.041  -4.573  -0.642  0.00  0.00    +0.049 A 
ATOM     12  C   LIG    1       10.653  -4.393  -0.667  0.00  0.00    -0.040 A 
ATOM     13  C   LIG    1        9.848  -5.012  -1.814  0.00  0.00    +0.039 C 
ATOM     14  C   LIG    1        8.343  -5.162  -1.512  0.00  0.00    -0.006 C 
ATOM     15  C   LIG    1        8.053  -6.400  -0.633  0.00  0.00    +0.008 C 
ATOM     16  C   LIG    1        7.822  -3.817  -0.948  0.00  0.00    +0.003 C 
ATOM     17  C   LIG    1        6.280  -3.721  -0.807  0.00  0.00    -0.001 C 
ATOM     18  C   LIG    1        5.380  -4.086  -1.994  0.00  0.00    +0.004 C 
ATOM     19  C   LIG    1        4.045  -3.381  -1.683  0.00  0.00    +0.004 C 
ENDROOT
BRANCH  10  20
ATOM     20  O   LIG    1       14.191  -4.163   0.325  0.00  0.00    -0.507 OA
ATOM     21  H   LIG    1       14.636  -3.704   1.042  0.00  0.00    +0.292 HD
ENDBRANCH  10  20
BRANCH   1  22
ATOM     22  C   LIG    1        3.405  -1.256  -0.316  0.00  0.00    +0.045 C 
BRANCH  22  23
ATOM     23  C   LIG    1        1.900  -1.554  -0.206  0.00  0.00    +0.229 C 
BRANCH  23  24
ATOM     24  O   LIG    1        1.201  -0.323  -0.049  0.00  0.00    -0.488 OA
BRANCH  24  28
ATOM     25  C   LIG    1       -2.989  -0.174   0.089  0.00  0.00    -0.060 A 
ATOM     26  C   LIG    1       -2.217   0.985   0.186  0.00  0.00    +0.051 A 
ATOM     27  C   LIG    1       -0.813   0.924   0.146  0.00  0.00    +0.162 A 
ATOM     28  C   LIG    1       -0.183  -0.321  -0.005  0.00  0.00    +0.162 A 
ATOM     29  C   LIG    1       -0.968  -1.482  -0.106  0.00  0.00    +0.049 A 
ATOM     30  C   LIG    1       -2.357  -1.408  -0.063  0.00  0.00    +0.005 A 
BRANCH  27  31
ATOM     31  O   LIG    1        0.006   2.035   0.249  0.00  0.00    -0.491 OA
ATOM     32  C   LIG    1       -0.575   3.321   0.431  0.00  0.00    +0.277 C 
ENDBRANCH  27  31
BRANCH  25  33
ATOM     33  C   LIG    1       -4.509  -0.092   0.112  0.00  0.00    -0.043 C 
BRANCH  33  34
ATOM     34  N   LIG    1       -5.159  -0.432   1.476  0.00  0.00    +0.382 N 
ATOM     35  H   LIG    1       -4.836  -1.363   1.700  0.00  0.00    -0.081 HD
BRANCH  34  37
ATOM     36  C   LIG    1       -7.353  -1.070   2.630  0.00  0.00    -0.017 C 
ATOM     37  C   LIG    1       -6.699  -0.546   1.341  0.00  0.00    -0.082 C 
ENDBRANCH  34  37
BRANCH  34  38
ATOM     38  C   LIG    1       -4.670   0.468   2.644  0.00  0.00    -0.082 C 
ATOM     39  C   LIG    1       -5.149   1.926   2.520  0.00  0.00    -0.017 C 
ENDBRANCH  34  38
ENDBRANCH  33  34
ENDBRANCH  25  33
ENDBRANCH  24  28
ENDBRANCH  23  24
ENDBRANCH  22  23
ENDBRANCH   1  22
TORSDOF 10
