REMARK  Name = DB05461
REMARK                            x       y       z     vdW  Elec       q    Type
REMARK                         _______ _______ _______ _____ _____    ______ ____
ROOT
ATOM      1  O   LIG    1       -0.551  -0.675   0.780  0.00  0.00    -0.270 OA
ATOM      2  C   LIG    1        0.063   0.271   0.278  0.00  0.00    +0.247 C 
ATOM      3  N   LIG    1       -0.570   1.336  -0.298  0.00  0.00    -0.298 N 
ATOM      4  C   LIG    1        0.010   2.695  -0.274  0.00  0.00    +0.106 C 
ATOM      5  C   LIG    1       -0.352   3.332   1.088  0.00  0.00    +0.004 C 
ATOM      6  C   LIG    1       -1.878   3.294   1.369  0.00  0.00    -0.066 C 
ATOM      7  C   LIG    1       -2.550   1.937   1.009  0.00  0.00    +0.004 C 
ATOM      8  C   LIG    1       -2.046   1.364  -0.341  0.00  0.00    +0.106 C 
ENDROOT
BRANCH   2   9
ATOM      9  C   LIG    1        1.575   0.236   0.302  0.00  0.00    +0.038 A 
ATOM     10  C   LIG    1        2.240  -0.219   1.446  0.00  0.00    +0.018 A 
ATOM     11  C   LIG    1        3.635  -0.274   1.500  0.00  0.00    -0.028 A 
ATOM     12  C   LIG    1        4.292  -0.723   2.801  0.00  0.00    +0.046 C 
ATOM     13  C   LIG    1        4.387   0.116   0.373  0.00  0.00    +0.039 A 
ATOM     14  C   LIG    1        3.729   0.566  -0.787  0.00  0.00    -0.028 A 
ATOM     15  C   LIG    1        4.502   1.000  -2.027  0.00  0.00    +0.046 C 
ATOM     16  C   LIG    1        2.333   0.610  -0.814  0.00  0.00    +0.018 A 
BRANCH  13  17
ATOM     17  N   LIG    1        5.792   0.093   0.392  0.00  0.00    -0.285 N 
ATOM     18  H   LIG    1        6.260   0.985   0.325  0.00  0.00    +0.155 HD
ATOM     19  C   LIG    1        6.538  -1.029   0.355  0.00  0.00    +0.217 C 
ATOM     20  O   LIG    1        6.066  -2.167   0.310  0.00  0.00    -0.275 OA
BRANCH  19  21
ATOM     21  C   LIG    1        8.060  -0.825   0.339  0.00  0.00    +0.093 C 
ATOM     22  C   LIG    1        8.820  -1.826   1.227  0.00  0.00    +0.013 C 
ENDBRANCH  19  21
ENDBRANCH  13  17
ENDBRANCH   2   9
BRANCH   6  23
ATOM     23  N   LIG    1       -2.153   3.725   2.835  0.00  0.00    +0.380 N 
ATOM     24  H   LIG    1       -1.500   4.477   3.009  0.00  0.00    -0.082 HD
ATOM     25  C   LIG    1       -3.561   4.339   2.987  0.00  0.00    -0.096 C 
BRANCH  23  26
ATOM     26  C   LIG    1       -1.858   2.651   3.913  0.00  0.00    -0.074 C 
BRANCH  26  27
ATOM     27  C   LIG    1       -1.533   3.311   5.266  0.00  0.00    +0.016 C 
BRANCH  27  28
ATOM     28  C   LIG    1       -1.120   2.285   6.312  0.00  0.00    -0.049 A 
ATOM     29  C   LIG    1        0.204   1.841   6.366  0.00  0.00    +0.003 A 
ATOM     30  C   LIG    1        0.582   0.896   7.316  0.00  0.00    +0.000 A 
ATOM     31  C   LIG    1       -0.365   0.399   8.210  0.00  0.00    +0.000 A 
ATOM     32  C   LIG    1       -1.687   0.837   8.160  0.00  0.00    +0.000 A 
ATOM     33  C   LIG    1       -2.066   1.781   7.209  0.00  0.00    +0.003 A 
ENDBRANCH  27  28
ENDBRANCH  26  27
ENDBRANCH  23  26
ENDBRANCH   6  23
TORSDOF 7
