REMARK  Name = DB05624
REMARK                            x       y       z     vdW  Elec       q    Type
REMARK                         _______ _______ _______ _____ _____    ______ ____
ROOT
ATOM      1  C   LIG    1        3.195  -0.097  -0.236  0.00  0.00    +0.163 C 
ENDROOT
BRANCH   1   2
ATOM      2  N   LIG    1        3.937  -0.475  -1.438  0.00  0.00    -0.302 N 
ATOM      3  H   LIG    1        4.523   0.240  -1.843  0.00  0.00    +0.150 HD
ATOM      4  C   LIG    1        3.812  -1.659  -2.061  0.00  0.00    +0.236 C 
ATOM      5  O   LIG    1        3.153  -2.603  -1.626  0.00  0.00    -0.274 OA
BRANCH   4   6
ATOM      6  CA  LIG    1        4.550  -1.798  -3.401  0.00  0.00    +0.184 C 
BRANCH   6   7
ATOM      7  N   LIG    1        5.827  -2.483  -3.226  0.00  0.00    -0.301 N 
ATOM      8  H   LIG    1        5.836  -3.462  -3.475  0.00  0.00    +0.150 HD
ATOM      9  C   LIG    1        6.953  -1.907  -2.776  0.00  0.00    +0.234 C 
ATOM     10  O   LIG    1        7.040  -0.719  -2.464  0.00  0.00    -0.274 OA
BRANCH   9  11
ATOM     11  CA  LIG    1        8.184  -2.836  -2.695  0.00  0.00    +0.163 C 
BRANCH  11  12
ATOM     12  N   LIG    1        9.084  -2.488  -1.589  0.00  0.00    -0.302 N 
ATOM     13  H   LIG    1        9.052  -3.127  -0.808  0.00  0.00    +0.150 HD
ATOM     14  C   LIG    1        9.942  -1.454  -1.518  0.00  0.00    +0.234 C 
ATOM     15  O   LIG    1       10.075  -0.597  -2.392  0.00  0.00    -0.274 OA
BRANCH  14  16
ATOM     16  CA  LIG    1       10.791  -1.400  -0.230  0.00  0.00    +0.163 C 
BRANCH  16  17
ATOM     17  N   LIG    1       11.317  -0.061   0.062  0.00  0.00    -0.302 N 
ATOM     18  H   LIG    1       10.870   0.402   0.840  0.00  0.00    +0.150 HD
ATOM     19  C   LIG    1       12.350   0.563  -0.534  0.00  0.00    +0.234 C 
ATOM     20  O   LIG    1       12.979   0.107  -1.490  0.00  0.00    -0.274 OA
BRANCH  19  21
ATOM     21  CA  LIG    1       12.758   1.909   0.108  0.00  0.00    +0.163 C 
BRANCH  21  22
ATOM     22  N   LIG    1       13.257   2.879  -0.877  0.00  0.00    -0.304 N 
ATOM     23  H   LIG    1       12.600   3.607  -1.115  0.00  0.00    +0.149 HD
ATOM     24  C   LIG    1       14.455   2.891  -1.491  0.00  0.00    +0.211 C 
ATOM     25  C   LIG    1       14.695   4.023  -2.485  0.00  0.00    +0.109 C 
ATOM     26  O   LIG    1       15.340   2.060  -1.295  0.00  0.00    -0.276 OA
ENDBRANCH  21  22
BRANCH  21  27
ATOM     27  C   LIG    1       13.717   1.718   1.323  0.00  0.00    +0.067 C 
BRANCH  27  28
ATOM     28  C   LIG    1       13.046   1.024   2.506  0.00  0.00    -0.045 A 
ATOM     29  C   LIG    1       12.182   1.737   3.337  0.00  0.00    +0.004 A 
ATOM     30  C   LIG    1       11.524   1.108   4.391  0.00  0.00    +0.009 A 
ATOM     31  C   LIG    1       11.708  -0.278   4.624  0.00  0.00    -0.018 A 
ATOM     32  C   LIG    1       11.028  -0.957   5.665  0.00  0.00    +0.008 A 
ATOM     33  C   LIG    1       11.220  -2.323   5.856  0.00  0.00    +0.001 A 
ATOM     34  C   LIG    1       12.083  -3.039   5.031  0.00  0.00    +0.001 A 
ATOM     35  C   LIG    1       12.770  -2.401   4.002  0.00  0.00    +0.008 A 
ATOM     36  C   LIG    1       12.595  -1.012   3.779  0.00  0.00    -0.018 A 
ATOM     37  C   LIG    1       13.270  -0.335   2.735  0.00  0.00    +0.012 A 
ENDBRANCH  27  28
ENDBRANCH  21  27
ENDBRANCH  19  21
ENDBRANCH  16  17
BRANCH  16  38
ATOM     38  C   LIG    1       11.894  -2.500  -0.201  0.00  0.00    +0.067 C 
BRANCH  38  39
ATOM     39  C   LIG    1       11.367  -3.896   0.123  0.00  0.00    -0.045 A 
ATOM     40  C   LIG    1       11.573  -4.943  -0.780  0.00  0.00    +0.005 A 
ATOM     41  C   LIG    1       11.090  -6.216  -0.491  0.00  0.00    +0.020 A 
ATOM     42  C   LIG    1       10.408  -6.444   0.703  0.00  0.00    +0.041 A 
ATOM     43 CL   LIG    1        9.810  -8.023   1.060  0.00  0.00    -0.084 Cl
ATOM     44  C   LIG    1       10.208  -5.406   1.613  0.00  0.00    +0.020 A 
ATOM     45  C   LIG    1       10.689  -4.133   1.324  0.00  0.00    +0.005 A 
ENDBRANCH  38  39
ENDBRANCH  16  38
ENDBRANCH  14  16
ENDBRANCH  11  12
BRANCH  11  46
ATOM     46  C   LIG    1        8.928  -2.967  -4.056  0.00  0.00    +0.068 C 
BRANCH  46  47
ATOM     47  C   LIG    1        8.124  -3.715  -5.115  0.00  0.00    -0.027 A 
ATOM     48  C   LIG    1        7.565  -3.039  -6.206  0.00  0.00    +0.006 A 
ATOM     49  C   LIG    1        6.826  -3.751  -7.154  0.00  0.00    +0.020 A 
ATOM     50  C   LIG    1        6.667  -5.126  -6.977  0.00  0.00    +0.111 A 
ATOM     51  N   LIG    1        7.201  -5.803  -5.928  0.00  0.00    -0.263 NA
ATOM     52  C   LIG    1        7.919  -5.096  -5.019  0.00  0.00    +0.114 A 
ENDBRANCH  46  47
ENDBRANCH  11  46
ENDBRANCH   9  11
ENDBRANCH   6   7
BRANCH   6  53
ATOM     53  C   LIG    1        3.702  -2.559  -4.441  0.00  0.00    +0.187 C 
BRANCH  53  54
ATOM     54  O   LIG    1        4.112  -2.220  -5.749  0.00  0.00    -0.393 OA
ATOM     55  H   LIG    1        3.610  -2.750  -6.373  0.00  0.00    +0.209 HD
ENDBRANCH  53  54
ENDBRANCH   6  53
ENDBRANCH   4   6
ENDBRANCH   1   2
BRANCH   1  58
ATOM     56  N   LIG    1        0.778  -0.448  -0.042  0.00  0.00    -0.302 N 
ATOM     57  H   LIG    1        1.031  -1.183   0.603  0.00  0.00    +0.150 HD
ATOM     58  C   LIG    1        1.756   0.271  -0.621  0.00  0.00    +0.234 C 
ATOM     59  O   LIG    1        1.565   1.177  -1.430  0.00  0.00    -0.274 OA
BRANCH  56  60
ATOM     60  C   LIG    1       -0.662  -0.282  -0.278  0.00  0.00    +0.159 C 
BRANCH  60  63
ATOM     61  N   LIG    1       -0.876   1.428   1.461  0.00  0.00    -0.302 N 
ATOM     62  H   LIG    1       -0.419   0.751   2.055  0.00  0.00    +0.150 HD
ATOM     63  C   LIG    1       -1.143   1.111   0.182  0.00  0.00    +0.234 C 
ATOM     64  O   LIG    1       -1.690   1.875  -0.615  0.00  0.00    -0.274 OA
BRANCH  61  65
ATOM     65  C   LIG    1       -1.083   2.752   2.043  0.00  0.00    +0.159 C 
BRANCH  65  68
ATOM     66  N   LIG    1       -0.096   4.819   1.200  0.00  0.00    -0.302 N 
ATOM     67  H   LIG    1       -1.045   5.054   0.946  0.00  0.00    +0.150 HD
ATOM     68  C   LIG    1        0.149   3.633   1.779  0.00  0.00    +0.234 C 
ATOM     69  O   LIG    1        1.265   3.238   2.121  0.00  0.00    -0.274 OA
BRANCH  66  70
ATOM     70  C   LIG    1        0.895   5.868   0.968  0.00  0.00    +0.159 C 
BRANCH  70  76
ATOM     71  C   LIG    1       -0.179   8.684   3.395  0.00  0.00    +0.162 C 
ATOM     72  C   LIG    1        0.047   8.430   4.893  0.00  0.00    +0.033 C 
ATOM     73  C   LIG    1        1.406   7.752   4.955  0.00  0.00    +0.021 C 
ATOM     74  C   LIG    1        1.422   6.887   3.699  0.00  0.00    +0.109 C 
ATOM     75  N   LIG    1        0.522   7.555   2.754  0.00  0.00    -0.288 N 
ATOM     76  C   LIG    1        0.279   7.189   1.472  0.00  0.00    +0.237 C 
ATOM     77  O   LIG    1       -0.453   7.825   0.712  0.00  0.00    -0.274 OA
BRANCH  71  80
ATOM     78  N   LIG    1        1.445  10.167   2.263  0.00  0.00    -0.303 N 
ATOM     79  H   LIG    1        1.944   9.312   2.067  0.00  0.00    +0.149 HD
ATOM     80  C   LIG    1        0.297  10.088   2.964  0.00  0.00    +0.234 C 
ATOM     81  O   LIG    1       -0.402  11.056   3.259  0.00  0.00    -0.274 OA
BRANCH  78  82
ATOM     82  C   LIG    1        2.071  11.382   1.717  0.00  0.00    +0.156 C 
ATOM     83  C   LIG    1        2.454  12.352   2.856  0.00  0.00    +0.038 C 
BRANCH  82  84
ATOM     84  C   LIG    1        1.301  12.087   0.568  0.00  0.00    +0.231 C 
ATOM     85  N   LIG    1        0.249  11.471   0.016  0.00  0.00    -0.328 N 
ATOM     86  H   LIG    1       -0.055  10.571   0.358  0.00  0.00    +0.145 HD
ATOM     87  H   LIG    1       -0.255  11.912  -0.740  0.00  0.00    +0.145 HD
ATOM     88  O   LIG    1        1.691  13.183   0.167  0.00  0.00    -0.274 OA
ENDBRANCH  82  84
ENDBRANCH  78  82
ENDBRANCH  71  80
ENDBRANCH  70  76
BRANCH  70  89
ATOM     89  C   LIG    1        1.273   5.933  -0.531  0.00  0.00    +0.032 C 
BRANCH  89  90
ATOM     90  C   LIG    1        1.990   4.672  -1.042  0.00  0.00    +0.000 C 
BRANCH  90  91
ATOM     91  C   LIG    1        2.615   4.853  -2.435  0.00  0.00    -0.019 C 
BRANCH  91  92
ATOM     92  C   LIG    1        3.219   3.545  -2.964  0.00  0.00    -0.082 C 
BRANCH  92  93
ATOM     93  N   LIG    1        3.917   3.774  -4.225  0.00  0.00    +0.381 N 
ATOM     94  H   LIG    1        4.623   4.484  -4.090  0.00  0.00    -0.086 HD
ATOM     95  H   LIG    1        3.267   4.152  -4.899  0.00  0.00    -0.086 HD
BRANCH  93  96
ATOM     96  C   LIG    1        4.554   2.589  -4.809  0.00  0.00    -0.078 C 
ATOM     97  C   LIG    1        5.705   2.045  -3.938  0.00  0.00    -0.014 C 
ATOM     98  C   LIG    1        3.536   1.497  -5.199  0.00  0.00    -0.014 C 
ENDBRANCH  93  96
ENDBRANCH  92  93
ENDBRANCH  91  92
ENDBRANCH  90  91
ENDBRANCH  89  90
ENDBRANCH  70  89
ENDBRANCH  66  70
ENDBRANCH  65  68
BRANCH  65  99
ATOM     99  C   LIG    1       -1.393   2.587   3.552  0.00  0.00    +0.034 C 
BRANCH  99 100
ATOM    100  C   LIG    1       -1.554   3.894   4.368  0.00  0.00    -0.015 C 
ATOM    101  C   LIG    1       -2.621   4.846   3.787  0.00  0.00    +0.007 C 
ATOM    102  C   LIG    1       -1.798   3.586   5.860  0.00  0.00    +0.007 C 
ENDBRANCH  99 100
ENDBRANCH  65  99
ENDBRANCH  61  65
ENDBRANCH  60  63
BRANCH  60 103
ATOM    103  C   LIG    1       -1.087  -0.596  -1.738  0.00  0.00    +0.032 C 
BRANCH 103 104
ATOM    104  C   LIG    1       -0.574  -1.947  -2.277  0.00  0.00    +0.004 C 
BRANCH 104 105
ATOM    105  C   LIG    1       -1.203  -2.316  -3.635  0.00  0.00    +0.019 C 
BRANCH 105 106
ATOM    106  C   LIG    1       -0.587  -3.547  -4.328  0.00  0.00    +0.106 C 
BRANCH 106 107
ATOM    107  N   LIG    1       -0.636  -4.763  -3.513  0.00  0.00    -0.300 N 
ATOM    108  H   LIG    1       -1.534  -5.219  -3.451  0.00  0.00    +0.150 HD
ATOM    109  C   LIG    1        0.411  -5.333  -2.895  0.00  0.00    +0.297 C 
ATOM    110  N   LIG    1        0.070  -6.438  -2.232  0.00  0.00    -0.313 N 
ATOM    111  H   LIG    1        0.774  -6.963  -1.735  0.00  0.00    +0.146 HD
ATOM    112  H   LIG    1       -0.887  -6.756  -2.223  0.00  0.00    +0.146 HD
ATOM    113  O   LIG    1        1.564  -4.907  -2.922  0.00  0.00    -0.253 OA
ENDBRANCH 106 107
ENDBRANCH 105 106
ENDBRANCH 104 105
ENDBRANCH 103 104
ENDBRANCH  60 103
ENDBRANCH  56  60
ENDBRANCH   1  58
BRANCH   1 114
ATOM    114  C   LIG    1        3.899   1.085   0.461  0.00  0.00    +0.067 C 
BRANCH 114 115
ATOM    115  C   LIG    1        5.281   0.764   1.001  0.00  0.00    -0.045 A 
ATOM    116  C   LIG    1        6.433   1.079   0.249  0.00  0.00    +0.007 A 
ATOM    117  C   LIG    1        7.713   0.780   0.757  0.00  0.00    +0.045 A 
ATOM    118  C   LIG    1        7.845   0.171   2.020  0.00  0.00    +0.117 A 
ATOM    119  C   LIG    1        6.697  -0.148   2.771  0.00  0.00    +0.045 A 
ATOM    120  C   LIG    1        5.418   0.147   2.262  0.00  0.00    +0.007 A 
BRANCH 118 121
ATOM    121  O   LIG    1        9.083  -0.107   2.520  0.00  0.00    -0.507 OA
ATOM    122  H   LIG    1        9.056  -0.510   3.391  0.00  0.00    +0.292 HD
ENDBRANCH 118 121
ENDBRANCH 114 115
ENDBRANCH   1 114
TORSDOF 43
