REMARK  Name = DB05456
REMARK                            x       y       z     vdW  Elec       q    Type
REMARK                         _______ _______ _______ _____ _____    ______ ____
ROOT
ATOM      1  C   LIG    1       -0.569   1.691  -0.870  0.00  0.00    +0.240 C 
ENDROOT
BRANCH   1   2
ATOM      2  O   LIG    1       -1.156   0.744  -1.765  0.00  0.00    -0.456 OA
BRANCH   2   3
ATOM      3  C   LIG    1       -2.295   0.080  -1.456  0.00  0.00    +0.308 C 
ATOM      4  O   LIG    1       -2.941   0.206  -0.413  0.00  0.00    -0.251 OA
BRANCH   3   5
ATOM      5  C   LIG    1       -2.717  -0.877  -2.580  0.00  0.00    +0.120 C 
BRANCH   5   6
ATOM      6  C   LIG    1       -3.966  -1.742  -2.295  0.00  0.00    +0.011 C 
BRANCH   6   7
ATOM      7  C   LIG    1       -3.757  -2.846  -1.239  0.00  0.00    +0.001 C 
BRANCH   7   8
ATOM      8  C   LIG    1       -5.027  -3.681  -0.993  0.00  0.00    +0.000 C 
BRANCH   8   9
ATOM      9  C   LIG    1       -4.836  -4.771   0.077  0.00  0.00    +0.000 C 
BRANCH   9  10
ATOM     10  C   LIG    1       -6.122  -5.573   0.347  0.00  0.00    +0.000 C 
BRANCH  10  11
ATOM     11  C   LIG    1       -5.939  -6.669   1.413  0.00  0.00    -0.000 C 
BRANCH  11  12
ATOM     12  C   LIG    1       -7.237  -7.446   1.699  0.00  0.00    -0.000 C 
BRANCH  12  13
ATOM     13  C   LIG    1       -7.052  -8.562   2.747  0.00  0.00    -0.000 C 
BRANCH  13  14
ATOM     14  C   LIG    1       -8.354  -9.287   3.140  0.00  0.00    -0.000 C 
BRANCH  14  15
ATOM     15  C   LIG    1       -8.998 -10.104   2.002  0.00  0.00    -0.000 C 
BRANCH  15  16
ATOM     16  C   LIG    1      -10.257 -10.868   2.453  0.00  0.00    -0.000 C 
BRANCH  16  17
ATOM     17  C   LIG    1      -10.901 -11.687   1.317  0.00  0.00    -0.000 C 
BRANCH  17  18
ATOM     18  C   LIG    1      -12.209 -12.399   1.712  0.00  0.00    -0.003 C 
ATOM     19  C   LIG    1      -12.035 -13.507   2.763  0.00  0.00    +0.004 C 
ENDBRANCH  17  18
ENDBRANCH  16  17
ENDBRANCH  15  16
ENDBRANCH  14  15
ENDBRANCH  13  14
ENDBRANCH  12  13
ENDBRANCH  11  12
ENDBRANCH  10  11
ENDBRANCH   9  10
ENDBRANCH   8   9
ENDBRANCH   7   8
ENDBRANCH   6   7
ENDBRANCH   5   6
ENDBRANCH   3   5
ENDBRANCH   2   3
ENDBRANCH   1   2
BRANCH   1  20
ATOM     20  C   LIG    1       -1.331   3.037  -0.919  0.00  0.00    +0.220 C 
BRANCH  20  21
ATOM     21  O   LIG    1       -0.724   4.024  -0.093  0.00  0.00    -0.283 OA
BRANCH  21  22
ATOM     22  P   LIG    1       -1.121   4.059   1.594  0.00  0.00    +0.475 P 
ATOM     23  O   LIG    1       -0.420   5.257   2.197  0.00  0.00    -0.227 OA
BRANCH  22  24
ATOM     24  O   LIG    1       -2.605   3.813   1.750  0.00  0.00    -0.302 OA
ATOM     25  H   LIG    1       -2.847   2.995   1.289  0.00  0.00    +0.222 HD
ENDBRANCH  22  24
BRANCH  22  26
ATOM     26  O   LIG    1       -0.293   2.624   2.101  0.00  0.00    -0.289 OA
BRANCH  26  27
ATOM     27  C   LIG    1        1.122   2.660   2.167  0.00  0.00    +0.154 C 
BRANCH  27  28
ATOM     28  C   LIG    1        1.575   3.112   3.575  0.00  0.00    -0.047 C 
BRANCH  28  29
ATOM     29  N   LIG    1        2.993   3.754   3.603  0.00  0.00    +0.376 N 
ATOM     30  C   LIG    1        3.015   5.116   2.865  0.00  0.00    -0.093 C 
ATOM     31  C   LIG    1        4.051   2.810   2.982  0.00  0.00    -0.093 C 
ATOM     32  C   LIG    1        3.376   4.008   5.081  0.00  0.00    -0.093 C 
ENDBRANCH  28  29
ENDBRANCH  27  28
ENDBRANCH  26  27
ENDBRANCH  22  26
ENDBRANCH  21  22
ENDBRANCH  20  21
ENDBRANCH   1  20
BRANCH   1  33
ATOM     33  C   LIG    1        0.906   1.860  -1.276  0.00  0.00    +0.279 C 
BRANCH  33  34
ATOM     34  O   LIG    1        1.655   0.729  -0.844  0.00  0.00    -0.461 OA
BRANCH  34  35
ATOM     35  C   LIG    1        2.983   0.816  -0.622  0.00  0.00    +0.307 C 
ATOM     36  O   LIG    1        3.668   1.836  -0.726  0.00  0.00    -0.251 OA
BRANCH  35  37
ATOM     37  C   LIG    1        3.574  -0.525  -0.172  0.00  0.00    +0.120 C 
BRANCH  37  38
ATOM     38  C   LIG    1        4.901  -0.408   0.608  0.00  0.00    +0.011 C 
BRANCH  38  39
ATOM     39  C   LIG    1        5.465  -1.765   1.069  0.00  0.00    +0.001 C 
BRANCH  39  40
ATOM     40  C   LIG    1        6.008  -2.641  -0.077  0.00  0.00    +0.000 C 
BRANCH  40  41
ATOM     41  C   LIG    1        6.566  -3.989   0.414  0.00  0.00    +0.000 C 
BRANCH  41  42
ATOM     42  C   LIG    1        7.217  -4.818  -0.708  0.00  0.00    +0.004 C 
BRANCH  42  43
ATOM     43  C   LIG    1        7.708  -6.194  -0.227  0.00  0.00    +0.027 C 
BRANCH  43  44
ATOM     44  C   LIG    1        8.457  -6.971  -1.296  0.00  0.00    -0.031 C 
ATOM     45  C   LIG    1        7.951  -7.886  -2.145  0.00  0.00    -0.031 C 
BRANCH  45  46
ATOM     46  C   LIG    1        6.502  -8.331  -2.266  0.00  0.00    +0.027 C 
BRANCH  46  47
ATOM     47  C   LIG    1        5.901  -8.008  -3.644  0.00  0.00    +0.004 C 
BRANCH  47  48
ATOM     48  C   LIG    1        4.425  -8.432  -3.775  0.00  0.00    +0.000 C 
BRANCH  48  49
ATOM     49  C   LIG    1        3.821  -8.198  -5.175  0.00  0.00    +0.000 C 
BRANCH  49  50
ATOM     50  C   LIG    1        3.680  -6.711  -5.566  0.00  0.00    -0.000 C 
BRANCH  50  51
ATOM     51  C   LIG    1        3.104  -6.474  -6.976  0.00  0.00    -0.000 C 
BRANCH  51  52
ATOM     52  C   LIG    1        1.637  -6.912  -7.150  0.00  0.00    -0.003 C 
ATOM     53  C   LIG    1        1.076  -6.575  -8.538  0.00  0.00    +0.004 C 
ENDBRANCH  51  52
ENDBRANCH  50  51
ENDBRANCH  49  50
ENDBRANCH  48  49
ENDBRANCH  47  48
ENDBRANCH  46  47
ENDBRANCH  45  46
ENDBRANCH  43  44
ENDBRANCH  42  43
ENDBRANCH  41  42
ENDBRANCH  40  41
ENDBRANCH  39  40
ENDBRANCH  38  39
ENDBRANCH  37  38
ENDBRANCH  35  37
ENDBRANCH  34  35
ENDBRANCH  33  34
ENDBRANCH   1  33
TORSDOF 42
