REMARK  Name = DB05832
REMARK                            x       y       z     vdW  Elec       q    Type
REMARK                         _______ _______ _______ _____ _____    ______ ____
ROOT
ATOM      1  C   LIG    1        0.590   0.184  -0.296  0.00  0.00    +0.163 C 
ENDROOT
BRANCH   1   4
ATOM      2  N   LIG    1       -0.911   1.676   0.920  0.00  0.00    -0.302 N 
ATOM      3  H   LIG    1       -1.271   0.809   1.293  0.00  0.00    +0.150 HD
ATOM      4  C   LIG    1        0.118   1.602   0.055  0.00  0.00    +0.234 C 
ATOM      5  O   LIG    1        0.657   2.566  -0.491  0.00  0.00    -0.274 OA
BRANCH   2   6
ATOM      6  C   LIG    1       -1.621   2.874   1.385  0.00  0.00    +0.163 C 
BRANCH   6   9
ATOM      7  N   LIG    1       -1.484   4.382   3.302  0.00  0.00    -0.302 N 
ATOM      8  H   LIG    1       -2.468   4.167   3.372  0.00  0.00    +0.150 HD
ATOM      9  C   LIG    1       -0.792   3.796   2.306  0.00  0.00    +0.234 C 
ATOM     10  O   LIG    1        0.406   3.973   2.090  0.00  0.00    -0.274 OA
BRANCH   7  11
ATOM     11  C   LIG    1       -1.003   5.327   4.322  0.00  0.00    +0.159 C 
BRANCH  11  12
ATOM     12  C   LIG    1       -0.083   4.674   5.380  0.00  0.00    +0.231 C 
ATOM     13  N   LIG    1       -0.286   5.034   6.651  0.00  0.00    -0.328 N 
ATOM     14  H   LIG    1        0.292   4.649   7.383  0.00  0.00    +0.145 HD
ATOM     15  H   LIG    1       -1.014   5.692   6.886  0.00  0.00    +0.145 HD
ATOM     16  O   LIG    1        0.805   3.887   5.055  0.00  0.00    -0.274 OA
ENDBRANCH  11  12
BRANCH  11  17
ATOM     17  C   LIG    1       -0.363   6.577   3.655  0.00  0.00    +0.034 C 
BRANCH  17  19
ATOM     18  C   LIG    1       -1.354   8.305   5.278  0.00  0.00    +0.007 C 
ATOM     19  C   LIG    1       -0.076   7.773   4.593  0.00  0.00    -0.015 C 
ATOM     20  C   LIG    1        0.688   8.887   3.844  0.00  0.00    +0.007 C 
ENDBRANCH  17  19
ENDBRANCH  11  17
ENDBRANCH   7  11
ENDBRANCH   6   9
BRANCH   6  21
ATOM     21  C   LIG    1       -2.311   3.608   0.201  0.00  0.00    +0.067 C 
BRANCH  21  22
ATOM     22  C   LIG    1       -3.030   4.905   0.534  0.00  0.00    -0.045 A 
ATOM     23  C   LIG    1       -2.381   6.147   0.362  0.00  0.00    +0.004 A 
ATOM     24  C   LIG    1       -3.008   7.319   0.764  0.00  0.00    +0.000 A 
ATOM     25  C   LIG    1       -4.262   7.273   1.359  0.00  0.00    +0.000 A 
ATOM     26  C   LIG    1       -4.898   6.056   1.565  0.00  0.00    +0.000 A 
ATOM     27  C   LIG    1       -4.290   4.872   1.169  0.00  0.00    +0.004 A 
ENDBRANCH  21  22
ENDBRANCH   6  21
ENDBRANCH   2   6
ENDBRANCH   1   4
BRANCH   1  28
ATOM     28  N   LIG    1        2.050   0.131  -0.327  0.00  0.00    -0.302 N 
ATOM     29  H   LIG    1        2.514   1.025  -0.407  0.00  0.00    +0.150 HD
ATOM     30  C   LIG    1        2.782  -0.991  -0.253  0.00  0.00    +0.234 C 
ATOM     31  O   LIG    1        2.306  -2.123  -0.151  0.00  0.00    -0.274 OA
BRANCH  30  32
ATOM     32  C   LIG    1        4.310  -0.790  -0.355  0.00  0.00    +0.161 C 
BRANCH  32  33
ATOM     33  N   LIG    1        4.752  -0.834  -1.756  0.00  0.00    -0.305 N 
ATOM     34  H   LIG    1        5.130   0.037  -2.100  0.00  0.00    +0.149 HD
ATOM     35  C   LIG    1        4.689  -1.876  -2.608  0.00  0.00    +0.200 C 
ATOM     36  O   LIG    1        4.273  -2.998  -2.314  0.00  0.00    -0.278 OA
BRANCH  35  37
ATOM     37  C   LIG    1        5.198  -1.600  -4.038  0.00  0.00    +0.016 C 
BRANCH  37  38
ATOM     38  N   LIG    1        3.943  -1.677  -4.870  0.00  0.00    +0.385 N 
ATOM     39  H   LIG    1        3.251  -1.108  -4.403  0.00  0.00    -0.085 HD
ATOM     40  H   LIG    1        3.629  -2.638  -4.859  0.00  0.00    -0.085 HD
ATOM     41  C   LIG    1        4.074  -1.186  -6.320  0.00  0.00    -0.099 C 
ENDBRANCH  37  38
BRANCH  37  42
ATOM     42  C   LIG    1        6.297  -2.591  -4.516  0.00  0.00    -0.004 C 
BRANCH  42  43
ATOM     43  C   LIG    1        7.585  -2.619  -3.656  0.00  0.00    -0.018 C 
ATOM     44  C   LIG    1        8.563  -3.703  -4.157  0.00  0.00    +0.007 C 
ATOM     45  C   LIG    1        8.254  -1.231  -3.550  0.00  0.00    +0.007 C 
ENDBRANCH  42  43
ENDBRANCH  37  42
ENDBRANCH  35  37
ENDBRANCH  32  33
BRANCH  32  46
ATOM     46  C   LIG    1        5.068  -1.793   0.574  0.00  0.00    +0.012 C 
ATOM     47  C   LIG    1        6.590  -1.560   0.524  0.00  0.00    +0.009 C 
ATOM     48  C   LIG    1        4.603  -1.753   2.047  0.00  0.00    +0.009 C 
ENDBRANCH  32  46
ENDBRANCH  30  32
ENDBRANCH   1  28
BRANCH   1  49
ATOM     49  C   LIG    1       -0.000  -0.342  -1.631  0.00  0.00    +0.067 C 
BRANCH  49  50
ATOM     50  C   LIG    1       -1.495  -0.144  -1.828  0.00  0.00    -0.045 A 
ATOM     51  C   LIG    1       -1.982   0.985  -2.524  0.00  0.00    +0.004 A 
ATOM     52  C   LIG    1       -3.349   1.210  -2.612  0.00  0.00    +0.000 A 
ATOM     53  C   LIG    1       -4.242   0.342  -1.997  0.00  0.00    +0.000 A 
ATOM     54  C   LIG    1       -3.777  -0.753  -1.280  0.00  0.00    +0.000 A 
ATOM     55  C   LIG    1       -2.414  -0.996  -1.179  0.00  0.00    +0.004 A 
ENDBRANCH  49  50
ENDBRANCH   1  49
TORSDOF 19
