REMARK  Name = DB05676
REMARK                            x       y       z     vdW  Elec       q    Type
REMARK                         _______ _______ _______ _____ _____    ______ ____
ROOT
ATOM      1  C   LIG    1       -0.141   0.233  -0.278  0.00  0.00    +0.136 C 
ENDROOT
BRANCH   1   9
ATOM      2  C   LIG    1       -1.236  -1.160  -3.534  0.00  0.00    +0.051 A 
ATOM      3  C   LIG    1       -1.393  -1.276  -4.913  0.00  0.00    +0.014 A 
ATOM      4  C   LIG    1       -2.103  -2.368  -5.414  0.00  0.00    +0.003 A 
ATOM      5  C   LIG    1       -2.644  -3.321  -4.544  0.00  0.00    +0.024 A 
ATOM      6  C   LIG    1       -2.484  -3.199  -3.147  0.00  0.00    +0.046 A 
ATOM      7  C   LIG    1       -0.539  -0.123  -2.732  0.00  0.00    +0.254 C 
ATOM      8  O   LIG    1        0.060   0.868  -3.152  0.00  0.00    -0.270 OA
ATOM      9  N   LIG    1       -0.704  -0.503  -1.436  0.00  0.00    -0.225 N 
ATOM     10  C   LIG    1       -1.403  -1.662  -1.291  0.00  0.00    +0.256 C 
ATOM     11  O   LIG    1       -1.679  -2.234  -0.234  0.00  0.00    -0.269 OA
ATOM     12  C   LIG    1       -1.762  -2.090  -2.674  0.00  0.00    +0.071 A 
BRANCH   6  13
ATOM     13  N   LIG    1       -3.003  -4.117  -2.208  0.00  0.00    -0.285 N 
ATOM     14  H   LIG    1       -2.785  -3.884  -1.250  0.00  0.00    +0.155 HD
ATOM     15  C   LIG    1       -3.742  -5.231  -2.390  0.00  0.00    +0.214 C 
ATOM     16  O   LIG    1       -4.121  -5.677  -3.472  0.00  0.00    -0.276 OA
ATOM     17  C   LIG    1       -4.126  -5.977  -1.115  0.00  0.00    +0.109 C 
ENDBRANCH   6  13
ENDBRANCH   1   9
BRANCH   1  18
ATOM     18  C   LIG    1        1.388   0.130  -0.212  0.00  0.00    -0.021 A 
ATOM     19  C   LIG    1        2.221   1.158  -0.668  0.00  0.00    +0.055 A 
ATOM     20  C   LIG    1        3.620   1.052  -0.584  0.00  0.00    +0.162 A 
ATOM     21  C   LIG    1        4.191  -0.099  -0.021  0.00  0.00    +0.162 A 
ATOM     22  C   LIG    1        3.351  -1.125   0.445  0.00  0.00    +0.050 A 
ATOM     23  C   LIG    1        1.967  -1.008   0.351  0.00  0.00    +0.009 A 
BRANCH  21  24
ATOM     24  O   LIG    1        5.572  -0.151   0.043  0.00  0.00    -0.491 OA
ATOM     25  C   LIG    1        6.205  -1.294   0.609  0.00  0.00    +0.277 C 
ENDBRANCH  21  24
BRANCH  20  26
ATOM     26  O   LIG    1        4.490   2.032  -1.031  0.00  0.00    -0.489 OA
BRANCH  26  27
ATOM     27  C   LIG    1        3.973   3.216  -1.630  0.00  0.00    +0.226 C 
ATOM     28  C   LIG    1        5.145   4.101  -2.065  0.00  0.00    +0.048 C 
ENDBRANCH  26  27
ENDBRANCH  20  26
ENDBRANCH   1  18
BRANCH   1  29
ATOM     29  C   LIG    1       -0.691   1.678  -0.105  0.00  0.00    +0.193 C 
BRANCH  29  30
ATOM     30  S   LIG    1       -2.564   1.724   0.201  0.00  0.00    -0.032 S 
ATOM     31  O   LIG    1       -3.244   1.025  -0.895  0.00  0.00    -0.175 OA
ATOM     32  O   LIG    1       -2.925   3.113   0.501  0.00  0.00    -0.175 OA
ATOM     33  C   LIG    1       -2.810   0.720   1.778  0.00  0.00    +0.194 C 
ENDBRANCH  29  30
ENDBRANCH   1  29
TORSDOF 8
