REMARK  Name = DB05608
REMARK                            x       y       z     vdW  Elec       q    Type
REMARK                         _______ _______ _______ _____ _____    ______ ____
ROOT
ATOM      1  C   LIG    1       -0.807   1.080  -0.027  0.00  0.00    +0.059 C 
ATOM      2  C   LIG    1       -2.165   0.605  -0.039  0.00  0.00    +0.252 C 
ATOM      3  O   LIG    1       -3.214   1.245  -0.112  0.00  0.00    -0.270 OA
ATOM      4  N   LIG    1       -2.069  -0.725   0.069  0.00  0.00    -0.248 N 
ATOM      5  H   LIG    1       -2.872  -1.337   0.089  0.00  0.00    +0.158 HD
ATOM      6  C   LIG    1       -0.809  -1.169   0.147  0.00  0.00    +0.252 C 
ATOM      7  O   LIG    1       -0.467  -2.348   0.236  0.00  0.00    -0.270 OA
ATOM      8  C   LIG    1        0.008   0.014   0.081  0.00  0.00    +0.059 C 
ENDROOT
BRANCH   1  17
ATOM      9  C   LIG    1       -1.033   5.953  -1.214  0.00  0.00    +0.149 C 
ATOM     10  N   LIG    1       -0.591   4.721  -0.578  0.00  0.00    -0.349 N 
ATOM     11  C   LIG    1        0.473   4.595   0.297  0.00  0.00    +0.049 A 
ATOM     12  C   LIG    1        1.370   5.554   0.789  0.00  0.00    +0.026 A 
ATOM     13  C   LIG    1        2.338   5.120   1.692  0.00  0.00    +0.002 A 
ATOM     14  C   LIG    1        2.412   3.795   2.105  0.00  0.00    +0.001 A 
ATOM     15  C   LIG    1        1.523   2.840   1.619  0.00  0.00    +0.010 A 
ATOM     16  C   LIG    1        0.543   3.218   0.683  0.00  0.00    +0.008 A 
ATOM     17  C   LIG    1       -0.496   2.517  -0.035  0.00  0.00    +0.013 A 
ATOM     18  C   LIG    1       -1.175   3.490  -0.748  0.00  0.00    +0.095 A 
ENDBRANCH   1  17
BRANCH   8  19
ATOM     19  C   LIG    1        1.475  -0.068   0.045  0.00  0.00    +0.013 A 
ATOM     20  C   LIG    1        2.400   0.729  -0.724  0.00  0.00    +0.008 A 
ATOM     21  C   LIG    1        2.263   1.747  -1.681  0.00  0.00    +0.013 A 
ATOM     22  C   LIG    1        3.400   2.341  -2.220  0.00  0.00    +0.033 A 
ATOM     23  C   LIG    1        4.691   1.943  -1.850  0.00  0.00    +0.124 A 
ATOM     24  C   LIG    1        4.864   0.907  -0.919  0.00  0.00    +0.059 A 
ATOM     25  C   LIG    1        3.720   0.309  -0.374  0.00  0.00    +0.052 A 
ATOM     26  N   LIG    1        3.592  -0.731   0.530  0.00  0.00    -0.349 N 
ATOM     27  C   LIG    1        4.684  -1.476   1.135  0.00  0.00    +0.149 C 
ATOM     28  C   LIG    1        2.257  -0.966   0.750  0.00  0.00    +0.095 A 
BRANCH  23  29
ATOM     29  N   LIG    1        5.876   2.610  -2.447  0.00  0.00    +0.006 N 
ATOM     30  O   LIG    1        6.995   2.217  -2.130  0.00  0.00    -0.130 OA
BRANCH  29  31
ATOM     31  O   LIG    1        5.697   3.533  -3.238  0.00  0.00    -0.396 OA
ATOM     32  H   LIG    1        4.826   3.802  -3.455  0.00  0.00    +0.329 HD
ENDBRANCH  29  31
ENDBRANCH  23  29
ENDBRANCH   8  19
TORSDOF 4
