REMARK  Name = DB05932
REMARK                            x       y       z     vdW  Elec       q    Type
REMARK                         _______ _______ _______ _____ _____    ______ ____
ROOT
ATOM      1  S   LIG    1       -4.302  -0.417   0.125  0.00  0.00    -0.089 S 
ENDROOT
BRANCH   1   2
ATOM      2  C   LIG    1       -4.654  -0.261   1.846  0.00  0.00    +0.015 A 
ATOM      3  C   LIG    1       -4.724   1.008   2.431  0.00  0.00    +0.017 A 
ATOM      4  C   LIG    1       -4.997   1.137   3.795  0.00  0.00    +0.029 A 
ATOM      5  C   LIG    1       -5.199  -0.009   4.563  0.00  0.00    +0.065 A 
ATOM      6  N   LIG    1       -5.481  -0.197   5.913  0.00  0.00    -0.326 N 
ATOM      7  H   LIG    1       -5.588   0.549   6.585  0.00  0.00    +0.169 HD
ATOM      8  C   LIG    1       -5.600  -1.568   6.247  0.00  0.00    +0.201 A 
ATOM      9  N   LIG    1       -5.852  -2.040   7.411  0.00  0.00    -0.109 NA
ATOM     10  N   LIG    1       -5.372  -2.197   4.989  0.00  0.00    -0.326 N 
ATOM     11  H   LIG    1       -5.383  -3.198   4.855  0.00  0.00    +0.169 HD
ATOM     12  C   LIG    1       -5.131  -1.269   3.981  0.00  0.00    +0.066 A 
ATOM     13  C   LIG    1       -4.860  -1.407   2.620  0.00  0.00    +0.042 A 
BRANCH   9  14
ATOM     14  C   LIG    1       -5.925  -3.415   7.559  0.00  0.00    +0.427 C 
ATOM     15  O   LIG    1       -6.988  -4.034   7.648  0.00  0.00    -0.224 OA
BRANCH  14  16
ATOM     16  O   LIG    1       -4.686  -3.965   7.651  0.00  0.00    -0.452 OA
ATOM     17  C   LIG    1       -4.530  -5.365   7.831  0.00  0.00    +0.282 C 
ENDBRANCH  14  16
ENDBRANCH   9  14
ENDBRANCH   1   2
BRANCH   1  21
ATOM     18  C   LIG    1        0.245  -0.226   0.181  0.00  0.00    +0.033 A 
ATOM     19  C   LIG    1       -0.412  -1.450   0.387  0.00  0.00    +0.024 A 
ATOM     20  C   LIG    1       -1.804  -1.506   0.369  0.00  0.00    +0.017 A 
ATOM     21  C   LIG    1       -2.539  -0.344   0.142  0.00  0.00    +0.013 A 
ATOM     22  C   LIG    1       -1.897   0.873  -0.074  0.00  0.00    +0.017 A 
ATOM     23  C   LIG    1       -0.506   0.929  -0.058  0.00  0.00    +0.024 A 
BRANCH  18  24
ATOM     24  N   LIG    1        1.644  -0.060   0.170  0.00  0.00    -0.287 N 
ATOM     25  H   LIG    1        1.950   0.838  -0.174  0.00  0.00    +0.155 HD
ATOM     26  C   LIG    1        2.614  -0.907   0.581  0.00  0.00    +0.202 C 
ATOM     27  O   LIG    1        2.424  -2.027   1.069  0.00  0.00    -0.277 OA
BRANCH  26  28
ATOM     28  C   LIG    1        4.051  -0.364   0.362  0.00  0.00    +0.010 C 
ATOM     29  C   LIG    1        4.633  -0.810  -0.995  0.00  0.00    -0.005 C 
BRANCH  28  30
ATOM     30  N   LIG    1        4.912  -0.846   1.501  0.00  0.00    +0.385 N 
ATOM     31  H   LIG    1        4.807  -1.847   1.586  0.00  0.00    -0.089 HD
ATOM     32  H   LIG    1        5.877  -0.620   1.305  0.00  0.00    -0.089 HD
ATOM     33  H   LIG    1        4.618  -0.393   2.354  0.00  0.00    -0.089 HD
ENDBRANCH  28  30
ENDBRANCH  26  28
ENDBRANCH  18  24
ENDBRANCH   1  21
TORSDOF 7
