REMARK  Name = DB05838
REMARK                            x       y       z     vdW  Elec       q    Type
REMARK                         _______ _______ _______ _____ _____    ______ ____
ROOT
ATOM      1  C   LIG    1       -1.497   4.517   1.568  0.00  0.00    +0.252 C 
ATOM      2  N   LIG    1       -1.679   3.804   0.408  0.00  0.00    -0.267 N 
ATOM      3  C   LIG    1       -2.543   2.669   0.461  0.00  0.00    +0.040 A 
ATOM      4  C   LIG    1       -3.888   2.791   0.856  0.00  0.00    +0.024 A 
ATOM      5  C   LIG    1       -4.742   1.696   0.900  0.00  0.00    +0.002 A 
ATOM      6  C   LIG    1       -4.269   0.442   0.543  0.00  0.00    +0.000 A 
ATOM      7  C   LIG    1       -2.945   0.290   0.148  0.00  0.00    +0.006 A 
ATOM      8  C   LIG    1       -2.058   1.379   0.102  0.00  0.00    -0.022 A 
ATOM      9  C   LIG    1       -0.588   1.206  -0.333  0.00  0.00    +0.030 C 
ATOM     10  C   LIG    1       -0.297   1.832  -1.721  0.00  0.00    +0.010 C 
ATOM     11  C   LIG    1       -0.938   3.208  -1.973  0.00  0.00    +0.020 C 
ATOM     12  C   LIG    1       -0.843   4.157  -0.767  0.00  0.00    +0.114 C 
ATOM     13  O   LIG    1       -1.951   4.190   2.669  0.00  0.00    -0.270 OA
ENDROOT
BRANCH   1  20
ATOM     14 CL   LIG    1       -2.978   7.143   0.751  0.00  0.00    -0.083 Cl
ATOM     15  C   LIG    1       -1.294   7.018   1.148  0.00  0.00    +0.055 A 
ATOM     16  C   LIG    1       -0.518   8.178   1.096  0.00  0.00    +0.044 A 
ATOM     17  C   LIG    1        0.851   8.155   1.397  0.00  0.00    +0.031 A 
ATOM     18  C   LIG    1        1.427   6.930   1.761  0.00  0.00    +0.024 A 
ATOM     19  C   LIG    1        0.663   5.766   1.818  0.00  0.00    +0.016 A 
ATOM     20  C   LIG    1       -0.700   5.797   1.507  0.00  0.00    +0.056 A 
BRANCH  17  21
ATOM     21  N   LIG    1        1.623   9.326   1.333  0.00  0.00    -0.330 N 
ATOM     22  C   LIG    1        1.155  10.660   0.945  0.00  0.00    +0.105 C 
ATOM     23  C   LIG    1        2.383  11.544   0.744  0.00  0.00    +0.020 C 
ATOM     24  C   LIG    1        3.392  10.935   1.694  0.00  0.00    +0.020 C 
ATOM     25  C   LIG    1        3.051   9.447   1.636  0.00  0.00    +0.105 C 
ENDBRANCH  17  21
ENDBRANCH   1  20
BRANCH   9  26
ATOM     26  C   LIG    1       -0.051  -0.254  -0.229  0.00  0.00    +0.104 C 
BRANCH  26  27
ATOM     27  C   LIG    1        1.481  -0.373  -0.283  0.00  0.00    +0.214 C 
ATOM     28  N   LIG    1        1.985  -1.241  -1.180  0.00  0.00    -0.313 N 
ATOM     29  H   LIG    1        1.339  -1.777  -1.742  0.00  0.00    +0.149 HD
ATOM     30  O   LIG    1        2.179   0.298   0.478  0.00  0.00    -0.276 OA
BRANCH  28  31
ATOM     31  C   LIG    1        3.406  -1.521  -1.399  0.00  0.00    +0.067 C 
ATOM     32  C   LIG    1        3.581  -2.810  -2.218  0.00  0.00    +0.027 C 
ATOM     33  C   LIG    1        4.159  -0.336  -2.038  0.00  0.00    +0.027 C 
ENDBRANCH  28  31
ENDBRANCH  26  27
ENDBRANCH   9  26
TORSDOF 5
