REMARK  Name = DB05288
REMARK                            x       y       z     vdW  Elec       q    Type
REMARK                         _______ _______ _______ _____ _____    ______ ____
ROOT
ATOM      1  C   LIG    1        0.345  -2.182   1.549  0.00  0.00    +0.015 C 
ATOM      2  C   LIG    1       -0.498  -0.874   1.338  0.00  0.00    +0.011 C 
ATOM      3  C   LIG    1       -0.645  -0.143   2.703  0.00  0.00    +0.037 C 
ATOM      4  C   LIG    1       -1.581  -0.916   3.634  0.00  0.00    -0.026 C 
ATOM      5  C   LIG    1       -2.493  -1.855   3.257  0.00  0.00    -0.060 C 
ATOM      6  C   LIG    1       -3.334  -2.684   4.277  0.00  0.00    +0.011 C 
ATOM      7  C   LIG    1       -3.356  -2.043   5.710  0.00  0.00    +0.023 C 
ATOM      8  C   LIG    1       -4.470  -2.547   6.647  0.00  0.00    +0.080 C 
ATOM      9  C   LIG    1       -5.842  -2.395   5.987  0.00  0.00    +0.156 C 
ATOM     10  O   LIG    1       -6.860  -2.162   6.635  0.00  0.00    -0.293 OA
ATOM     11  C   LIG    1       -5.885  -2.674   4.560  0.00  0.00    +0.046 C 
ATOM     12  C   LIG    1       -4.799  -2.818   3.763  0.00  0.00    -0.056 C 
ATOM     13  C   LIG    1       -4.964  -3.204   2.298  0.00  0.00    +0.032 C 
ATOM     14  C   LIG    1       -4.191  -2.227   1.416  0.00  0.00    +0.012 C 
ATOM     15  C   LIG    1       -2.711  -4.101   4.374  0.00  0.00    +0.020 C 
ATOM     16  C   LIG    1       -2.689  -2.198   1.754  0.00  0.00    +0.020 C 
ATOM     17  C   LIG    1        0.020  -0.007   0.130  0.00  0.00    +0.133 C 
ATOM     18  C   LIG    1       -0.501  -0.794  -1.110  0.00  0.00    +0.043 C 
ATOM     19  C   LIG    1       -1.772  -1.536  -0.648  0.00  0.00    +0.008 C 
ATOM     20  C   LIG    1       -1.930  -1.192   0.843  0.00  0.00    +0.006 C 
ENDROOT
BRANCH  17  21
ATOM     21  O   LIG    1       -0.521   1.311   0.112  0.00  0.00    -0.380 OA
ATOM     22  H   LIG    1       -1.476   1.246   0.040  0.00  0.00    +0.211 HD
ENDBRANCH  17  21
BRANCH  17  23
ATOM     23  C   LIG    1        1.571   0.170   0.128  0.00  0.00    +0.202 C 
ATOM     24  O   LIG    1        2.302  -0.604  -0.495  0.00  0.00    -0.291 OA
BRANCH  23  25
ATOM     25  C   LIG    1        2.175   1.343   0.924  0.00  0.00    +0.309 C 
BRANCH  25  26
ATOM     26  O   LIG    1        3.593   1.228   1.015  0.00  0.00    -0.457 OA
BRANCH  26  27
ATOM     27  C   LIG    1        4.310   2.127   1.717  0.00  0.00    +0.304 C 
ATOM     28  O   LIG    1        3.865   3.099   2.331  0.00  0.00    -0.251 OA
ATOM     29  C   LIG    1        5.803   1.823   1.688  0.00  0.00    +0.136 C 
ENDBRANCH  26  27
ENDBRANCH  25  26
ENDBRANCH  23  25
ENDBRANCH  17  23
TORSDOF 5
