REMARK  Name = DB05721
REMARK                            x       y       z     vdW  Elec       q    Type
REMARK                         _______ _______ _______ _____ _____    ______ ____
ROOT
ATOM      1  C   LIG    1       -7.603  -5.082  -0.050  0.00  0.00    +0.003 A 
ATOM      2  C   LIG    1       -7.297  -5.853  -1.166  0.00  0.00    +0.021 A 
ATOM      3  C   LIG    1       -6.278  -5.471  -2.039  0.00  0.00    +0.055 A 
ATOM      4 CL   LIG    1       -5.971  -6.526  -3.384  0.00  0.00    -0.083 Cl
ATOM      5  C   LIG    1       -5.549  -4.281  -1.800  0.00  0.00    +0.079 A 
ATOM      6  C   LIG    1       -4.507  -3.859  -2.833  0.00  0.00    +0.250 C 
ATOM      7  O   LIG    1       -4.863  -3.738  -4.008  0.00  0.00    -0.270 OA
ATOM      8  N   LIG    1       -3.251  -3.572  -2.376  0.00  0.00    -0.295 N 
ATOM      9  C   LIG    1       -2.215  -3.191  -3.341  0.00  0.00    +0.132 C 
ATOM     10  C   LIG    1       -2.913  -3.429  -0.955  0.00  0.00    +0.163 C 
ATOM     11  C   LIG    1       -3.702  -2.284  -0.346  0.00  0.00    +0.071 A 
ATOM     12  C   LIG    1       -3.391  -1.029   0.194  0.00  0.00    +0.134 A 
ATOM     13  N   LIG    1       -4.493  -0.410   0.599  0.00  0.00    -0.232 NA
ATOM     14  C   LIG    1       -5.477  -1.230   0.335  0.00  0.00    +0.205 A 
ATOM     15  N   LIG    1       -5.069  -2.401  -0.252  0.00  0.00    -0.300 N 
ATOM     16  C   LIG    1       -5.839  -3.526  -0.632  0.00  0.00    +0.061 A 
ATOM     17  C   LIG    1       -6.874  -3.930   0.220  0.00  0.00    +0.027 A 
ENDROOT
BRANCH  12  18
ATOM     18  C   LIG    1       -2.065  -0.396   0.315  0.00  0.00    +0.222 A 
ATOM     19  N   LIG    1       -0.968  -0.988  -0.119  0.00  0.00    -0.192 NA
ATOM     20  C   LIG    1       -0.048  -0.106   0.154  0.00  0.00    +0.211 A 
ATOM     21  O   LIG    1       -0.524   1.015   0.746  0.00  0.00    -0.340 OA
ATOM     22  N   LIG    1       -1.896   0.799   0.850  0.00  0.00    -0.055 NA
BRANCH  20  23
ATOM     23  C   LIG    1        1.437  -0.199  -0.127  0.00  0.00    +0.021 C 
BRANCH  23  24
ATOM     24  N   LIG    1        1.792   0.571  -1.421  0.00  0.00    +0.382 N 
ATOM     25  H   LIG    1        1.463   1.519  -1.299  0.00  0.00    -0.082 HD
ATOM     26  C   LIG    1        1.108   0.007  -2.685  0.00  0.00    -0.096 C 
ATOM     27  C   LIG    1        3.319   0.652  -1.616  0.00  0.00    -0.096 C 
ENDBRANCH  23  24
ENDBRANCH  20  23
ENDBRANCH  12  18
TORSDOF 3
