REMARK  Name = DB05680
REMARK                            x       y       z     vdW  Elec       q    Type
REMARK                         _______ _______ _______ _____ _____    ______ ____
ROOT
ATOM      1  C   LIG    1       -0.279   2.437  -0.023  0.00  0.00    +0.086 C 
ATOM      2  C   LIG    1       -0.773   1.004   0.000  0.00  0.00    +0.108 A 
ATOM      3  N   LIG    1        0.069  -0.099   0.021  0.00  0.00    -0.326 N 
ATOM      4  C   LIG    1       -0.783  -1.195   0.051  0.00  0.00    +0.100 A 
ATOM      5  C   LIG    1       -0.579  -2.603   0.087  0.00  0.00    +0.115 A 
ATOM      6  N   LIG    1        0.681  -3.123   0.111  0.00  0.00    -0.251 NA
ATOM      7  C   LIG    1        0.813  -4.472   0.145  0.00  0.00    +0.111 A 
ATOM      8  C   LIG    1       -0.266  -5.352   0.161  0.00  0.00    +0.022 A 
ATOM      9  C   LIG    1       -1.559  -4.833   0.140  0.00  0.00    +0.031 A 
ATOM     10  C   LIG    1       -1.742  -3.429   0.102  0.00  0.00    +0.093 A 
ATOM     11  N   LIG    1       -3.002  -2.911   0.081  0.00  0.00    -0.229 NA
ATOM     12  C   LIG    1       -3.175  -1.564   0.050  0.00  0.00    +0.145 A 
ATOM     13  C   LIG    1       -2.090  -0.669   0.035  0.00  0.00    +0.131 A 
ATOM     14  N   LIG    1       -2.050   0.699   0.007  0.00  0.00    -0.229 NA
ENDROOT
BRANCH  12  15
ATOM     15  N   LIG    1       -4.488  -1.099   0.029  0.00  0.00    -0.341 N 
ATOM     16  H   LIG    1       -5.248  -1.764   0.031  0.00  0.00    +0.144 HD
ATOM     17  H   LIG    1       -4.660  -0.104  -0.002  0.00  0.00    +0.144 HD
ENDBRANCH  12  15
BRANCH   3  18
ATOM     18  C   LIG    1        1.535  -0.066  -0.015  0.00  0.00    +0.126 C 
BRANCH  18  19
ATOM     19  C   LIG    1        2.091   0.073  -1.457  0.00  0.00    +0.003 C 
ATOM     20  C   LIG    1        3.626   0.189  -1.437  0.00  0.00    +0.009 C 
ATOM     21  C   LIG    1        1.645  -1.049  -2.415  0.00  0.00    +0.009 C 
ENDBRANCH  18  19
ENDBRANCH   3  18
TORSDOF 3
