REMARK  Name = DB05868
REMARK                            x       y       z     vdW  Elec       q    Type
REMARK                         _______ _______ _______ _____ _____    ______ ____
ROOT
ATOM      1  C   LIG    1       -0.785   1.107  -0.463  0.00  0.00    +0.139 C 
ATOM      2  C   LIG    1       -0.902   2.017   0.769  0.00  0.00    +0.140 C 
ATOM      3  N   LIG    1       -0.514   3.344   0.292  0.00  0.00    -0.286 N 
ATOM      4  C   LIG    1        0.164   4.284   1.008  0.00  0.00    +0.237 C 
ATOM      5  C   LIG    1        0.360   4.128   2.542  0.00  0.00    +0.162 C 
ATOM      6  C   LIG    1       -0.456   5.167   3.358  0.00  0.00    +0.032 C 
ATOM      7  C   LIG    1       -1.958   4.836   3.487  0.00  0.00    +0.002 C 
ATOM      8  C   LIG    1       -2.756   5.874   4.312  0.00  0.00    +0.000 C 
ATOM      9  C   LIG    1       -3.142   7.164   3.555  0.00  0.00    +0.004 C 
ATOM     10  C   LIG    1       -4.268   6.942   2.531  0.00  0.00    +0.027 C 
ATOM     11  C   LIG    1       -4.606   8.161   1.687  0.00  0.00    -0.031 C 
ATOM     12  C   LIG    1       -4.198   8.386   0.422  0.00  0.00    -0.025 C 
ATOM     13  C   LIG    1       -3.271   7.482  -0.376  0.00  0.00    +0.048 C 
ATOM     14  C   LIG    1       -3.533   7.191  -1.823  0.00  0.00    +0.048 C 
ATOM     15  C   LIG    1       -3.639   6.052  -0.802  0.00  0.00    +0.138 C 
ATOM     16  N   LIG    1       -2.512   5.124  -0.637  0.00  0.00    -0.298 N 
ATOM     17  H   LIG    1       -2.094   5.116   0.281  0.00  0.00    +0.150 HD
ATOM     18  C   LIG    1       -2.029   4.260  -1.548  0.00  0.00    +0.234 C 
ATOM     19  O   LIG    1       -2.501   4.160  -2.681  0.00  0.00    -0.274 OA
ATOM     20  O   LIG    1        0.575   5.329   0.496  0.00  0.00    -0.274 OA
ATOM     21  C   LIG    1       -0.753   3.458  -1.171  0.00  0.00    +0.164 C 
ATOM     22  C   LIG    1       -0.739   2.005  -1.702  0.00  0.00    +0.065 C 
ENDROOT
BRANCH   5  23
ATOM     23  N   LIG    1        1.788   4.248   2.876  0.00  0.00    -0.270 N 
ATOM     24  H   LIG    1        2.191   5.171   2.951  0.00  0.00    +0.153 HD
ATOM     25  C   LIG    1        2.604   3.134   3.020  0.00  0.00    +0.401 C 
ATOM     26  O   LIG    1        2.259   1.953   2.928  0.00  0.00    -0.226 OA
BRANCH  25  27
ATOM     27  O   LIG    1        3.862   3.553   3.278  0.00  0.00    -0.447 OA
BRANCH  27  28
ATOM     28  C   LIG    1        4.934   2.637   3.509  0.00  0.00    +0.178 C 
ATOM     29  C   LIG    1        6.263   3.420   3.496  0.00  0.00    +0.045 C 
ATOM     30  C   LIG    1        6.760   3.445   4.943  0.00  0.00    +0.004 C 
ATOM     31  C   LIG    1        6.230   2.144   5.537  0.00  0.00    +0.004 C 
ATOM     32  C   LIG    1        4.841   1.995   4.913  0.00  0.00    +0.045 C 
ENDBRANCH  27  28
ENDBRANCH  25  27
ENDBRANCH   5  23
BRANCH  15  33
ATOM     33  C   LIG    1       -5.062   5.422  -0.558  0.00  0.00    +0.329 C 
ATOM     34  O   LIG    1       -5.141   4.244  -0.133  0.00  0.00    -0.249 OA
BRANCH  33  35
ATOM     35  O   LIG    1       -6.080   6.118  -0.785  0.00  0.00    -0.479 OA
ATOM     36  H   LIG    1       -6.844   6.019  -0.252  0.00  0.00    +0.295 HD
ENDBRANCH  33  35
ENDBRANCH  15  33
BRANCH   1  37
ATOM     37  O   LIG    1        0.250   0.113  -0.387  0.00  0.00    -0.365 OA
BRANCH  37  40
ATOM     38  C   LIG    1        3.570   1.803  -0.087  0.00  0.00    +0.093 C 
ATOM     39  C   LIG    1        2.215   1.614  -0.363  0.00  0.00    +0.061 C 
ATOM     40  C   LIG    1        1.587   0.380  -0.137  0.00  0.00    +0.113 C 
ATOM     41  C   LIG    1        2.381  -0.696   0.363  0.00  0.00    +0.037 C 
ATOM     42  C   LIG    1        1.859  -1.990   0.626  0.00  0.00    +0.011 C 
ATOM     43  C   LIG    1        2.679  -3.003   1.122  0.00  0.00    +0.034 C 
ATOM     44  C   LIG    1        4.041  -2.781   1.378  0.00  0.00    +0.107 C 
ATOM     45  C   LIG    1        4.584  -1.522   1.129  0.00  0.00    +0.054 C 
ATOM     46  C   LIG    1        3.766  -0.488   0.628  0.00  0.00    +0.055 C 
ATOM     47  N   LIG    1        4.280   0.760   0.383  0.00  0.00    -0.295 NA
ATOM     48  H   LIG    1        5.258   0.920   0.579  0.00  0.00    +0.123 HD
BRANCH  38  52
ATOM     49  S   LIG    1        4.836   5.610  -0.616  0.00  0.00    -0.061 S 
ATOM     50  C   LIG    1        6.006   4.468  -0.031  0.00  0.00    +0.159 A 
ATOM     51  N   LIG    1        5.553   3.247   0.094  0.00  0.00    -0.228 NA
ATOM     52  C   LIG    1        4.274   3.120  -0.233  0.00  0.00    +0.073 A 
ATOM     53  C   LIG    1        3.687   4.310  -0.676  0.00  0.00    +0.073 A 
BRANCH  50  54
ATOM     54  N   LIG    1        7.299   4.819   0.274  0.00  0.00    -0.321 N 
ATOM     55  H   LIG    1        7.917   4.115   0.651  0.00  0.00    +0.148 HD
BRANCH  54  56
ATOM     56  C   LIG    1        7.863   6.158   0.392  0.00  0.00    +0.066 C 
ATOM     57  C   LIG    1        7.456   6.836   1.713  0.00  0.00    +0.027 C 
ATOM     58  C   LIG    1        9.392   6.121   0.240  0.00  0.00    +0.027 C 
ENDBRANCH  54  56
ENDBRANCH  50  54
ENDBRANCH  38  52
BRANCH  44  59
ATOM     59  O   LIG    1        4.909  -3.737   1.869  0.00  0.00    -0.373 OA
ATOM     60  C   LIG    1        4.418  -5.043   2.151  0.00  0.00    +0.194 C 
ENDBRANCH  44  59
ENDBRANCH  37  40
ENDBRANCH   1  37
TORSDOF 11
