REMARK  Name = DB05772
REMARK                            x       y       z     vdW  Elec       q    Type
REMARK                         _______ _______ _______ _____ _____    ______ ____
ROOT
ATOM      1  C   LIG    1       -4.362   2.971  -2.776  0.00  0.00    +0.029 A 
ATOM      2  C   LIG    1       -4.793   3.419  -4.035  0.00  0.00    +0.032 A 
ATOM      3  C   LIG    1       -4.091   3.009  -5.167  0.00  0.00    +0.042 A 
ATOM      4 CL   LIG    1       -4.601   3.550  -6.725  0.00  0.00    -0.084 Cl
ATOM      5  C   LIG    1       -2.983   2.171  -5.059  0.00  0.00    +0.022 A 
ATOM      6  C   LIG    1       -2.528   1.703  -3.826  0.00  0.00    +0.028 A 
ATOM      7  C   LIG    1       -3.230   2.109  -2.682  0.00  0.00    +0.053 A 
ATOM      8  N   LIG    1       -3.027   1.814  -1.334  0.00  0.00    -0.315 N 
ATOM      9  C   LIG    1       -3.983   2.486  -0.588  0.00  0.00    +0.161 A 
ATOM     10  N   LIG    1       -4.146   2.502   0.739  0.00  0.00    -0.226 NA
ATOM     11  C   LIG    1       -5.177   3.238   1.242  0.00  0.00    +0.092 A 
ATOM     12  C   LIG    1       -5.399   3.296   2.636  0.00  0.00    +0.033 A 
ATOM     13  C   LIG    1       -6.458   4.048   3.152  0.00  0.00    -0.045 A 
ATOM     14  C   LIG    1       -6.661   4.084   4.661  0.00  0.00    +0.044 C 
ATOM     15  C   LIG    1       -7.313   4.753   2.288  0.00  0.00    -0.045 A 
ATOM     16  C   LIG    1       -8.476   5.575   2.828  0.00  0.00    +0.044 C 
ATOM     17  C   LIG    1       -7.107   4.710   0.906  0.00  0.00    +0.033 A 
ATOM     18  C   LIG    1       -6.041   3.957   0.365  0.00  0.00    +0.090 A 
ATOM     19  N   LIG    1       -5.838   3.917  -0.984  0.00  0.00    -0.241 NA
ATOM     20  C   LIG    1       -4.824   3.196  -1.472  0.00  0.00    +0.116 A 
ENDROOT
BRANCH   8  21
ATOM     21  C   LIG    1       -1.956   0.975  -0.792  0.00  0.00    +0.219 C 
BRANCH  21  22
ATOM     22  C   LIG    1       -0.626   1.705  -0.546  0.00  0.00    +0.233 C 
ATOM     23  O   LIG    1       -0.399   2.804  -1.056  0.00  0.00    -0.274 OA
ATOM     24  N   LIG    1        0.267   1.049   0.217  0.00  0.00    -0.316 N 
ATOM     25  H   LIG    1        0.002   0.156   0.606  0.00  0.00    +0.149 HD
BRANCH  24  26
ATOM     26  C   LIG    1        1.602   1.540   0.565  0.00  0.00    +0.085 C 
BRANCH  26  27
ATOM     27  C   LIG    1        2.620   1.468  -0.598  0.00  0.00    -0.061 C 
BRANCH  27  28
ATOM     28  N   LIG    1        3.087   0.017  -0.871  0.00  0.00    +0.377 N 
ATOM     29  H   LIG    1        2.258  -0.560  -0.904  0.00  0.00    -0.083 HD
ATOM     30  C   LIG    1        3.763  -0.101  -2.252  0.00  0.00    -0.097 C 
ATOM     31  C   LIG    1        4.010  -0.551   0.228  0.00  0.00    -0.097 C 
ENDBRANCH  27  28
ENDBRANCH  26  27
ENDBRANCH  24  26
ENDBRANCH  21  22
ENDBRANCH   8  21
TORSDOF 5
