REMARK  Name = DB05428
REMARK                            x       y       z     vdW  Elec       q    Type
REMARK                         _______ _______ _______ _____ _____    ______ ____
ROOT
ATOM      1  C   LIG    1        5.826   6.763  -0.116  0.00  0.00    -0.019 A 
ATOM      2  C   LIG    1        4.569   6.111  -0.114  0.00  0.00    -0.021 A 
ATOM      3  C   LIG    1        3.202   6.768  -0.148  0.00  0.00    +0.046 C 
ATOM      4  C   LIG    1        4.797   4.760  -0.077  0.00  0.00    +0.061 A 
ATOM      5  C   LIG    1        3.871   3.704  -0.058  0.00  0.00    +0.137 C 
ATOM      6  N   LIG    1        4.275   2.420  -0.020  0.00  0.00    -0.251 NA
ATOM      7  C   LIG    1        3.514   1.289   0.007  0.00  0.00    +0.093 A 
ATOM      8  C   LIG    1        2.096   1.285  -0.007  0.00  0.00    +0.079 A 
ATOM      9  C   LIG    1        1.390   0.071   0.026  0.00  0.00    +0.164 A 
ATOM     10  C   LIG    1        2.082  -1.148   0.072  0.00  0.00    +0.164 A 
ATOM     11  C   LIG    1        3.486  -1.164   0.090  0.00  0.00    +0.079 A 
ATOM     12  C   LIG    1        4.217   0.050   0.056  0.00  0.00    +0.093 A 
ATOM     13  N   LIG    1        5.578   0.122   0.067  0.00  0.00    -0.251 NA
ATOM     14  C   LIG    1        6.472  -0.883   0.112  0.00  0.00    +0.137 C 
ATOM     15  C   LIG    1        7.854  -0.630   0.123  0.00  0.00    +0.061 A 
ATOM     16  C   LIG    1        8.901  -1.514   0.170  0.00  0.00    -0.021 A 
ATOM     17  C   LIG    1        8.776  -3.026   0.210  0.00  0.00    +0.046 C 
ATOM     18  C   LIG    1       10.100  -0.761   0.178  0.00  0.00    -0.019 A 
ATOM     19  C   LIG    1        9.770   0.578   0.113  0.00  0.00    +0.045 A 
ATOM     20  C   LIG    1       10.666   1.667   0.082  0.00  0.00    +0.051 C 
ATOM     21  C   LIG    1       10.350   3.045   0.019  0.00  0.00    +0.045 A 
ATOM     22  C   LIG    1       11.278   4.063  -0.018  0.00  0.00    -0.019 A 
ATOM     23  C   LIG    1       10.581   5.293  -0.075  0.00  0.00    -0.019 A 
ATOM     24  C   LIG    1        9.229   5.022  -0.062  0.00  0.00    +0.045 A 
ATOM     25  C   LIG    1        8.209   6.003  -0.091  0.00  0.00    +0.051 C 
ATOM     26  N   LIG    1        9.106   3.647  -0.013  0.00  0.00    -0.355 N 
ATOM     27  H   LIG    1        8.228   3.150   0.007  0.00  0.00    +0.166 HD
ATOM     28  N   LIG    1        8.398   0.636   0.085  0.00  0.00    -0.353 N 
ATOM     29  H   LIG    1        7.856   1.487   0.041  0.00  0.00    +0.166 HD
ATOM     30  N   LIG    1        6.164   4.584  -0.062  0.00  0.00    -0.353 N 
ATOM     31  H   LIG    1        6.620   3.684  -0.037  0.00  0.00    +0.166 HD
ATOM     32  C   LIG    1        6.813   5.795  -0.088  0.00  0.00    +0.045 A 
ENDROOT
BRANCH  22  33
ATOM     33  C   LIG    1       12.793   3.890   0.003  0.00  0.00    +0.034 C 
ATOM     34  C   LIG    1       13.335   3.675   1.424  0.00  0.00    +0.009 C 
ENDBRANCH  22  33
BRANCH  23  35
ATOM     35  C   LIG    1       11.214   6.679  -0.134  0.00  0.00    +0.034 C 
ATOM     36  C   LIG    1       11.314   7.336   1.250  0.00  0.00    +0.009 C 
ENDBRANCH  23  35
BRANCH   1  37
ATOM     37  C   LIG    1        6.042   8.272  -0.141  0.00  0.00    +0.040 C 
BRANCH  37  38
ATOM     38  C   LIG    1        5.976   8.874  -1.560  0.00  0.00    +0.032 C 
BRANCH  38  39
ATOM     39  C   LIG    1        7.091   8.395  -2.508  0.00  0.00    +0.156 C 
BRANCH  39  40
ATOM     40  O   LIG    1        6.982   9.025  -3.767  0.00  0.00    -0.395 OA
ATOM     41  H   LIG    1        7.695   8.715  -4.330  0.00  0.00    +0.209 HD
ENDBRANCH  39  40
ENDBRANCH  38  39
ENDBRANCH  37  38
ENDBRANCH   1  37
BRANCH  10  42
ATOM     42  O   LIG    1        1.310  -2.297   0.096  0.00  0.00    -0.486 OA
BRANCH  42  43
ATOM     43  C   LIG    1        1.939  -3.576   0.063  0.00  0.00    +0.257 C 
BRANCH  43  44
ATOM     44  C   LIG    1        0.860  -4.661  -0.033  0.00  0.00    +0.201 C 
BRANCH  44  45
ATOM     45  O   LIG    1        1.492  -5.933  -0.053  0.00  0.00    -0.374 OA
BRANCH  45  46
ATOM     46  C   LIG    1        0.587  -7.022  -0.184  0.00  0.00    +0.188 C 
BRANCH  46  47
ATOM     47  C   LIG    1        1.369  -8.341  -0.184  0.00  0.00    +0.188 C 
BRANCH  47  48
ATOM     48  O   LIG    1        2.291  -8.348  -1.267  0.00  0.00    -0.375 OA
BRANCH  48  49
ATOM     49  C   LIG    1        3.076  -9.530  -1.344  0.00  0.00    +0.188 C 
BRANCH  49  50
ATOM     50  C   LIG    1        4.035  -9.416  -2.542  0.00  0.00    +0.187 C 
BRANCH  50  51
ATOM     51  O   LIG    1        4.729 -10.630  -2.819  0.00  0.00    -0.381 OA
ATOM     52  C   LIG    1        5.719 -10.992  -1.865  0.00  0.00    +0.194 C 
ENDBRANCH  50  51
ENDBRANCH  49  50
ENDBRANCH  48  49
ENDBRANCH  47  48
ENDBRANCH  46  47
ENDBRANCH  45  46
ENDBRANCH  44  45
ENDBRANCH  43  44
ENDBRANCH  42  43
ENDBRANCH  10  42
BRANCH   9  53
ATOM     53  O   LIG    1        0.007  -0.002   0.021  0.00  0.00    -0.486 OA
BRANCH  53  54
ATOM     54  C   LIG    1       -0.768   1.183  -0.151  0.00  0.00    +0.257 C 
BRANCH  54  55
ATOM     55  C   LIG    1       -2.259   0.820  -0.158  0.00  0.00    +0.201 C 
BRANCH  55  56
ATOM     56  O   LIG    1       -2.615   0.257   1.098  0.00  0.00    -0.374 OA
BRANCH  56  57
ATOM     57  C   LIG    1       -3.987  -0.100   1.194  0.00  0.00    +0.188 C 
BRANCH  57  58
ATOM     58  C   LIG    1       -4.271  -0.631   2.604  0.00  0.00    +0.188 C 
BRANCH  58  59
ATOM     59  O   LIG    1       -5.647  -0.972   2.700  0.00  0.00    -0.375 OA
BRANCH  59  60
ATOM     60  C   LIG    1       -6.034  -1.436   3.986  0.00  0.00    +0.188 C 
BRANCH  60  61
ATOM     61  C   LIG    1       -7.534  -1.780   3.963  0.00  0.00    +0.187 C 
BRANCH  61  62
ATOM     62  O   LIG    1       -8.066  -2.038   5.260  0.00  0.00    -0.381 OA
ATOM     63  C   LIG    1       -7.626  -3.246   5.866  0.00  0.00    +0.194 C 
ENDBRANCH  61  62
ENDBRANCH  60  61
ENDBRANCH  59  60
ENDBRANCH  58  59
ENDBRANCH  57  58
ENDBRANCH  56  57
ENDBRANCH  55  56
ENDBRANCH  54  55
ENDBRANCH  53  54
ENDBRANCH   9  53
BRANCH  18  64
ATOM     64  C   LIG    1       11.512  -1.324   0.247  0.00  0.00    +0.040 C 
BRANCH  64  65
ATOM     65  C   LIG    1       12.176  -1.410  -1.143  0.00  0.00    +0.032 C 
BRANCH  65  66
ATOM     66  C   LIG    1       13.623  -1.934  -1.122  0.00  0.00    +0.156 C 
BRANCH  66  67
ATOM     67  O   LIG    1       14.463  -1.076  -0.376  0.00  0.00    -0.395 OA
ATOM     68  H   LIG    1       15.350  -1.444  -0.373  0.00  0.00    +0.209 HD
ENDBRANCH  66  67
ENDBRANCH  65  66
ENDBRANCH  64  65
ENDBRANCH  18  64
TORSDOF 30
