REMARK  Name = DB05414
REMARK                            x       y       z     vdW  Elec       q    Type
REMARK                         _______ _______ _______ _____ _____    ______ ____
ROOT
ATOM      1  N   LIG    1       -0.230  -0.284  -0.630  0.00  0.00    -0.335 N 
ATOM      2  C   LIG    1       -1.286  -1.159  -0.827  0.00  0.00    +0.050 A 
ATOM      3  C   LIG    1       -1.327  -2.438  -1.401  0.00  0.00    +0.030 A 
ATOM      4  C   LIG    1       -2.566  -3.075  -1.456  0.00  0.00    +0.047 A 
ATOM      5  C   LIG    1       -3.722  -2.477  -0.965  0.00  0.00    +0.118 A 
ATOM      6  C   LIG    1       -3.682  -1.207  -0.392  0.00  0.00    +0.055 A 
ATOM      7  C   LIG    1       -2.455  -0.528  -0.313  0.00  0.00    +0.007 A 
ATOM      8  C   LIG    1       -2.066   0.751   0.206  0.00  0.00    -0.017 A 
ATOM      9  C   LIG    1       -2.999   1.755   0.849  0.00  0.00    +0.046 C 
ATOM     10  C   LIG    1       -0.696   0.862  -0.002  0.00  0.00    +0.053 A 
ENDROOT
BRANCH  10  11
ATOM     11  C   LIG    1        0.185   2.003   0.381  0.00  0.00    -0.001 A 
ATOM     12  C   LIG    1        0.375   2.303   1.732  0.00  0.00    +0.013 A 
ATOM     13  C   LIG    1        1.194   3.367   2.099  0.00  0.00    +0.046 A 
ATOM     14  C   LIG    1        1.815   4.133   1.114  0.00  0.00    +0.117 A 
ATOM     15  C   LIG    1        1.620   3.845  -0.236  0.00  0.00    +0.046 A 
ATOM     16  C   LIG    1        0.802   2.780  -0.603  0.00  0.00    +0.013 A 
BRANCH  14  17
ATOM     17  O   LIG    1        2.623   5.179   1.474  0.00  0.00    -0.507 OA
ATOM     18  H   LIG    1        2.692   5.290   2.425  0.00  0.00    +0.292 HD
ENDBRANCH  14  17
ENDBRANCH  10  11
BRANCH   5  19
ATOM     19  O   LIG    1       -4.915  -3.145  -1.043  0.00  0.00    -0.507 OA
ATOM     20  H   LIG    1       -5.648  -2.646  -0.677  0.00  0.00    +0.292 HD
ENDBRANCH   5  19
BRANCH   1  21
ATOM     21  C   LIG    1        1.167  -0.587  -0.966  0.00  0.00    +0.157 C 
BRANCH  21  25
ATOM     22  C   LIG    1        2.950  -3.613   1.557  0.00  0.00    +0.120 A 
ATOM     23  C   LIG    1        2.399  -2.461   2.118  0.00  0.00    +0.046 A 
ATOM     24  C   LIG    1        1.827  -1.484   1.309  0.00  0.00    +0.009 A 
ATOM     25  C   LIG    1        1.793  -1.656  -0.076  0.00  0.00    -0.028 A 
ATOM     26  C   LIG    1        2.345  -2.805  -0.647  0.00  0.00    +0.009 A 
ATOM     27  C   LIG    1        2.920  -3.779   0.164  0.00  0.00    +0.046 A 
BRANCH  22  28
ATOM     28  O   LIG    1        3.495  -4.527   2.439  0.00  0.00    -0.494 OA
BRANCH  28  29
ATOM     29  C   LIG    1        4.130  -5.699   1.931  0.00  0.00    +0.210 C 
BRANCH  29  30
ATOM     30  C   LIG    1        4.686  -6.551   3.090  0.00  0.00    -0.037 C 
BRANCH  30  31
ATOM     31  N   LIG    1        5.478  -5.703   4.118  0.00  0.00    +0.382 N 
ATOM     32  H   LIG    1        4.879  -4.954   4.438  0.00  0.00    -0.082 HD
ATOM     33  C   LIG    1        5.829  -6.577   5.346  0.00  0.00    -0.079 C 
ATOM     34  C   LIG    1        6.547  -5.711   6.397  0.00  0.00    -0.019 C 
ATOM     35  C   LIG    1        7.795  -5.023   5.819  0.00  0.00    -0.004 C 
ATOM     36  C   LIG    1        7.460  -4.215   4.554  0.00  0.00    -0.019 C 
ATOM     37  C   LIG    1        6.745  -5.069   3.492  0.00  0.00    -0.079 C 
ENDBRANCH  30  31
ENDBRANCH  29  30
ENDBRANCH  28  29
ENDBRANCH  22  28
ENDBRANCH  21  25
ENDBRANCH   1  21
TORSDOF 9
