REMARK  Name = DB05478
REMARK                            x       y       z     vdW  Elec       q    Type
REMARK                         _______ _______ _______ _____ _____    ______ ____
ROOT
ATOM      1  C   LIG    1       -0.414   0.796  -0.883  0.00  0.00    +0.286 C 
ENDROOT
BRANCH   1   6
ATOM      2  C   LIG    1       -3.566   2.351   1.276  0.00  0.00    +0.160 C 
ATOM      3  C   LIG    1       -3.298   1.590   2.606  0.00  0.00    +0.065 C 
ATOM      4  C   LIG    1       -1.809   1.242   2.825  0.00  0.00    +0.173 C 
ATOM      5  O   LIG    1       -1.211   0.531   1.747  0.00  0.00    -0.306 OA
ATOM      6  P   LIG    1       -1.849   0.624   0.247  0.00  0.00    +0.359 P 
ATOM      7  O   LIG    1       -2.790  -0.492  -0.048  0.00  0.00    -0.256 OA
ATOM      8  O   LIG    1       -2.579   2.082   0.279  0.00  0.00    -0.298 OA
BRANCH   2  14
ATOM      9 CL   LIG    1       -1.348   7.114   1.249  0.00  0.00    -0.084 Cl
ATOM     10  C   LIG    1       -2.707   6.080   1.501  0.00  0.00    +0.041 A 
ATOM     11  C   LIG    1       -3.926   6.618   1.915  0.00  0.00    +0.020 A 
ATOM     12  C   LIG    1       -5.022   5.781   2.123  0.00  0.00    +0.002 A 
ATOM     13  C   LIG    1       -4.901   4.407   1.915  0.00  0.00    +0.006 A 
ATOM     14  C   LIG    1       -3.683   3.858   1.494  0.00  0.00    -0.017 A 
ATOM     15  C   LIG    1       -2.586   4.705   1.291  0.00  0.00    +0.026 A 
ENDBRANCH   2  14
ENDBRANCH   1   6
BRANCH   1  16
ATOM     16  O   LIG    1        0.380  -0.351  -0.638  0.00  0.00    -0.366 OA
BRANCH  16  17
ATOM     17  C   LIG    1        1.714  -0.285  -1.118  0.00  0.00    +0.182 C 
BRANCH  17  18
ATOM     18  C   LIG    1        2.543  -1.377  -0.416  0.00  0.00    +0.153 C 
BRANCH  18  19
ATOM     19  N   LIG    1        2.545  -1.181   1.045  0.00  0.00    -0.313 N 
ATOM     20  C   LIG    1        3.475  -0.521   1.761  0.00  0.00    +0.201 A 
ATOM     21  N   LIG    1        3.184  -0.445   3.037  0.00  0.00    -0.231 NA
ATOM     22  C   LIG    1        2.006  -1.082   3.153  0.00  0.00    +0.147 A 
ATOM     23  C   LIG    1        1.171  -1.315   4.271  0.00  0.00    +0.147 A 
ATOM     24  N   LIG    1        0.009  -1.998   4.078  0.00  0.00    -0.219 NA
ATOM     25  C   LIG    1       -0.274  -2.417   2.836  0.00  0.00    +0.225 A 
ATOM     26  N   LIG    1        0.432  -2.260   1.705  0.00  0.00    -0.216 NA
ATOM     27  C   LIG    1        1.577  -1.569   1.930  0.00  0.00    +0.165 A 
BRANCH  23  28
ATOM     28  N   LIG    1        1.480  -0.872   5.556  0.00  0.00    -0.341 N 
ATOM     29  H   LIG    1        0.844  -1.072   6.314  0.00  0.00    +0.144 HD
ATOM     30  H   LIG    1        2.340  -0.368   5.711  0.00  0.00    +0.144 HD
ENDBRANCH  23  28
ENDBRANCH  18  19
ENDBRANCH  17  18
ENDBRANCH  16  17
ENDBRANCH   1  16
TORSDOF 7
