REMARK  Name = DB05128
REMARK                            x       y       z     vdW  Elec       q    Type
REMARK                         _______ _______ _______ _____ _____    ______ ____
ROOT
ATOM      1  C   UNK A  5        1.001  -2.590   7.139  0.00  0.00    +0.148 C 
ATOM      2  C   UNK A  5        1.196  -1.662   5.925  0.00  0.00    +0.190 C 
ATOM      3  C   UNK A  5        0.987  -2.375   4.565  0.00  0.00    +0.236 C 
ATOM      4  O   UNK A  5        1.970  -2.772   3.939  0.00  0.00    -0.274 OA
ATOM      5  N   UNK A  5       -0.276  -2.526   4.118  0.00  0.00    -0.312 N 
ATOM      6  H   UNK A  5       -1.031  -2.172   4.688  0.00  0.00    +0.149 HD
ATOM      7  C   UNK A  5       -0.657  -3.119   2.835  0.00  0.00    +0.123 C 
ATOM      8  C   UNK A  5       -0.218  -2.287   1.597  0.00  0.00    +0.073 C 
ATOM      9  C   UNK A  5       -0.745  -0.826   1.637  0.00  0.00    +0.052 C 
ATOM     10  C   UNK A  1       -0.210   0.132   0.529  0.00  0.00    +0.161 C 
ATOM     11  C   UNK A  1       -0.708   1.589   0.730  0.00  0.00    +0.234 C 
ATOM     12  N   THR A  2        0.088   2.586   0.287  0.00  0.00    -0.300 N 
ATOM     13  H   THR A  2        0.922   2.316  -0.215  0.00  0.00    +0.150 HD
ATOM     14  CA  THR A  2        0.059   4.012   0.660  0.00  0.00    +0.187 C 
ATOM     15  C   THR A  2        0.807   4.275   2.005  0.00  0.00    +0.239 C 
ATOM     16  O   THR A  2        0.971   3.327   2.777  0.00  0.00    -0.273 OA
ATOM     17  N   HYP A  3        1.250   5.524   2.312  0.00  0.00    -0.286 N 
ATOM     18  CA  HYP A  3        2.008   5.835   3.546  0.00  0.00    +0.164 C 
ATOM     19  C   HYP A  3        1.190   5.688   4.849  0.00  0.00    +0.234 C 
ATOM     20  O   HYP A  3       -0.018   5.926   4.861  0.00  0.00    -0.274 OA
ATOM     21  N   UNK A  4        1.871   5.229   5.917  0.00  0.00    -0.300 N 
ATOM     22  H   UNK A  4        2.860   5.061   5.802  0.00  0.00    +0.150 HD
ATOM     23  C   UNK A  4        1.344   4.838   7.237  0.00  0.00    +0.188 C 
ATOM     24  C   UNK A  4        0.690   3.435   7.219  0.00  0.00    +0.237 C 
ATOM     25  O   UNK A  4        0.862   2.694   8.187  0.00  0.00    -0.274 OA
ATOM     26  N   UNK A  5       -0.018   3.082   6.130  0.00  0.00    -0.300 N 
ATOM     27  H   UNK A  5       -0.106   3.740   5.368  0.00  0.00    +0.150 HD
ATOM     28  C   UNK A  5       -0.655   1.782   5.923  0.00  0.00    +0.185 C 
ATOM     29  C   UNK A  5        0.391   0.682   5.610  0.00  0.00    +0.239 C 
ATOM     30  O   UNK A  5        1.296   0.962   4.820  0.00  0.00    -0.273 OA
ATOM     31  CB  HYP A  3        2.519   7.274   3.331  0.00  0.00    +0.065 C 
ATOM     32  CG  HYP A  3        2.471   7.478   1.822  0.00  0.00    +0.134 C 
ATOM     33  CD  HYP A  3        1.209   6.697   1.432  0.00  0.00    +0.140 C 
ATOM     34  O   UNK A  1       -1.793   1.776   1.283  0.00  0.00    -0.274 OA
ATOM     35  N   UNK A  5        0.247  -0.551   6.161  0.00  0.00    -0.285 N 
ATOM     36  C   UNK A  5       -0.745  -0.897   7.189  0.00  0.00    +0.114 C 
ATOM     37  C   UNK A  5       -0.485  -2.384   7.471  0.00  0.00    +0.034 C 
ATOM     38  C   UNK A  5       -0.934  -2.827   8.876  0.00  0.00    +0.012 C 
ENDROOT
BRANCH  10  39
ATOM     39  N   UNK A  1        1.255   0.077   0.421  0.00  0.00    -0.300 N 
ATOM     40  H   UNK A  1        1.748   0.583   1.143  0.00  0.00    +0.150 HD
ATOM     41  C   UNK A  0        1.983  -0.570  -0.508  0.00  0.00    +0.245 C 
ATOM     42  O   UNK A  0        1.477  -1.219  -1.427  0.00  0.00    -0.270 OA
BRANCH  41  43
ATOM     43  C   UNK A  0        3.486  -0.445  -0.373  0.00  0.00    +0.037 A 
ATOM     44  C   UNK A  0        4.078   0.020   0.812  0.00  0.00    +0.013 A 
ATOM     45  C   UNK A  0        5.460   0.143   0.911  0.00  0.00    +0.009 A 
ATOM     46  C   UNK A  0        6.289  -0.198  -0.162  0.00  0.00    -0.018 A 
ATOM     47  C   UNK A  0        5.700  -0.676  -1.338  0.00  0.00    +0.009 A 
ATOM     48  C   UNK A  0        4.316  -0.799  -1.444  0.00  0.00    +0.013 A 
BRANCH  46  49
ATOM     49  C   UNK A  0        7.769  -0.044  -0.052  0.00  0.00    -0.018 A 
ATOM     50  C   UNK A  0        8.434  -0.377   1.133  0.00  0.00    +0.012 A 
ATOM     51  C   UNK A  0        9.811  -0.207   1.246  0.00  0.00    +0.046 A 
ATOM     52  C   UNK A  0       10.553   0.296   0.180  0.00  0.00    +0.121 A 
ATOM     53  C   UNK A  0        9.896   0.619  -1.017  0.00  0.00    +0.046 A 
ATOM     54  C   UNK A  0        8.518   0.451  -1.126  0.00  0.00    +0.012 A 
BRANCH  52  55
ATOM     55  O   UNK A  0       11.909   0.445   0.392  0.00  0.00    -0.492 OA
BRANCH  55  56
ATOM     56  C   UNK A  0       12.737   0.940  -0.658  0.00  0.00    +0.229 C 
BRANCH  56  57
ATOM     57  C   UNK A  0       14.180   1.074  -0.144  0.00  0.00    +0.041 C 
BRANCH  57  58
ATOM     58  C   UNK A  0       14.786  -0.255   0.345  0.00  0.00    +0.003 C 
BRANCH  58  59
ATOM     59  C   UNK A  0       16.227  -0.100   0.867  0.00  0.00    +0.000 C 
BRANCH  59  60
ATOM     60  C   UNK A  0       16.878  -1.416   1.339  0.00  0.00    -0.000 C 
BRANCH  60  61
ATOM     61  C   UNK A  0       16.218  -2.040   2.584  0.00  0.00    -0.000 C 
BRANCH  61  62
ATOM     62  C   UNK A  0       16.952  -3.295   3.088  0.00  0.00    -0.003 C 
ATOM     63  C   UNK A  0       16.291  -3.917   4.325  0.00  0.00    +0.004 C 
ENDBRANCH  61  62
ENDBRANCH  60  61
ENDBRANCH  59  60
ENDBRANCH  58  59
ENDBRANCH  57  58
ENDBRANCH  56  57
ENDBRANCH  55  56
ENDBRANCH  52  55
ENDBRANCH  46  49
ENDBRANCH  41  43
ENDBRANCH  10  39
BRANCH   1  64
ATOM     64  O   UNK A  5        1.860  -2.173   8.188  0.00  0.00    -0.389 OA
ATOM     65  H   UNK A  5        1.804  -2.813   8.901  0.00  0.00    +0.210 HD
ENDBRANCH   1  64
BRANCH   8  66
ATOM     66  N   UNK A  5       -0.660  -2.906   0.347  0.00  0.00    -0.313 NA
ATOM     67  H   UNK A  5       -0.557  -2.244  -0.410  0.00  0.00    +0.122 HD
BRANCH  66  68
ATOM     68  C   UNK A  5        0.039  -4.145   0.029  0.00  0.00    +0.062 C 
BRANCH  68  69
ATOM     69  C   UNK A  5       -0.350  -4.579  -1.392  0.00  0.00    -0.071 C 
BRANCH  69  70
ATOM     70  N   UNK A  5        0.389  -5.870  -1.759  0.00  0.00    +0.379 N 
ATOM     71  H   UNK A  5        1.388  -5.719  -1.724  0.00  0.00    -0.090 HD
ATOM     72  H   UNK A  5        0.148  -6.605  -1.110  0.00  0.00    -0.090 HD
ATOM     73  H   UNK A  5        0.137  -6.164  -2.692  0.00  0.00    -0.090 HD
ENDBRANCH  69  70
ENDBRANCH  68  69
ENDBRANCH  66  68
ENDBRANCH   8  66
BRANCH  32  74
ATOM     74  OD  HYP A  3        3.611   6.885   1.222  0.00  0.00    -0.390 OA
ATOM     75  HD  HYP A  3        3.850   6.105   1.728  0.00  0.00    +0.210 HD
ENDBRANCH  32  74
BRANCH  14  76
ATOM     76  CB  THR A  2       -1.375   4.669   0.605  0.00  0.00    +0.141 C 
ATOM     77  CG2 THR A  2       -2.123   4.912   1.935  0.00  0.00    +0.040 C 
BRANCH  76  78
ATOM     78  OG1 THR A  2       -1.336   5.899  -0.092  0.00  0.00    -0.390 OA
ATOM     79  HG1 THR A  2       -1.093   5.726  -1.005  0.00  0.00    +0.210 HD
ENDBRANCH  76  78
ENDBRANCH  14  76
BRANCH  23  80
ATOM     80  C   UNK A  4        0.468   5.926   7.946  0.00  0.00    +0.148 C 
BRANCH  80  81
ATOM     81  O   UNK A  4        1.214   7.130   8.027  0.00  0.00    -0.389 OA
ATOM     82  H   UNK A  4        2.094   6.924   8.350  0.00  0.00    +0.210 HD
ENDBRANCH  80  81
BRANCH  80  83
ATOM     83  C   UNK A  4        0.004   5.561   9.384  0.00  0.00    +0.068 C 
BRANCH  83  84
ATOM     84  C   UNK A  4       -0.871   6.619  10.048  0.00  0.00    -0.045 A 
ATOM     85  C   UNK A  4       -2.207   6.757   9.663  0.00  0.00    +0.007 A 
ATOM     86  C   UNK A  4       -3.011   7.719  10.270  0.00  0.00    +0.045 A 
ATOM     87  C   UNK A  4       -2.477   8.540  11.262  0.00  0.00    +0.117 A 
ATOM     88  C   UNK A  4       -1.144   8.407  11.650  0.00  0.00    +0.045 A 
ATOM     89  C   UNK A  4       -0.340   7.446  11.043  0.00  0.00    +0.007 A 
BRANCH  87  90
ATOM     90  O   UNK A  4       -3.268   9.484  11.861  0.00  0.00    -0.507 OA
ATOM     91  H   UNK A  4       -2.803   9.994  12.527  0.00  0.00    +0.292 HD
ENDBRANCH  87  90
ENDBRANCH  83  84
ENDBRANCH  80  83
ENDBRANCH  23  80
BRANCH  28  92
ATOM     92  C   UNK A  5       -1.678   1.929   4.778  0.00  0.00    +0.187 C 
BRANCH  92  93
ATOM     93  O   UNK A  5       -2.388   0.731   4.536  0.00  0.00    -0.393 OA
ATOM     94  H   UNK A  5       -2.968   0.869   3.783  0.00  0.00    +0.209 HD
ENDBRANCH  92  93
ENDBRANCH  28  92
TORSDOF 26
