REMARK  Name = DB05791
REMARK                            x       y       z     vdW  Elec       q    Type
REMARK                         _______ _______ _______ _____ _____    ______ ____
ROOT
ATOM      1  C   LIG    1       -0.032  -0.012  -0.025  0.00  0.00    +0.384 C 
ATOM      2  F   LIG    1       -0.496   1.239   0.017  0.00  0.00    -0.192 F 
ATOM      3  F   LIG    1       -0.496  -0.607   1.077  0.00  0.00    -0.192 F 
ENDROOT
BRANCH   1   4
ATOM      4  C   LIG    1       -0.615  -0.736  -1.284  0.00  0.00    +0.385 C 
ATOM      5  F   LIG    1       -0.158  -1.990  -1.328  0.00  0.00    -0.192 F 
ATOM      6  F   LIG    1       -0.155  -0.146  -2.390  0.00  0.00    -0.192 F 
BRANCH   4   7
ATOM      7  C   LIG    1       -2.177  -0.759  -1.331  0.00  0.00    +0.388 C 
ATOM      8  F   LIG    1       -2.654   0.488  -1.305  0.00  0.00    -0.191 F 
ATOM      9  F   LIG    1       -2.658  -1.360  -0.239  0.00  0.00    -0.191 F 
BRANCH   7  11
ATOM     10 BR   LIG    1       -4.738  -1.439  -2.515  0.00  0.00    -0.004 Br
ATOM     11  C   LIG    1       -2.745  -1.480  -2.582  0.00  0.00    +0.370 C 
ATOM     12  F   LIG    1       -2.370  -0.897  -3.721  0.00  0.00    -0.186 F 
ATOM     13  F   LIG    1       -2.373  -2.759  -2.648  0.00  0.00    -0.186 F 
ENDBRANCH   7  11
ENDBRANCH   4   7
ENDBRANCH   1   4
BRANCH   1  14
ATOM     14  C   LIG    1        1.533   0.015   0.022  0.00  0.00    +0.384 C 
ATOM     15  F   LIG    1        1.997   0.608  -1.081  0.00  0.00    -0.192 F 
ATOM     16  F   LIG    1        1.997  -1.237  -0.019  0.00  0.00    -0.192 F 
BRANCH  14  17
ATOM     17  C   LIG    1        2.116   0.739   1.281  0.00  0.00    +0.387 C 
ATOM     18  F   LIG    1        1.659   0.146   2.387  0.00  0.00    -0.192 F 
ATOM     19  F   LIG    1        1.655   1.992   1.327  0.00  0.00    -0.192 F 
BRANCH  17  20
ATOM     20  C   LIG    1        3.678   0.768   1.323  0.00  0.00    +0.409 C 
ATOM     21  F   LIG    1        4.154   1.375   0.234  0.00  0.00    -0.189 F 
ATOM     22  F   LIG    1        4.160  -0.476   1.293  0.00  0.00    -0.189 F 
BRANCH  20  23
ATOM     23  C   LIG    1        4.255   1.485   2.573  0.00  0.00    +0.460 C 
ATOM     24  F   LIG    1        3.871   0.898   3.708  0.00  0.00    -0.165 F 
ATOM     25  F   LIG    1        5.588   1.482   2.559  0.00  0.00    -0.165 F 
ATOM     26  F   LIG    1        3.863   2.758   2.645  0.00  0.00    -0.165 F 
ENDBRANCH  20  23
ENDBRANCH  17  20
ENDBRANCH  14  17
ENDBRANCH   1  14
TORSDOF 7
