REMARK  Name = DB05722
REMARK                            x       y       z     vdW  Elec       q    Type
REMARK                         _______ _______ _______ _____ _____    ______ ____
ROOT
ATOM      1  C   LIG    1        1.706  -0.705   0.179  0.00  0.00    -0.052 C 
ATOM      2  C   LIG    1        2.752  -1.051  -0.597  0.00  0.00    -0.052 C 
ENDROOT
BRANCH   1   3
ATOM      3  C   LIG    1        0.227  -0.869  -0.133  0.00  0.00    -0.055 C 
BRANCH   3   4
ATOM      4  N   LIG    1       -0.544   0.463  -0.141  0.00  0.00    +0.381 N 
ATOM      5  H   LIG    1       -1.531   0.270  -0.249  0.00  0.00    -0.085 HD
ATOM      6  H   LIG    1       -0.428   0.890   0.767  0.00  0.00    -0.085 HD
BRANCH   4   7
ATOM      7  C   LIG    1       -0.127   1.493  -1.208  0.00  0.00    -0.084 C 
BRANCH   7   8
ATOM      8  C   LIG    1       -0.539   1.037  -2.619  0.00  0.00    -0.038 C 
BRANCH   8   9
ATOM      9  C   LIG    1       -0.269   2.126  -3.669  0.00  0.00    -0.084 C 
BRANCH   9  10
ATOM     10  N   LIG    1       -0.757   1.647  -5.046  0.00  0.00    +0.379 N 
ATOM     11  H   LIG    1       -0.274   0.793  -5.288  0.00  0.00    -0.086 HD
ATOM     12  H   LIG    1       -1.745   1.442  -4.990  0.00  0.00    -0.086 HD
BRANCH  10  14
ATOM     13  C   LIG    1       -1.059   2.106  -7.493  0.00  0.00    -0.017 C 
ATOM     14  C   LIG    1       -0.532   2.673  -6.168  0.00  0.00    -0.086 C 
ENDBRANCH  10  14
ENDBRANCH   9  10
ENDBRANCH   8   9
ENDBRANCH   7   8
ENDBRANCH   4   7
ENDBRANCH   3   4
ENDBRANCH   1   3
BRANCH   2  15
ATOM     15  C   LIG    1        2.710  -1.702  -1.970  0.00  0.00    -0.055 C 
BRANCH  15  16
ATOM     16  N   LIG    1        3.420  -3.066  -2.018  0.00  0.00    +0.381 N 
ATOM     17  H   LIG    1        4.371  -2.946  -1.698  0.00  0.00    -0.085 HD
ATOM     18  H   LIG    1        3.461  -3.370  -2.981  0.00  0.00    -0.085 HD
BRANCH  16  19
ATOM     19  C   LIG    1        2.752  -4.176  -1.187  0.00  0.00    -0.084 C 
BRANCH  19  20
ATOM     20  C   LIG    1        3.559  -5.476  -1.343  0.00  0.00    -0.038 C 
BRANCH  20  21
ATOM     21  C   LIG    1        3.035  -6.643  -0.488  0.00  0.00    -0.084 C 
BRANCH  21  22
ATOM     22  N   LIG    1        1.663  -7.111  -1.001  0.00  0.00    +0.379 N 
ATOM     23  H   LIG    1        1.750  -7.376  -1.972  0.00  0.00    -0.086 HD
ATOM     24  H   LIG    1        1.009  -6.344  -0.942  0.00  0.00    -0.086 HD
BRANCH  22  25
ATOM     25  C   LIG    1        1.091  -8.304  -0.218  0.00  0.00    -0.086 C 
ATOM     26  C   LIG    1       -0.280  -8.685  -0.790  0.00  0.00    -0.017 C 
ENDBRANCH  22  25
ENDBRANCH  21  22
ENDBRANCH  20  21
ENDBRANCH  19  20
ENDBRANCH  16  19
ENDBRANCH  15  16
ENDBRANCH   2  15
TORSDOF 14
