REMARK  Name = DB05540
REMARK                            x       y       z     vdW  Elec       q    Type
REMARK                         _______ _______ _______ _____ _____    ______ ____
ROOT
ATOM      1  CA  LIG    1        1.547  -0.017   0.072  0.00  0.00    +0.182 C 
ENDROOT
BRANCH   1   2
ATOM      2  N   LIG    1        2.143  -1.341  -0.194  0.00  0.00    -0.317 NA
ATOM      3  H1  LIG    1        1.887  -1.982   0.544  0.00  0.00    +0.119 HD
ATOM      4  H2  LIG    1        3.150  -1.274  -0.150  0.00  0.00    +0.119 HD
ENDBRANCH   1   2
BRANCH   1   5
ATOM      5  C   LIG    1        2.102   0.614   1.401  0.00  0.00    +0.324 C 
ATOM      6  OXT LIG    1        2.536   1.782   1.278  0.00  0.00    -0.249 OA
BRANCH   5   7
ATOM      7  O   LIG    1        1.989  -0.087   2.436  0.00  0.00    -0.479 OA
ATOM      8  H   LIG    1        2.302   0.237   3.257  0.00  0.00    +0.295 HD
ENDBRANCH   5   7
ENDBRANCH   1   5
BRANCH   1   9
ATOM      9  C   LIG    1       -0.003  -0.122   0.070  0.00  0.00    +0.174 C 
BRANCH   9  10
ATOM     10  N   LIG    1       -0.615   1.264   0.111  0.00  0.00    -0.245 NA
ATOM     11  H   LIG    1       -0.204   1.731   0.947  0.00  0.00    +0.192 HD
BRANCH  10  12
ATOM     12  O   LIG    1       -0.401   1.969  -1.031  0.00  0.00    -0.290 OA
ATOM     13  H   LIG    1       -0.799   1.499  -1.780  0.00  0.00    +0.244 HD
ENDBRANCH  10  12
BRANCH  10  14
ATOM     14  N   LIG    1       -2.037   1.125   0.354  0.00  0.00    +0.056 NA
ATOM     15  O   LIG    1       -2.565   2.201   0.546  0.00  0.00    -0.124 OA
ENDBRANCH  10  14
ENDBRANCH   9  10
ENDBRANCH   1   9
TORSDOF 7
