REMARK  Name = DB05246
REMARK                            x       y       z     vdW  Elec       q    Type
REMARK                         _______ _______ _______ _____ _____    ______ ____
ROOT
ATOM      1  O   LIG    1       -0.616   2.362   0.510  0.00  0.00    -0.274 OA
ATOM      2  C   LIG    1       -0.847   1.186   0.219  0.00  0.00    +0.232 C 
ATOM      3  C   LIG    1       -2.249   0.602  -0.029  0.00  0.00    +0.078 C 
ATOM      4  C   LIG    1       -3.044   0.794   1.298  0.00  0.00    +0.026 C 
ATOM      5  C   LIG    1       -1.964  -0.875  -0.269  0.00  0.00    +0.117 C 
ATOM      6  C   LIG    1       -0.457  -1.028  -0.214  0.00  0.00    +0.223 C 
ATOM      7  O   LIG    1        0.146  -2.089  -0.379  0.00  0.00    -0.275 OA
ATOM      8  N   LIG    1        0.063   0.197   0.033  0.00  0.00    -0.245 N 
ATOM      9  C   LIG    1        1.502   0.414   0.205  0.00  0.00    +0.141 C 
ENDROOT
BRANCH   3  10
ATOM     10  C   LIG    1       -2.906   1.292  -1.259  0.00  0.00    -0.032 A 
ATOM     11  C   LIG    1       -2.254   1.270  -2.505  0.00  0.00    +0.004 A 
ATOM     12  C   LIG    1       -2.826   1.871  -3.622  0.00  0.00    +0.000 A 
ATOM     13  C   LIG    1       -4.063   2.497  -3.511  0.00  0.00    +0.000 A 
ATOM     14  C   LIG    1       -4.732   2.522  -2.291  0.00  0.00    +0.000 A 
ATOM     15  C   LIG    1       -4.159   1.921  -1.174  0.00  0.00    +0.004 A 
ENDBRANCH   3  10
TORSDOF 1
