REMARK  Name = DB05524
REMARK                            x       y       z     vdW  Elec       q    Type
REMARK                         _______ _______ _______ _____ _____    ______ ____
ROOT
ATOM      1  C   LIG    1       -0.888  -1.386   0.047  0.00  0.00    +0.039 A 
ATOM      2  C   LIG    1       -0.061  -0.255   0.067  0.00  0.00    +0.077 A 
ATOM      3  C   LIG    1       -0.614   1.032   0.114  0.00  0.00    +0.144 A 
ATOM      4  C   LIG    1       -2.007   1.174   0.178  0.00  0.00    +0.076 A 
ATOM      5  C   LIG    1       -2.859   0.046   0.179  0.00  0.00    +0.076 A 
ATOM      6  N   LIG    1       -4.198   0.263   0.242  0.00  0.00    -0.253 NA
ATOM      7  C   LIG    1       -5.024  -0.805   0.213  0.00  0.00    +0.132 A 
ATOM      8  C   LIG    1       -4.590  -2.127   0.135  0.00  0.00    +0.091 A 
ATOM      9  C   LIG    1       -3.200  -2.390   0.113  0.00  0.00    +0.060 A 
ATOM     10  C   LIG    1       -2.304  -1.267   0.107  0.00  0.00    +0.025 A 
ENDROOT
BRANCH   2  11
ATOM     11  N   LIG    1        1.342  -0.366  -0.008  0.00  0.00    -0.279 N 
ATOM     12  H   LIG    1        1.807   0.407  -0.462  0.00  0.00    +0.155 HD
ATOM     13  C   LIG    1        2.125  -1.300   0.575  0.00  0.00    +0.241 C 
ATOM     14  O   LIG    1        1.705  -2.220   1.281  0.00  0.00    -0.271 OA
BRANCH  13  15
ATOM     15  C   LIG    1        3.527  -1.105   0.285  0.00  0.00    +0.061 C 
ATOM     16  C   LIG    1        4.491  -1.918   0.762  0.00  0.00    -0.040 C 
BRANCH  16  17
ATOM     17  C   LIG    1        5.971  -1.744   0.483  0.00  0.00    -0.052 C 
BRANCH  17  18
ATOM     18  N   LIG    1        6.797  -1.389   1.738  0.00  0.00    +0.378 N 
ATOM     19  H   LIG    1        6.609  -2.103   2.428  0.00  0.00    -0.082 HD
ATOM     20  C   LIG    1        6.393  -0.035   2.358  0.00  0.00    -0.096 C 
ATOM     21  C   LIG    1        8.310  -1.432   1.449  0.00  0.00    -0.096 C 
ENDBRANCH  17  18
ENDBRANCH  16  17
ENDBRANCH  13  15
ENDBRANCH   2  11
BRANCH   8  22
ATOM     22  C   LIG    1       -5.620  -3.158   0.010  0.00  0.00    +0.103 C 
ATOM     23  N   LIG    1       -6.436  -3.973  -0.089  0.00  0.00    -0.191 NA
ENDBRANCH   8  22
BRANCH   9  24
ATOM     24  N   LIG    1       -2.659  -3.695   0.041  0.00  0.00    -0.313 N 
ATOM     25  H   LIG    1       -1.806  -3.758  -0.495  0.00  0.00    +0.152 HD
BRANCH  24  26
ATOM     26  C   LIG    1       -2.947  -4.858   0.773  0.00  0.00    +0.033 A 
ATOM     27  C   LIG    1       -2.436  -6.075   0.314  0.00  0.00    +0.026 A 
ATOM     28  C   LIG    1       -2.681  -7.256   1.016  0.00  0.00    +0.041 A 
ATOM     29  C   LIG    1       -3.431  -7.228   2.192  0.00  0.00    +0.142 A 
ATOM     30  F   LIG    1       -3.664  -8.379   2.864  0.00  0.00    -0.204 F 
ATOM     31  C   LIG    1       -3.929  -6.013   2.671  0.00  0.00    +0.078 A 
ATOM     32 CL   LIG    1       -4.849  -5.957   4.132  0.00  0.00    -0.081 Cl
ATOM     33  C   LIG    1       -3.681  -4.834   1.967  0.00  0.00    +0.046 A 
ENDBRANCH  24  26
ENDBRANCH   9  24
BRANCH   3  34
ATOM     34  O   LIG    1        0.259   2.109   0.103  0.00  0.00    -0.490 OA
BRANCH  34  35
ATOM     35  C   LIG    1       -0.251   3.439   0.135  0.00  0.00    +0.226 C 
ATOM     36  C   LIG    1        0.927   4.417   0.085  0.00  0.00    +0.048 C 
ENDBRANCH  34  35
ENDBRANCH   3  34
TORSDOF 9
