REMARK  Name = DB05928
REMARK                            x       y       z     vdW  Elec       q    Type
REMARK                         _______ _______ _______ _____ _____    ______ ____
ROOT
ATOM      1  C   LIG    1        1.136   0.070   0.374  0.00  0.00    +0.146 A 
ATOM      2  N   LIG    1        1.873  -1.034  -0.002  0.00  0.00    -0.338 N 
ATOM      3  H   LIG    1        1.458  -1.867  -0.395  0.00  0.00    +0.167 HD
ATOM      4  C   LIG    1        3.197  -0.772   0.263  0.00  0.00    +0.068 A 
ATOM      5  C   LIG    1        3.176   0.530   0.802  0.00  0.00    +0.090 A 
ATOM      6  C   LIG    1        4.378   1.134   1.180  0.00  0.00    +0.032 A 
ATOM      7  C   LIG    1        5.559   0.411   1.013  0.00  0.00    +0.025 A 
ATOM      8  C   LIG    1        5.588  -0.903   0.505  0.00  0.00    +0.032 A 
ATOM      9  C   LIG    1        4.377  -1.501   0.097  0.00  0.00    +0.051 A 
ATOM     10  N   LIG    1        1.900   1.023   0.862  0.00  0.00    -0.227 NA
ENDROOT
BRANCH   1  11
ATOM     11  C   LIG    1       -0.329   0.178   0.249  0.00  0.00    +0.103 A 
ATOM     12  C   LIG    1       -1.119  -0.938   0.787  0.00  0.00    +0.262 A 
ATOM     13  O   LIG    1       -0.664  -1.931   1.354  0.00  0.00    -0.267 OA
ATOM     14  N   LIG    1       -2.456  -0.812   0.628  0.00  0.00    -0.321 N 
ATOM     15  H   LIG    1       -2.995  -1.581   0.997  0.00  0.00    +0.169 HD
ATOM     16  C   LIG    1       -3.140   0.261   0.045  0.00  0.00    +0.054 A 
ATOM     17  C   LIG    1       -4.533   0.229  -0.014  0.00  0.00    +0.026 A 
ATOM     18  C   LIG    1       -5.228   1.293  -0.583  0.00  0.00    +0.005 A 
ATOM     19  C   LIG    1       -4.531   2.386  -1.091  0.00  0.00    +0.039 A 
ATOM     20  C   LIG    1       -3.136   2.426  -1.036  0.00  0.00    +0.134 A 
ATOM     21  F   LIG    1       -2.515   3.517  -1.544  0.00  0.00    -0.205 F 
ATOM     22  C   LIG    1       -2.416   1.355  -0.465  0.00  0.00    +0.055 A 
ATOM     23  C   LIG    1       -0.925   1.261  -0.337  0.00  0.00    +0.053 A 
BRANCH  23  24
ATOM     24  N   LIG    1       -0.217   2.313  -0.873  0.00  0.00    -0.357 N 
ATOM     25  H   LIG    1       -0.689   3.092  -1.309  0.00  0.00    +0.142 HD
ATOM     26  H   LIG    1        0.791   2.341  -0.822  0.00  0.00    +0.142 HD
ENDBRANCH  23  24
ENDBRANCH   1  11
BRANCH   8  27
ATOM     27  N   LIG    1        6.811  -1.571   0.324  0.00  0.00    -0.333 N 
ATOM     28  C   LIG    1        6.892  -3.023   0.058  0.00  0.00    +0.086 C 
ATOM     29  C   LIG    1        6.822  -3.864   1.355  0.00  0.00    -0.060 C 
ATOM     30  N   LIG    1        8.031  -3.495   2.240  0.00  0.00    +0.380 N 
ATOM     31  H   LIG    1        8.876  -3.726   1.735  0.00  0.00    -0.082 HD
ATOM     32  C   LIG    1        8.017  -1.974   2.494  0.00  0.00    -0.060 C 
ATOM     33  C   LIG    1        7.996  -4.273   3.569  0.00  0.00    -0.096 C 
ATOM     34  C   LIG    1        8.011  -1.248   1.128  0.00  0.00    +0.086 C 
ENDBRANCH   8  27
TORSDOF 3
