REMARK  Name = DB05678
REMARK                            x       y       z     vdW  Elec       q    Type
REMARK                         _______ _______ _______ _____ _____    ______ ____
ROOT
ATOM      1  N   LIG    1       -0.647  -1.184  -0.093  0.00  0.00    -0.281 N 
ATOM      2  H   LIG    1       -0.045  -1.974  -0.272  0.00  0.00    +0.155 HD
ATOM      3  C   LIG    1       -0.036   0.010   0.082  0.00  0.00    +0.249 C 
ATOM      4  O   LIG    1       -0.614   1.089   0.219  0.00  0.00    -0.270 OA
ENDROOT
BRANCH   1  12
ATOM      5  C   LIG    1       -8.542  -1.796   0.105  0.00  0.00    +0.408 C 
ATOM      6  O   LIG    1       -9.401  -0.912   0.198  0.00  0.00    -0.226 OA
ATOM      7  N   LIG    1       -7.154  -1.566   0.050  0.00  0.00    -0.262 N 
ATOM      8  C   LIG    1       -6.673  -0.175   0.186  0.00  0.00    +0.116 C 
ATOM      9  C   LIG    1       -5.438  -0.174   1.105  0.00  0.00    +0.054 C 
ATOM     10  C   LIG    1       -4.352  -1.044   0.499  0.00  0.00    -0.039 A 
ATOM     11  C   LIG    1       -3.008  -0.658   0.490  0.00  0.00    +0.027 A 
ATOM     12  C   LIG    1       -2.022  -1.485  -0.070  0.00  0.00    +0.034 A 
ATOM     13  C   LIG    1       -2.402  -2.714  -0.610  0.00  0.00    +0.023 A 
ATOM     14  C   LIG    1       -3.740  -3.099  -0.609  0.00  0.00    +0.007 A 
ATOM     15  C   LIG    1       -4.729  -2.276  -0.063  0.00  0.00    -0.027 A 
ATOM     16  C   LIG    1       -6.201  -2.699  -0.076  0.00  0.00    +0.146 C 
BRANCH   5  17
ATOM     17  O   LIG    1       -8.839  -3.136   0.041  0.00  0.00    -0.411 OA
BRANCH  17  18
ATOM     18  C   LIG    1      -10.142  -3.566   0.169  0.00  0.00    +0.133 A 
ATOM     19  C   LIG    1      -10.782  -3.546   1.414  0.00  0.00    +0.046 A 
ATOM     20  C   LIG    1      -12.092  -4.006   1.528  0.00  0.00    +0.004 A 
ATOM     21  C   LIG    1      -12.752  -4.494   0.403  0.00  0.00    +0.000 A 
ATOM     22  C   LIG    1      -12.115  -4.529  -0.836  0.00  0.00    +0.004 A 
ATOM     23  C   LIG    1      -10.806  -4.069  -0.952  0.00  0.00    +0.046 A 
ENDBRANCH  17  18
ENDBRANCH   5  17
ENDBRANCH   1  12
BRANCH   3  24
ATOM     24  C   LIG    1        1.475  -0.050   0.111  0.00  0.00    +0.048 A 
ATOM     25  C   LIG    1        2.137  -0.739  -0.916  0.00  0.00    +0.014 A 
ATOM     26  C   LIG    1        3.523  -0.785  -0.966  0.00  0.00    +0.004 A 
ATOM     27  C   LIG    1        4.274  -0.142   0.009  0.00  0.00    +0.046 A 
ATOM     28  C   LIG    1        3.648   0.553   1.056  0.00  0.00    +0.128 A 
ATOM     29  C   LIG    1        2.238   0.601   1.116  0.00  0.00    +0.036 A 
BRANCH  29  30
ATOM     30  C   LIG    1        1.594   1.317   2.261  0.00  0.00    -0.014 A 
ATOM     31  C   LIG    1        1.757   2.696   2.416  0.00  0.00    +0.009 A 
ATOM     32  C   LIG    1        1.158   3.363   3.481  0.00  0.00    +0.013 A 
ATOM     33  C   LIG    1        0.386   2.657   4.409  0.00  0.00    +0.055 A 
ATOM     34  C   LIG    1        0.222   1.276   4.258  0.00  0.00    +0.013 A 
ATOM     35  C   LIG    1        0.824   0.613   3.193  0.00  0.00    +0.009 A 
BRANCH  33  36
ATOM     36  C   LIG    1       -0.267   3.401   5.572  0.00  0.00    +0.417 C 
ATOM     37  F   LIG    1       -0.651   2.574   6.547  0.00  0.00    -0.166 F 
ATOM     38  F   LIG    1       -1.343   4.049   5.125  0.00  0.00    -0.166 F 
ATOM     39  F   LIG    1        0.579   4.290   6.097  0.00  0.00    -0.166 F 
ENDBRANCH  33  36
ENDBRANCH  29  30
BRANCH  28  40
ATOM     40  O   LIG    1        4.356   1.195   2.059  0.00  0.00    -0.494 OA
ATOM     41  C   LIG    1        5.780   1.182   2.044  0.00  0.00    +0.277 C 
ENDBRANCH  28  40
ENDBRANCH   3  24
TORSDOF 7
