REMARK  Name = DB05076
REMARK                            x       y       z     vdW  Elec       q    Type
REMARK                         _______ _______ _______ _____ _____    ______ ____
ROOT
ATOM      1  C   LIG    1        2.236  -1.150   0.215  0.00  0.00    +0.003 C 
ATOM      2  C   LIG    1        1.564   0.018   0.202  0.00  0.00    +0.001 C 
ENDROOT
BRANCH   1   4
ATOM      3  C   LIG    1        4.523  -0.395  -0.122  0.00  0.00    +0.071 C 
ATOM      4  C   LIG    1        3.671  -1.299   0.433  0.00  0.00    -0.046 C 
ATOM      5  C   LIG    1        4.105  -2.440   1.350  0.00  0.00    +0.044 C 
BRANCH   3   7
ATOM      6  O   LIG    1        6.639  -1.393   0.203  0.00  0.00    -0.270 OA
ATOM      7  C   LIG    1        5.969  -0.384  -0.023  0.00  0.00    +0.241 C 
ATOM      8  N   LIG    1        6.479   0.846  -0.251  0.00  0.00    -0.282 N 
ATOM      9  H   LIG    1        5.814   1.563  -0.499  0.00  0.00    +0.155 HD
BRANCH   8  10
ATOM     10  C   LIG    1        7.820   1.276  -0.247  0.00  0.00    +0.034 A 
ATOM     11  C   LIG    1        8.890   0.544   0.295  0.00  0.00    +0.027 A 
ATOM     12  C   LIG    1       10.181   1.068   0.259  0.00  0.00    +0.047 A 
ATOM     13  C   LIG    1       10.406   2.320  -0.309  0.00  0.00    +0.117 A 
ATOM     14  C   LIG    1        9.349   3.056  -0.840  0.00  0.00    +0.047 A 
ATOM     15  C   LIG    1        8.059   2.535  -0.805  0.00  0.00    +0.027 A 
BRANCH  13  16
ATOM     16  O   LIG    1       11.675   2.834  -0.343  0.00  0.00    -0.507 OA
ATOM     17  H   LIG    1       12.327   2.247   0.048  0.00  0.00    +0.292 HD
ENDBRANCH  13  16
ENDBRANCH   8  10
ENDBRANCH   3   7
ENDBRANCH   1   4
BRANCH   2  18
ATOM     18  C   LIG    1        0.128   0.097  -0.017  0.00  0.00    +0.003 C 
ATOM     19  C   LIG    1       -0.618   1.225  -0.117  0.00  0.00    -0.050 C 
ATOM     20  C   LIG    1       -0.026   2.628  -0.047  0.00  0.00    +0.044 C 
BRANCH  19  21
ATOM     21  C   LIG    1       -2.059   1.124  -0.305  0.00  0.00    +0.003 C 
ATOM     22  C   LIG    1       -2.868   0.262   0.347  0.00  0.00    +0.004 C 
BRANCH  22  23
ATOM     23  C   LIG    1       -4.314   0.168   0.141  0.00  0.00    -0.043 C 
ATOM     24  C   LIG    1       -5.137   1.234   0.391  0.00  0.00    -0.069 C 
ATOM     25  C   LIG    1       -4.651   2.597   0.884  0.00  0.00    +0.039 C 
ATOM     26  C   LIG    1       -6.649   1.197   0.155  0.00  0.00    +0.031 C 
ATOM     27  C   LIG    1       -7.203  -0.231   0.112  0.00  0.00    +0.005 C 
ATOM     28  C   LIG    1       -6.342  -1.100  -0.805  0.00  0.00    +0.011 C 
ATOM     29  C   LIG    1       -4.860  -1.209  -0.338  0.00  0.00    -0.010 C 
ATOM     30  C   LIG    1       -4.038  -1.694  -1.560  0.00  0.00    +0.016 C 
ATOM     31  C   LIG    1       -4.777  -2.192   0.857  0.00  0.00    +0.016 C 
ENDBRANCH  22  23
ENDBRANCH  19  21
ENDBRANCH   2  18
TORSDOF 7
