REMARK  Name = DB05232
REMARK                            x       y       z     vdW  Elec       q    Type
REMARK                         _______ _______ _______ _____ _____    ______ ____
ROOT
ATOM      1  O   LIG    1       -0.131  -2.014  -1.142  0.00  0.00    -0.318 OA
ATOM      2  C   LIG    1       -0.508  -2.763   0.007  0.00  0.00    +0.313 C 
ATOM      3  C   LIG    1       -2.054  -2.895   0.075  0.00  0.00    +0.227 C 
ATOM      4  C   LIG    1       -2.647  -1.452   0.126  0.00  0.00    +0.093 C 
ATOM      5  C   LIG    1       -2.065  -0.723   1.385  0.00  0.00    +0.170 C 
ATOM      6  C   LIG    1       -0.507  -0.760   1.312  0.00  0.00    +0.191 C 
ATOM      7  C   LIG    1        0.052   0.024   0.096  0.00  0.00    +0.144 C 
ATOM      8  C   LIG    1       -2.170  -0.726  -1.181  0.00  0.00    +0.090 C 
ATOM      9  C   LIG    1       -2.977   0.541  -1.627  0.00  0.00    +0.193 C 
ATOM     10  N   LIG    1       -4.401   0.196  -1.538  0.00  0.00    -0.257 NA
ATOM     11  H   LIG    1       -5.055   0.871  -1.908  0.00  0.00    +0.127 HD
ATOM     12  C   LIG    1       -4.913  -0.732  -0.722  0.00  0.00    +0.172 C 
ATOM     13  N   LIG    1       -4.132  -1.461   0.086  0.00  0.00    -0.272 NA
ATOM     14  H   LIG    1       -4.605  -2.127   0.681  0.00  0.00    +0.126 HD
ATOM     15  O   LIG    1       -0.045  -2.118   1.178  0.00  0.00    -0.316 OA
ATOM     16  C   LIG    1       -0.605  -0.650  -1.154  0.00  0.00    +0.169 C 
ENDROOT
BRANCH  12  17
ATOM     17  N   LIG    1       -6.223  -0.934  -0.713  0.00  0.00    -0.297 NA
ATOM     18  H   LIG    1       -6.622  -1.634  -0.104  0.00  0.00    +0.121 HD
ATOM     19  H   LIG    1       -6.820  -0.390  -1.319  0.00  0.00    +0.121 HD
ENDBRANCH  12  17
BRANCH   7  20
ATOM     20  O   LIG    1       -0.238   1.405   0.221  0.00  0.00    -0.381 OA
ATOM     21  H   LIG    1        0.229   1.749   0.986  0.00  0.00    +0.210 HD
ENDBRANCH   7  20
BRANCH   5  22
ATOM     22  O   LIG    1       -2.516  -1.213   2.638  0.00  0.00    -0.387 OA
ATOM     23  H   LIG    1       -3.469  -1.107   2.687  0.00  0.00    +0.210 HD
ENDBRANCH   5  22
BRANCH   9  24
ATOM     24  O   LIG    1       -2.723   1.722  -0.908  0.00  0.00    -0.377 OA
ATOM     25  H   LIG    1       -1.784   1.918  -0.961  0.00  0.00    +0.211 HD
ENDBRANCH   9  24
BRANCH   3  26
ATOM     26  O   LIG    1       -2.503  -3.756   1.117  0.00  0.00    -0.382 OA
ATOM     27  H   LIG    1       -2.078  -4.611   1.009  0.00  0.00    +0.210 HD
ENDBRANCH   3  26
BRANCH   2  28
ATOM     28  O   LIG    1        0.023  -4.025  -0.077  0.00  0.00    -0.341 OA
ATOM     29  H   LIG    1        0.978  -3.938  -0.112  0.00  0.00    +0.215 HD
ENDBRANCH   2  28
BRANCH   7  30
ATOM     30  C   LIG    1        1.612  -0.036   0.050  0.00  0.00    +0.195 C 
BRANCH  30  31
ATOM     31  O   LIG    1        2.162   0.622  -1.079  0.00  0.00    -0.392 OA
ATOM     32  H   LIG    1        3.118   0.541  -1.046  0.00  0.00    +0.210 HD
ENDBRANCH  30  31
ENDBRANCH   7  30
TORSDOF 8
