REMARK  Name = DB05383
REMARK                            x       y       z     vdW  Elec       q    Type
REMARK                         _______ _______ _______ _____ _____    ______ ____
ROOT
ATOM      1  C   LIG    1        1.461  -0.074   0.022  0.00  0.00    +0.180 C 
ENDROOT
BRANCH   1   2
ATOM      2  N   LIG    1        2.058   1.109   0.007  0.00  0.00    -0.296 NA
ATOM      3  H   LIG    1        1.524   1.941  -0.198  0.00  0.00    +0.121 HD
ATOM      4  H   LIG    1        3.047   1.176   0.201  0.00  0.00    +0.121 HD
ENDBRANCH   1   2
BRANCH   1   5
ATOM      5  N   LIG    1        2.231  -1.151  -0.139  0.00  0.00    -0.296 NA
ATOM      6  H   LIG    1        1.811  -2.070  -0.132  0.00  0.00    +0.121 HD
ATOM      7  H   LIG    1        3.225  -1.047  -0.282  0.00  0.00    +0.121 HD
ENDBRANCH   1   5
BRANCH   1   8
ATOM      8  N   LIG    1        0.129  -0.099   0.198  0.00  0.00    -0.223 NA
ATOM      9  H   LIG    1       -0.358   0.782   0.289  0.00  0.00    +0.144 HD
BRANCH   8  10
ATOM     10  N   LIG    1       -0.619  -1.283   0.214  0.00  0.00    -0.268 NA
ATOM     11  H   LIG    1       -1.337  -1.203  -0.493  0.00  0.00    +0.137 HD
ATOM     12  H   LIG    1       -1.022  -1.380   1.136  0.00  0.00    +0.137 HD
ENDBRANCH   8  10
ENDBRANCH   1   8
TORSDOF 4
