REMARK  Name = DB05549
REMARK                            x       y       z     vdW  Elec       q    Type
REMARK                         _______ _______ _______ _____ _____    ______ ____
ROOT
ATOM      1  C   LIG    1        4.243  -1.234   1.063  0.00  0.00    +0.106 A 
ATOM      2  C   LIG    1        5.039  -1.790   0.055  0.00  0.00    +0.029 A 
ATOM      3  C   LIG    1        5.473  -3.113   0.154  0.00  0.00    +0.012 A 
ATOM      4  C   LIG    1        5.109  -3.875   1.266  0.00  0.00    +0.002 A 
ATOM      5  C   LIG    1        4.318  -3.324   2.273  0.00  0.00    -0.032 A 
ATOM      6  C   LIG    1        4.076  -4.352   3.351  0.00  0.00    +0.073 C 
ATOM      7  C   LIG    1        4.828  -5.554   2.827  0.00  0.00    -0.011 A 
ATOM      8  C   LIG    1        5.023  -6.910   3.365  0.00  0.00    -0.007 A 
ATOM      9  C   LIG    1        5.798  -7.819   2.612  0.00  0.00    +0.047 A 
ATOM     10  C   LIG    1        6.420  -7.412   1.275  0.00  0.00    +0.257 A 
ATOM     11  O   LIG    1        7.105  -8.140   0.557  0.00  0.00    -0.267 OA
ATOM     12  N   LIG    1        6.156  -6.127   0.906  0.00  0.00    -0.321 N 
ATOM     13  H   LIG    1        6.559  -5.842   0.026  0.00  0.00    +0.169 HD
ATOM     14  C   LIG    1        6.003  -9.118   3.094  0.00  0.00    +0.014 A 
ATOM     15  C   LIG    1        5.444  -9.506   4.313  0.00  0.00    +0.001 A 
ATOM     16  C   LIG    1        4.679  -8.605   5.054  0.00  0.00    +0.001 A 
ATOM     17  C   LIG    1        4.467  -7.309   4.583  0.00  0.00    +0.009 A 
ATOM     18  C   LIG    1        5.403  -5.259   1.647  0.00  0.00    +0.054 A 
ATOM     19  C   LIG    1        3.883  -2.003   2.175  0.00  0.00    +0.033 A 
ENDROOT
BRANCH   1  20
ATOM     20  S   LIG    1        3.671   0.458   0.951  0.00  0.00    +0.058 S 
ATOM     21  O   LIG    1        4.077   1.120   2.196  0.00  0.00    -0.153 OA
ATOM     22  O   LIG    1        4.079   0.989  -0.354  0.00  0.00    -0.153 OA
BRANCH  20  23
ATOM     23  N   LIG    1        1.915   0.340   0.969  0.00  0.00    -0.190 NA
ATOM     24  H   LIG    1        1.509   0.137   1.886  0.00  0.00    +0.148 HD
BRANCH  23  25
ATOM     25  C   LIG    1        1.244  -0.310  -0.174  0.00  0.00    +0.104 C 
BRANCH  25  26
ATOM     26  C   LIG    1       -0.275  -0.070  -0.163  0.00  0.00    -0.002 C 
BRANCH  26  27
ATOM     27  C   LIG    1       -0.664   1.420  -0.260  0.00  0.00    -0.077 C 
BRANCH  27  32
ATOM     28  C   LIG    1       -4.051   3.265   0.240  0.00  0.00    +0.141 C 
ATOM     29  O   LIG    1       -4.686   2.769  -0.934  0.00  0.00    -0.383 OA
ATOM     30  C   LIG    1       -4.468   1.382  -1.174  0.00  0.00    +0.141 C 
ATOM     31  C   LIG    1       -2.966   1.087  -1.358  0.00  0.00    -0.050 C 
ATOM     32  N   LIG    1       -2.194   1.610  -0.123  0.00  0.00    +0.383 N 
ATOM     33  H   LIG    1       -2.514   1.093   0.684  0.00  0.00    -0.082 HD
ATOM     34  C   LIG    1       -2.522   3.098   0.141  0.00  0.00    -0.050 C 
ENDBRANCH  27  32
ENDBRANCH  26  27
ENDBRANCH  25  26
ENDBRANCH  23  25
ENDBRANCH  20  23
ENDBRANCH   1  20
TORSDOF 6
