REMARK  Name = DB05116
REMARK                            x       y       z     vdW  Elec       q    Type
REMARK                         _______ _______ _______ _____ _____    ______ ____
ROOT
ATOM      1  C   LIG    1        2.149   1.504   0.604  0.00  0.00    +0.206 C 
ENDROOT
BRANCH   1   2
ATOM      2  C   LIG    1        3.596   1.898   0.253  0.00  0.00    +0.175 C 
ATOM      3  O   LIG    1        4.419   0.750   0.437  0.00  0.00    -0.348 OA
ATOM      4  C   LIG    1        5.163   0.467  -0.711  0.00  0.00    +0.226 C 
ATOM      5  C   LIG    1        4.377   1.066  -1.872  0.00  0.00    +0.088 C 
ATOM      6  C   LIG    1        3.825   2.321  -1.209  0.00  0.00    +0.150 C 
BRANCH   4   7
ATOM      7  N   LIG    1        5.465  -0.958  -0.771  0.00  0.00    -0.273 N 
ATOM      8  C   LIG    1        6.772  -1.397  -0.691  0.00  0.00    +0.331 A 
ATOM      9  O   LIG    1        7.779  -0.694  -0.591  0.00  0.00    -0.246 OA
ATOM     10  N   LIG    1        6.898  -2.761  -0.733  0.00  0.00    -0.274 N 
ATOM     11  H   LIG    1        7.846  -3.104  -0.681  0.00  0.00    +0.173 HD
ATOM     12  C   LIG    1        5.940  -3.730  -0.833  0.00  0.00    +0.261 A 
ATOM     13  O   LIG    1        6.242  -4.923  -0.859  0.00  0.00    -0.267 OA
ATOM     14  C   LIG    1        4.577  -3.204  -0.899  0.00  0.00    +0.056 A 
ATOM     15  C   LIG    1        4.430  -1.859  -0.862  0.00  0.00    +0.106 A 
BRANCH  14  16
ATOM     16  C   LIG    1        3.454  -4.132  -0.969  0.00  0.00    +0.022 C 
ATOM     17  C   LIG    1        2.244  -3.887  -0.442  0.00  0.00    +0.052 C 
ATOM     18 BR   LIG    1        0.760  -5.173  -0.596  0.00  0.00    -0.059 Br
ENDBRANCH  14  16
ENDBRANCH   4   7
BRANCH   6  19
ATOM     19  O   LIG    1        4.721   3.412  -1.323  0.00  0.00    -0.389 OA
ATOM     20  H   LIG    1        4.414   4.123  -0.757  0.00  0.00    +0.210 HD
ENDBRANCH   6  19
ENDBRANCH   1   2
BRANCH   1  21
ATOM     21  O   LIG    1        1.732   0.420  -0.210  0.00  0.00    -0.284 OA
BRANCH  21  22
ATOM     22  P   LIG    1        0.178  -0.076  -0.236  0.00  0.00    +0.462 P 
ATOM     23  O   LIG    1       -0.828   1.018  -0.157  0.00  0.00    -0.228 OA
BRANCH  22  24
ATOM     24  N   LIG    1        0.099  -1.292   0.952  0.00  0.00    -0.199 NA
ATOM     25  H   LIG    1       -0.339  -2.183   0.716  0.00  0.00    +0.135 HD
BRANCH  24  27
ATOM     26  C   LIG    1       -0.863  -1.431   3.237  0.00  0.00    +0.036 C 
ATOM     27  C   LIG    1        0.368  -1.085   2.374  0.00  0.00    +0.171 C 
BRANCH  27  28
ATOM     28  C   LIG    1        1.600  -1.866   2.795  0.00  0.00    +0.324 C 
ATOM     29  O   LIG    1        1.556  -2.906   3.458  0.00  0.00    -0.249 OA
BRANCH  28  30
ATOM     30  O   LIG    1        2.735  -1.281   2.346  0.00  0.00    -0.467 OA
ATOM     31  C   LIG    1        4.004  -1.860   2.615  0.00  0.00    +0.280 C 
ENDBRANCH  28  30
ENDBRANCH  27  28
ENDBRANCH  24  27
ENDBRANCH  22  24
BRANCH  22  32
ATOM     32  O   LIG    1        0.106  -0.949  -1.614  0.00  0.00    -0.413 OA
BRANCH  32  33
ATOM     33  C   LIG    1        0.829  -0.674  -2.745  0.00  0.00    +0.131 A 
ATOM     34  C   LIG    1        1.526  -1.714  -3.361  0.00  0.00    +0.046 A 
ATOM     35  C   LIG    1        2.280  -1.464  -4.504  0.00  0.00    +0.004 A 
ATOM     36  C   LIG    1        2.324  -0.175  -5.034  0.00  0.00    +0.000 A 
ATOM     37  C   LIG    1        1.615   0.864  -4.434  0.00  0.00    +0.004 A 
ATOM     38  C   LIG    1        0.863   0.614  -3.289  0.00  0.00    +0.046 A 
ENDBRANCH  32  33
ENDBRANCH  22  32
ENDBRANCH  21  22
ENDBRANCH   1  21
TORSDOF 12
