REMARK  Name = DB05424
REMARK                            x       y       z     vdW  Elec       q    Type
REMARK                         _______ _______ _______ _____ _____    ______ ____
ROOT
ATOM      1  C   LIG    1        5.666   0.486  -0.050  0.00  0.00    +0.134 A 
ATOM      2  C   LIG    1        4.248   0.335   0.052  0.00  0.00    +0.042 A 
ATOM      3  C   LIG    1        3.549  -0.896  -0.046  0.00  0.00    +0.040 A 
ATOM      4  C   LIG    1        2.153  -0.939   0.073  0.00  0.00    +0.077 A 
ATOM      5  C   LIG    1        1.418   0.241   0.260  0.00  0.00    +0.144 A 
ATOM      6  C   LIG    1        2.094   1.466   0.368  0.00  0.00    +0.076 A 
ATOM      7  C   LIG    1        3.501   1.533   0.265  0.00  0.00    +0.080 A 
ATOM      8  N   LIG    1        4.109   2.748   0.369  0.00  0.00    -0.235 NA
ATOM      9  C   LIG    1        5.458   2.764   0.259  0.00  0.00    +0.223 A 
ATOM     10  N   LIG    1        6.267   1.699   0.058  0.00  0.00    -0.220 NA
ENDROOT
BRANCH   4  11
ATOM     11  N   LIG    1        1.435  -2.146  -0.050  0.00  0.00    -0.279 N 
ATOM     12  H   LIG    1        0.493  -2.046  -0.398  0.00  0.00    +0.155 HD
ATOM     13  C   LIG    1        1.807  -3.377   0.362  0.00  0.00    +0.241 C 
ATOM     14  O   LIG    1        2.870  -3.632   0.934  0.00  0.00    -0.271 OA
BRANCH  13  15
ATOM     15  C   LIG    1        0.813  -4.381   0.058  0.00  0.00    +0.060 C 
ATOM     16  C   LIG    1        0.964  -5.678   0.384  0.00  0.00    +0.013 C 
ENDBRANCH  13  15
ENDBRANCH   4  11
BRANCH   1  17
ATOM     17  N   LIG    1        6.483  -0.647  -0.233  0.00  0.00    -0.299 N 
ATOM     18  H   LIG    1        5.979  -1.520  -0.179  0.00  0.00    +0.154 HD
BRANCH  17  24
ATOM     19 CL   LIG    1       10.528  -3.717   0.246  0.00  0.00    -0.081 Cl
ATOM     20  C   LIG    1        9.819  -2.227  -0.269  0.00  0.00    +0.078 A 
ATOM     21  C   LIG    1       10.599  -1.248  -0.889  0.00  0.00    +0.142 A 
ATOM     22  C   LIG    1       10.011  -0.053  -1.302  0.00  0.00    +0.041 A 
ATOM     23  C   LIG    1        8.649   0.168  -1.093  0.00  0.00    +0.026 A 
ATOM     24  C   LIG    1        7.862  -0.803  -0.459  0.00  0.00    +0.034 A 
ATOM     25  F   LIG    1       11.921  -1.450  -1.097  0.00  0.00    -0.204 F 
ATOM     26  C   LIG    1        8.457  -2.004  -0.062  0.00  0.00    +0.046 A 
ENDBRANCH  17  24
ENDBRANCH   1  17
BRANCH   5  27
ATOM     27  O   LIG    1        0.040   0.136   0.350  0.00  0.00    -0.490 OA
BRANCH  27  28
ATOM     28  C   LIG    1       -0.766   1.303   0.201  0.00  0.00    +0.230 C 
BRANCH  28  29
ATOM     29  C   LIG    1       -2.227   0.886  -0.044  0.00  0.00    +0.056 C 
BRANCH  29  30
ATOM     30  C   LIG    1       -2.444  -0.053  -1.254  0.00  0.00    +0.088 C 
BRANCH  30  31
ATOM     31  N   LIG    1       -1.918   0.476  -2.517  0.00  0.00    -0.298 NA
ATOM     32  C   LIG    1       -2.597   1.703  -2.959  0.00  0.00    +0.112 C 
ATOM     33  C   LIG    1       -2.063   2.183  -4.326  0.00  0.00    +0.175 C 
ATOM     34  O   LIG    1       -2.161   1.135  -5.285  0.00  0.00    -0.377 OA
ATOM     35  C   LIG    1       -1.413  -0.015  -4.906  0.00  0.00    +0.175 C 
ATOM     36  C   LIG    1       -1.928  -0.561  -3.557  0.00  0.00    +0.112 C 
ENDBRANCH  30  31
ENDBRANCH  29  30
ENDBRANCH  28  29
ENDBRANCH  27  28
ENDBRANCH   5  27
TORSDOF 9
