REMARK  Name = DB05737
REMARK                            x       y       z     vdW  Elec       q    Type
REMARK                         _______ _______ _______ _____ _____    ______ ____
ROOT
ATOM      1  C   LIG    1       -1.354   3.575   0.255  0.00  0.00    +0.031 A 
ATOM      2  N   LIG    1       -2.475   2.779   0.075  0.00  0.00    -0.339 N 
ATOM      3  C   LIG    1       -2.102   1.451  -0.041  0.00  0.00    +0.054 A 
ATOM      4  C   LIG    1       -2.893   0.316  -0.267  0.00  0.00    +0.026 A 
ATOM      5  C   LIG    1       -2.251  -0.914  -0.334  0.00  0.00    +0.006 A 
ATOM      6  C   LIG    1       -0.876  -1.025  -0.198  0.00  0.00    +0.046 A 
ATOM      7  C   LIG    1       -0.072   0.102   0.016  0.00  0.00    +0.131 A 
ATOM      8  C   LIG    1       -0.682   1.382   0.117  0.00  0.00    +0.053 A 
ATOM      9  C   LIG    1       -0.222   2.745   0.334  0.00  0.00    +0.059 A 
ENDROOT
BRANCH   1  11
ATOM     10  C   LIG    1       -1.580   5.505   1.895  0.00  0.00    +0.010 C 
ATOM     11  C   LIG    1       -1.520   5.089   0.418  0.00  0.00    +0.051 C 
ENDBRANCH   1  11
BRANCH   9  12
ATOM     12  C   LIG    1        1.165   3.146   0.663  0.00  0.00    +0.249 C 
ATOM     13  O   LIG    1        2.006   2.382   1.134  0.00  0.00    -0.282 OA
BRANCH  12  14
ATOM     14  C   LIG    1        1.681   4.582   0.299  0.00  0.00    +0.282 C 
ATOM     15  N   LIG    1        1.637   4.813  -1.018  0.00  0.00    -0.323 N 
ATOM     16  H   LIG    1        1.950   5.698  -1.388  0.00  0.00    +0.145 HD
ATOM     17  H   LIG    1        1.296   4.102  -1.648  0.00  0.00    +0.145 HD
ATOM     18  O   LIG    1        2.087   5.365   1.156  0.00  0.00    -0.267 OA
ENDBRANCH  12  14
ENDBRANCH   9  12
BRANCH   2  19
ATOM     19  C   LIG    1       -3.860   3.259  -0.042  0.00  0.00    +0.157 C 
BRANCH  19  20
ATOM     20  C   LIG    1       -4.285   3.743  -1.430  0.00  0.00    -0.028 A 
ATOM     21  C   LIG    1       -3.638   3.309  -2.595  0.00  0.00    +0.005 A 
ATOM     22  C   LIG    1       -4.060   3.767  -3.840  0.00  0.00    +0.000 A 
ATOM     23  C   LIG    1       -5.130   4.655  -3.923  0.00  0.00    +0.000 A 
ATOM     24  C   LIG    1       -5.784   5.087  -2.772  0.00  0.00    +0.000 A 
ATOM     25  C   LIG    1       -5.362   4.628  -1.527  0.00  0.00    +0.005 A 
ENDBRANCH  19  20
ENDBRANCH   2  19
BRANCH   7  26
ATOM     26  O   LIG    1        1.304   0.061   0.101  0.00  0.00    -0.480 OA
BRANCH  26  27
ATOM     27  C   LIG    1        1.968  -1.198   0.027  0.00  0.00    +0.349 C 
BRANCH  27  28
ATOM     28  C   LIG    1        3.483  -1.011   0.136  0.00  0.00    +0.345 C 
ATOM     29  O   LIG    1        4.011   0.104   0.162  0.00  0.00    -0.247 OA
BRANCH  28  30
ATOM     30  O   LIG    1        4.131  -2.192   0.194  0.00  0.00    -0.466 OA
ATOM     31  C   LIG    1        5.547  -2.234   0.302  0.00  0.00    +0.280 C 
ENDBRANCH  28  30
ENDBRANCH  27  28
ENDBRANCH  26  27
ENDBRANCH   7  26
TORSDOF 9
