REMARK  Name = DB05642
REMARK                            x       y       z     vdW  Elec       q    Type
REMARK                         _______ _______ _______ _____ _____    ______ ____
ROOT
ATOM      1  C   LIG    1        0.125  -0.059  -1.010  0.00  0.00    +0.051 C 
ATOM      2  C   LIG    1        1.615   0.045  -0.793  0.00  0.00    -0.011 A 
ATOM      3  S   LIG    1        2.644  -1.361  -1.027  0.00  0.00    -0.074 S 
ATOM      4  C   LIG    1        4.069  -0.439  -0.600  0.00  0.00    +0.114 A 
ATOM      5  N   LIG    1        5.298  -0.959  -0.565  0.00  0.00    -0.207 NA
ATOM      6  C   LIG    1        6.296  -0.092  -0.224  0.00  0.00    +0.219 A 
ATOM      7  N   LIG    1        6.107   1.215   0.107  0.00  0.00    -0.214 NA
ATOM      8  C   LIG    1        4.847   1.725   0.066  0.00  0.00    +0.087 A 
ATOM      9  C   LIG    1        3.752   0.909  -0.294  0.00  0.00    +0.034 A 
ATOM     10  C   LIG    1        2.354   1.153  -0.407  0.00  0.00    +0.023 A 
ENDROOT
BRANCH   6  11
ATOM     11  N   LIG    1        7.593  -0.608  -0.106  0.00  0.00    -0.303 N 
ATOM     12  C   LIG    1        8.783   0.273  -0.043  0.00  0.00    +0.089 C 
ATOM     13  C   LIG    1       10.022  -0.342   0.642  0.00  0.00    -0.063 C 
ATOM     14  N   LIG    1       10.388  -1.665  -0.039  0.00  0.00    +0.381 N 
ATOM     15  H   LIG    1       10.640  -1.498  -1.002  0.00  0.00    -0.086 HD
ATOM     16  H   LIG    1       11.182  -2.087   0.422  0.00  0.00    -0.086 HD
ATOM     17  C   LIG    1        9.178  -2.603   0.029  0.00  0.00    -0.063 C 
ATOM     18  C   LIG    1        7.965  -1.933  -0.653  0.00  0.00    +0.089 C 
ENDBRANCH   6  11
BRANCH   8  19
ATOM     19  C   LIG    1        4.710   3.167   0.417  0.00  0.00    +0.036 A 
ATOM     20  C   LIG    1        5.264   3.694   1.597  0.00  0.00    +0.133 A 
ATOM     21  F   LIG    1        5.932   2.896   2.463  0.00  0.00    -0.205 F 
ATOM     22  C   LIG    1        5.122   5.048   1.906  0.00  0.00    +0.039 A 
ATOM     23  C   LIG    1        4.427   5.894   1.044  0.00  0.00    +0.003 A 
ATOM     24  C   LIG    1        3.870   5.386  -0.127  0.00  0.00    +0.001 A 
ATOM     25  C   LIG    1        4.011   4.033  -0.435  0.00  0.00    +0.013 A 
ENDBRANCH   8  19
TORSDOF 2
