REMARK  Name = DB05943
REMARK                            x       y       z     vdW  Elec       q    Type
REMARK                         _______ _______ _______ _____ _____    ______ ____
ROOT
ATOM      1  S   LIG    1       -0.545  -1.557  -2.114  0.00  0.00    +0.050 S 
ATOM      2  O   LIG    1        0.820  -2.076  -2.253  0.00  0.00    -0.155 OA
ATOM      3  O   LIG    1       -0.846  -0.327  -2.857  0.00  0.00    -0.155 OA
ENDROOT
BRANCH   1   5
ATOM      4  C   LIG    1        0.087   0.161   0.015  0.00  0.00    +0.058 C 
ATOM      5  C   LIG    1       -0.740  -1.114  -0.254  0.00  0.00    +0.188 C 
ATOM      6  C   LIG    1       -2.226  -0.898   0.144  0.00  0.00    +0.033 C 
ATOM      7  C   LIG    1       -2.799   0.431  -0.380  0.00  0.00    +0.006 C 
ATOM      8  C   LIG    1       -1.984   1.662   0.074  0.00  0.00    +0.028 C 
ATOM      9  C   LIG    1       -0.487   1.383   0.148  0.00  0.00    -0.014 C 
BRANCH   4  10
ATOM     10  C   LIG    1        1.558   0.040   0.164  0.00  0.00    +0.337 C 
ATOM     11  O   LIG    1        2.318   1.014   0.167  0.00  0.00    -0.245 OA
BRANCH  10  12
ATOM     12  O   LIG    1        1.988  -1.238   0.299  0.00  0.00    -0.462 OA
BRANCH  12  14
ATOM     13  C   LIG    1        3.547  -3.060   0.509  0.00  0.00    +0.048 C 
ATOM     14  C   LIG    1        3.371  -1.542   0.420  0.00  0.00    +0.229 C 
ENDBRANCH  12  14
ENDBRANCH  10  12
ENDBRANCH   4  10
ENDBRANCH   1   5
BRANCH   1  15
ATOM     15  N   LIG    1       -1.617  -2.678  -2.351  0.00  0.00    -0.219 N 
ATOM     16  H   LIG    1       -2.131  -2.998  -1.575  0.00  0.00    +0.173 HD
BRANCH  15  17
ATOM     17  C   LIG    1       -1.883  -3.240  -3.581  0.00  0.00    +0.066 A 
ATOM     18  C   LIG    1       -2.907  -4.205  -3.699  0.00  0.00    +0.066 A 
ATOM     19 CL   LIG    1       -3.849  -4.710  -2.331  0.00  0.00    -0.081 Cl
ATOM     20  C   LIG    1       -3.206  -4.793  -4.931  0.00  0.00    +0.060 A 
ATOM     21  C   LIG    1       -2.495  -4.437  -6.072  0.00  0.00    +0.125 A 
ATOM     22  F   LIG    1       -2.790  -5.009  -7.261  0.00  0.00    -0.205 F 
ATOM     23  C   LIG    1       -1.480  -3.491  -5.984  0.00  0.00    +0.040 A 
ATOM     24  C   LIG    1       -1.181  -2.905  -4.756  0.00  0.00    +0.029 A 
ENDBRANCH  15  17
ENDBRANCH   1  15
TORSDOF 6
