REMARK  Name = DB05446
REMARK                            x       y       z     vdW  Elec       q    Type
REMARK                         _______ _______ _______ _____ _____    ______ ____
ROOT
ATOM      1  C   UNK A  1        1.536   0.022   0.051  0.00  0.00    +0.169 C 
ENDROOT
BRANCH   1   2
ATOM      2  C   UNK A  1        2.001   0.510   1.435  0.00  0.00    +0.235 C 
ATOM      3  N   GLY A  2        3.032   1.373   1.437  0.00  0.00    -0.303 N 
ATOM      4  H   GLY A  2        3.445   1.639   0.555  0.00  0.00    +0.149 HD
ATOM      5  O   UNK A  1        1.449   0.083   2.451  0.00  0.00    -0.274 OA
BRANCH   3   6
ATOM      6  CA  GLY A  2        3.644   1.950   2.643  0.00  0.00    +0.224 C 
BRANCH   6   7
ATOM      7  C   GLY A  2        2.877   3.150   3.263  0.00  0.00    +0.322 C 
ATOM      8  OXT GLY A  2        3.287   3.537   4.381  0.00  0.00    -0.249 OA
BRANCH   7   9
ATOM      9  O   GLY A  2        1.930   3.690   2.643  0.00  0.00    -0.480 OA
ATOM     10  H   GLY A  2        1.516   4.454   2.993  0.00  0.00    +0.295 HD
ENDBRANCH   7   9
ENDBRANCH   6   7
ENDBRANCH   3   6
ENDBRANCH   1   2
BRANCH   1  11
ATOM     11  N   UNK A  1        0.073  -0.063  -0.002  0.00  0.00    -0.303 N 
ATOM     12  H   UNK A  1       -0.313  -0.991   0.092  0.00  0.00    +0.149 HD
ATOM     13  C   UNK A  1       -0.759   0.987  -0.111  0.00  0.00    +0.214 C 
ATOM     14  O   UNK A  1       -0.364   2.148  -0.228  0.00  0.00    -0.276 OA
BRANCH  13  15
ATOM     15  C   UNK A  1       -2.261   0.665  -0.084  0.00  0.00    +0.095 C 
BRANCH  15  16
ATOM     16  C   UNK A  1       -3.148   1.838   0.400  0.00  0.00    +0.004 C 
BRANCH  16  17
ATOM     17  C   UNK A  1       -4.634   1.458   0.631  0.00  0.00    +0.036 C 
BRANCH  17  18
ATOM     18  N   UNK A  1       -5.292   2.566   1.473  0.00  0.00    +0.387 N 
ATOM     19  H   UNK A  1       -4.801   2.670   2.349  0.00  0.00    -0.089 HD
ATOM     20  H   UNK A  1       -5.257   3.446   0.977  0.00  0.00    -0.089 HD
ATOM     21  H   UNK A  1       -6.254   2.330   1.668  0.00  0.00    -0.089 HD
ENDBRANCH  17  18
BRANCH  17  22
ATOM     22  C   UNK A  1       -5.427   1.313  -0.696  0.00  0.00    +0.290 C 
ATOM     23  O   UNK A  1       -5.322   0.212  -1.281  0.00  0.00    -0.253 OA
BRANCH  22  24
ATOM     24  O   UNK A  1       -6.106   2.272  -1.136  0.00  0.00    -0.482 OA
ATOM     25  H   UNK A  1       -6.322   2.989  -0.574  0.00  0.00    +0.295 HD
ENDBRANCH  22  24
ENDBRANCH  17  22
ENDBRANCH  16  17
ENDBRANCH  15  16
ENDBRANCH  13  15
ENDBRANCH   1  11
BRANCH   1  26
ATOM     26  C   UNK A  1        2.205  -1.330  -0.287  0.00  0.00    +0.103 C 
BRANCH  26  27
ATOM     27  S   UNK A  1        1.846  -1.872  -1.990  0.00  0.00    -0.131 S 
BRANCH  27  28
ATOM     28  C   UNK A  1        0.589  -3.148  -1.700  0.00  0.00    +0.225 C 
BRANCH  28  29
ATOM     29  O   UNK A  1        1.059  -4.281  -1.002  0.00  0.00    -0.385 OA
ATOM     30  H   UNK A  1        0.436  -5.000  -1.130  0.00  0.00    +0.211 HD
ENDBRANCH  28  29
ENDBRANCH  27  28
ENDBRANCH  26  27
ENDBRANCH   1  26
TORSDOF 15
