REMARK  Name = DB05714
REMARK                            x       y       z     vdW  Elec       q    Type
REMARK                         _______ _______ _______ _____ _____    ______ ____
ROOT
ATOM      1  C   LIG    1        3.567   0.022  -1.543  0.00  0.00    +0.000 C 
ATOM      2  N   LIG    1        4.189  -1.269  -1.884  0.00  0.00    +0.000 N 
ATOM      3  C   LIG    1        4.309  -2.279  -0.986  0.00  0.00    +0.000 C 
ATOM      4  O   LIG    1        3.940  -2.193   0.186  0.00  0.00    +0.000 OA
ATOM      5  C   LIG    1        4.752  -1.248  -3.239  0.00  0.00    +0.000 C 
ATOM      6  C   LIG    1        4.309   0.078  -3.849  0.00  0.00    +0.000 C 
ATOM      7  C   LIG    1        4.103   0.968  -2.633  0.00  0.00    +0.000 C 
ENDROOT
BRANCH   1  10
ATOM      8  N   LIG    1        1.481  -0.243  -0.290  0.00  0.00    +0.000 N 
ATOM      9  H   LIG    1        2.110  -0.274   0.500  0.00  0.00    +0.000 HD
ATOM     10  C   LIG    1        2.027  -0.059  -1.506  0.00  0.00    +0.000 C 
ATOM     11  O   LIG    1        1.382   0.064  -2.547  0.00  0.00    +0.000 OA
BRANCH   8  12
ATOM     12  C   LIG    1        0.048  -0.231   0.045  0.00  0.00    +0.000 C 
BRANCH  12  13
ATOM     13  B   LIG    1       -0.858  -1.112  -0.930  0.00  0.00    +0.000 B 
BRANCH  13  14
ATOM     14  O   LIG    1       -0.400  -2.310  -1.398  0.00  0.00    +0.000 OA
ATOM     15  H   LIG    1        0.511  -2.471  -1.141  0.00  0.00    +0.000 HD
ENDBRANCH  13  14
BRANCH  13  16
ATOM     16  O   LIG    1       -2.159  -0.769  -1.159  0.00  0.00    +0.000 OA
ATOM     17  H   LIG    1       -2.385   0.064  -0.741  0.00  0.00    +0.000 HD
ENDBRANCH  13  16
ENDBRANCH  12  13
BRANCH  12  18
ATOM     18  C   LIG    1       -0.498   1.204   0.265  0.00  0.00    +0.000 C 
BRANCH  18  19
ATOM     19  C   LIG    1        0.295   2.055   1.281  0.00  0.00    +0.000 C 
BRANCH  19  20
ATOM     20  C   LIG    1       -0.269   3.473   1.466  0.00  0.00    +0.000 C 
BRANCH  20  21
ATOM     21  O   LIG    1       -1.591   3.402   1.984  0.00  0.00    +0.000 OA
ATOM     22  C   LIG    1       -2.192   4.674   2.174  0.00  0.00    +0.000 C 
ENDBRANCH  20  21
ENDBRANCH  19  20
ENDBRANCH  18  19
ENDBRANCH  12  18
ENDBRANCH   8  12
ENDBRANCH   1  10
BRANCH   3  23
ATOM     23  C   LIG    1        4.887  -3.631  -1.488  0.00  0.00    +0.000 C 
BRANCH  23  24
ATOM     24  N   LIG    1        4.157  -4.335  -2.561  0.00  0.00    +0.000 N 
ATOM     25  H   LIG    1        4.693  -4.700  -3.334  0.00  0.00    +0.000 HD
ATOM     26  C   LIG    1        2.770  -4.458  -2.590  0.00  0.00    +0.000 C 
ATOM     27  O   LIG    1        1.984  -4.127  -1.699  0.00  0.00    +0.000 OA
BRANCH  26  28
ATOM     28  O   LIG    1        2.412  -5.015  -3.761  0.00  0.00    +0.000 OA
BRANCH  28  29
ATOM     29  C   LIG    1        1.041  -5.245  -4.069  0.00  0.00    +0.000 C 
BRANCH  29  30
ATOM     30  C   LIG    1        0.905  -5.660  -5.524  0.00  0.00    +0.000 A 
ATOM     31  C   LIG    1        0.144  -4.880  -6.399  0.00  0.00    +0.000 A 
ATOM     32  C   LIG    1        0.017  -5.259  -7.733  0.00  0.00    +0.000 A 
ATOM     33  C   LIG    1        0.649  -6.415  -8.187  0.00  0.00    +0.000 A 
ATOM     34  C   LIG    1        1.407  -7.197  -7.318  0.00  0.00    +0.000 A 
ATOM     35  C   LIG    1        1.534  -6.821  -5.983  0.00  0.00    +0.000 A 
ENDBRANCH  29  30
ENDBRANCH  28  29
ENDBRANCH  26  28
ENDBRANCH  23  24
BRANCH  23  36
ATOM     36  C   LIG    1        5.309  -4.615  -0.370  0.00  0.00    +0.000 C 
BRANCH  36  37
ATOM     37  C   LIG    1        6.304  -5.675  -0.809  0.00  0.00    +0.000 A 
ATOM     38  C   LIG    1        7.684  -5.379  -0.841  0.00  0.00    +0.000 A 
ATOM     39  C   LIG    1        8.583  -6.314  -1.337  0.00  0.00    +0.000 A 
ATOM     40  C   LIG    1        8.128  -7.531  -1.829  0.00  0.00    +0.000 A 
ATOM     41  C   LIG    1        6.769  -7.819  -1.842  0.00  0.00    +0.000 A 
ATOM     42  C   LIG    1        5.854  -6.898  -1.350  0.00  0.00    +0.000 A 
ENDBRANCH  36  37
ENDBRANCH  23  36
ENDBRANCH   3  23
TORSDOF 16
