REMARK  Name = DB05884
REMARK                            x       y       z     vdW  Elec       q    Type
REMARK                         _______ _______ _______ _____ _____    ______ ____
ROOT
ATOM      1  C   LIG    1        2.126  -1.145   0.060  0.00  0.00    +0.093 A 
ATOM      2  C   LIG    1        3.526  -1.164   0.024  0.00  0.00    +0.075 A 
ATOM      3  C   LIG    1        4.190   0.063   0.058  0.00  0.00    +0.138 A 
ATOM      4  C   LIG    1        3.530   1.302   0.126  0.00  0.00    +0.037 A 
ATOM      5  C   LIG    1        2.124   1.294   0.172  0.00  0.00    +0.060 A 
ATOM      6  C   LIG    1        4.571   2.308   0.139  0.00  0.00    +0.090 A 
ATOM      7  C   LIG    1        5.771   1.570   0.080  0.00  0.00    +0.148 A 
ATOM      8  O   LIG    1        5.537   0.227   0.040  0.00  0.00    -0.454 OA
ATOM      9  C   LIG    1        1.424   0.072   0.129  0.00  0.00    +0.144 A 
ENDROOT
BRANCH   7  10
ATOM     10  C   LIG    1        7.217   1.933   0.028  0.00  0.00    +0.018 A 
ATOM     11  C   LIG    1        7.680   2.869  -0.902  0.00  0.00    +0.014 A 
ATOM     12  C   LIG    1        9.033   3.195  -0.948  0.00  0.00    +0.039 A 
ATOM     13  C   LIG    1        9.922   2.584  -0.066  0.00  0.00    +0.123 A 
ATOM     14  C   LIG    1        9.468   1.645   0.858  0.00  0.00    +0.039 A 
ATOM     15  F   LIG    1       11.235   2.902  -0.109  0.00  0.00    -0.205 F 
ATOM     16  C   LIG    1        8.116   1.317   0.903  0.00  0.00    +0.014 A 
ENDBRANCH   7  10
BRANCH   6  17
ATOM     17  C   LIG    1        4.487   3.751   0.237  0.00  0.00    +0.248 C 
ATOM     18  N   LIG    1        3.255   4.249   0.043  0.00  0.00    -0.314 N 
ATOM     19  H   LIG    1        2.510   3.614  -0.201  0.00  0.00    +0.149 HD
ATOM     20  C   LIG    1        2.906   5.664   0.107  0.00  0.00    +0.128 C 
ATOM     21  O   LIG    1        5.472   4.447   0.486  0.00  0.00    -0.270 OA
ENDBRANCH   6  17
BRANCH   1  22
ATOM     22  N   LIG    1        1.386  -2.341   0.029  0.00  0.00    -0.217 N 
ATOM     23  H   LIG    1        0.380  -2.266   0.058  0.00  0.00    +0.173 HD
BRANCH  22  24
ATOM     24  S   LIG    1        2.096  -3.959  -0.128  0.00  0.00    +0.040 S 
ATOM     25  C   LIG    1        0.573  -5.070  -0.136  0.00  0.00    +0.218 C 
ATOM     26  O   LIG    1        2.870  -4.205   1.094  0.00  0.00    -0.155 OA
ATOM     27  O   LIG    1        2.747  -4.013  -1.441  0.00  0.00    -0.155 OA
ENDBRANCH  22  24
ENDBRANCH   1  22
BRANCH   9  28
ATOM     28  O   LIG    1        0.039   0.001   0.177  0.00  0.00    -0.487 OA
BRANCH  28  29
ATOM     29  C   LIG    1       -0.782   1.146  -0.069  0.00  0.00    +0.167 C 
ATOM     30  C   LIG    1       -0.685   1.610  -1.537  0.00  0.00    +0.051 C 
ATOM     31  C   LIG    1       -2.217   0.744   0.299  0.00  0.00    +0.051 C 
ENDBRANCH  28  29
ENDBRANCH   9  28
TORSDOF 6
