REMARK  Name = DB05025
REMARK                            x       y       z     vdW  Elec       q    Type
REMARK                         _______ _______ _______ _____ _____    ______ ____
ROOT
ATOM      1  O   LIG    1        2.431   0.851   0.903  0.00  0.00    -0.390 OA
ENDROOT
BRANCH   1   4
ATOM      2 CL   LIG    1        3.392   1.870   3.304  0.00  0.00    -0.063 Cl
ATOM      3  C   LIG    1        2.902   0.152   2.959  0.00  0.00    +0.154 C 
ATOM      4  N   LIG    1        2.470  -0.219   1.818  0.00  0.00    -0.077 NA
BRANCH   3   5
ATOM      5  C   LIG    1        3.058  -0.769   4.101  0.00  0.00    +0.063 C 
ATOM      6  C   LIG    1        3.211  -2.154   3.903  0.00  0.00    +0.014 C 
ATOM      7  C   LIG    1        3.352  -3.023   4.986  0.00  0.00    +0.019 C 
ATOM      8  C   LIG    1        3.338  -2.502   6.278  0.00  0.00    +0.108 C 
ATOM      9  N   LIG    1        3.190  -1.174   6.458  0.00  0.00    -0.180 NA
ATOM     10  C   LIG    1        3.051  -0.310   5.429  0.00  0.00    +0.119 C 
BRANCH   9  11
ATOM     11  O   LIG    1        3.176  -0.722   7.633  0.00  0.00    -0.312 OA
ATOM     12  H   LIG    1        3.064   0.241   7.608  0.00  0.00    +0.237 HD
ENDBRANCH   9  11
ENDBRANCH   3   5
ENDBRANCH   1   4
BRANCH   1  13
ATOM     13  C   LIG    1        1.863   0.419  -0.330  0.00  0.00    +0.292 C 
BRANCH  13  14
ATOM     14  C   LIG    1        0.338   0.179  -0.230  0.00  0.00    +0.138 C 
BRANCH  14  15
ATOM     15  O   LIG    1       -0.112  -0.311  -1.481  0.00  0.00    -0.390 OA
ATOM     16  H   LIG    1       -1.042  -0.536  -1.410  0.00  0.00    +0.210 HD
ENDBRANCH  14  15
BRANCH  14  17
ATOM     17  C   LIG    1       -0.418   1.476   0.155  0.00  0.00    -0.044 C 
BRANCH  17  18
ATOM     18  N   LIG    1       -1.961   1.313   0.127  0.00  0.00    +0.381 N 
ATOM     19  H   LIG    1       -2.228   0.923  -0.766  0.00  0.00    -0.082 HD
ATOM     20  C   LIG    1       -2.457   0.359   1.244  0.00  0.00    -0.079 C 
ATOM     21  C   LIG    1       -3.987   0.218   1.150  0.00  0.00    -0.019 C 
ATOM     22  C   LIG    1       -4.700   1.579   1.209  0.00  0.00    -0.004 C 
ATOM     23  C   LIG    1       -4.156   2.546   0.145  0.00  0.00    -0.019 C 
ATOM     24  C   LIG    1       -2.628   2.705   0.239  0.00  0.00    -0.079 C 
ENDBRANCH  17  18
ENDBRANCH  14  17
ENDBRANCH  13  14
ENDBRANCH   1  13
TORSDOF 8
