REMARK  Name = DB05511
REMARK                            x       y       z     vdW  Elec       q    Type
REMARK                         _______ _______ _______ _____ _____    ______ ____
ROOT
ATOM      1  C   LIG    1       -3.520   1.262  -0.164  0.00  0.00    +0.150 A 
ATOM      2  C   LIG    1       -2.376   0.468  -0.373  0.00  0.00    +0.147 A 
ATOM      3  C   LIG    1       -1.133   1.015   0.037  0.00  0.00    +0.167 A 
ATOM      4  N   LIG    1       -0.977   2.214   0.617  0.00  0.00    -0.216 NA
ATOM      5  C   LIG    1       -2.146   2.892   0.771  0.00  0.00    +0.225 A 
ATOM      6  N   LIG    1       -0.184   0.057  -0.291  0.00  0.00    -0.285 N 
ATOM      7  C   LIG    1       -0.920  -0.990  -0.817  0.00  0.00    +0.203 A 
ATOM      8  N   LIG    1       -2.209  -0.781  -0.905  0.00  0.00    -0.231 NA
ATOM      9  N   LIG    1       -3.393   2.490   0.414  0.00  0.00    -0.219 NA
ENDROOT
BRANCH   6  10
ATOM     10  C   LIG    1        1.250   0.090  -0.047  0.00  0.00    +0.254 C 
ATOM     11  C   LIG    1        2.116  -0.504  -1.169  0.00  0.00    +0.196 C 
ATOM     12  C   LIG    1        3.361   0.408  -1.131  0.00  0.00    +0.185 C 
ATOM     13  C   LIG    1        3.116   1.376   0.040  0.00  0.00    +0.237 C 
ATOM     14  O   LIG    1        1.701   1.399   0.079  0.00  0.00    -0.339 OA
BRANCH  13  15
ATOM     15  C   LIG    1        3.667   2.787  -0.234  0.00  0.00    +0.244 C 
ATOM     16  N   LIG    1        4.844   3.087   0.344  0.00  0.00    -0.316 N 
ATOM     17  H   LIG    1        5.297   2.386   0.911  0.00  0.00    +0.148 HD
ATOM     18  C   LIG    1        5.545   4.359   0.209  0.00  0.00    +0.128 C 
ATOM     19  O   LIG    1        3.050   3.562  -0.967  0.00  0.00    -0.273 OA
ENDBRANCH  13  15
BRANCH  12  20
ATOM     20  O   LIG    1        4.600  -0.272  -1.004  0.00  0.00    -0.386 OA
ATOM     21  H   LIG    1        4.733  -0.810  -1.789  0.00  0.00    +0.210 HD
ENDBRANCH  12  20
BRANCH  11  22
ATOM     22  O   LIG    1        2.327  -1.888  -0.934  0.00  0.00    -0.385 OA
ATOM     23  H   LIG    1        2.855  -1.984  -0.137  0.00  0.00    +0.210 HD
ENDBRANCH  11  22
ENDBRANCH   6  10
BRANCH   1  24
ATOM     24  N   LIG    1       -4.785   0.783  -0.548  0.00  0.00    -0.323 N 
ATOM     25  H   LIG    1       -4.838  -0.091  -1.051  0.00  0.00    +0.148 HD
BRANCH  24  26
ATOM     26  C   LIG    1       -6.005   1.576  -0.406  0.00  0.00    +0.138 C 
BRANCH  26  32
ATOM     27  I   LIG    1       -6.603   4.384   4.355  0.00  0.00    -0.044 I 
ATOM     28  C   LIG    1       -6.822   2.684   3.157  0.00  0.00    +0.014 A 
ATOM     29  C   LIG    1       -7.411   1.532   3.680  0.00  0.00    +0.014 A 
ATOM     30  C   LIG    1       -7.550   0.397   2.881  0.00  0.00    +0.001 A 
ATOM     31  C   LIG    1       -7.100   0.412   1.561  0.00  0.00    +0.005 A 
ATOM     32  C   LIG    1       -6.512   1.565   1.030  0.00  0.00    -0.029 A 
ATOM     33  C   LIG    1       -6.375   2.701   1.835  0.00  0.00    +0.019 A 
ENDBRANCH  26  32
ENDBRANCH  24  26
ENDBRANCH   1  24
TORSDOF 7
