REMARK  Name = DB05738
REMARK                            x       y       z     vdW  Elec       q    Type
REMARK                         _______ _______ _______ _____ _____    ______ ____
ROOT
ATOM      1  C   LIG    1        1.371  -0.014  -0.073  0.00  0.00    +0.124 A 
ATOM      2  N   LIG    1        2.139   1.144  -0.047  0.00  0.00    -0.323 N 
ATOM      3  C   LIG    1        1.722   2.527  -0.022  0.00  0.00    +0.128 C 
ATOM      4  C   LIG    1        2.174   3.173  -1.323  0.00  0.00    +0.057 C 
ATOM      5  C   LIG    1        3.594   3.719  -1.303  0.00  0.00    -0.042 A 
ATOM      6  C   LIG    1        3.779   4.936  -1.979  0.00  0.00    +0.004 A 
ATOM      7  C   LIG    1        4.988   5.613  -1.952  0.00  0.00    +0.000 A 
ATOM      8  C   LIG    1        6.041   5.086  -1.228  0.00  0.00    +0.000 A 
ATOM      9  C   LIG    1        5.884   3.868  -0.579  0.00  0.00    +0.005 A 
ATOM     10  C   LIG    1        4.693   3.104  -0.626  0.00  0.00    -0.031 A 
ATOM     11  C   LIG    1        4.705   1.691   0.090  0.00  0.00    +0.050 C 
ATOM     12  C   LIG    1        5.968   0.904  -0.468  0.00  0.00    +0.000 C 
ATOM     13  C   LIG    1        6.583  -0.201   0.426  0.00  0.00    -0.081 C 
ATOM     14  N   LIG    1        6.759   0.313   1.861  0.00  0.00    +0.379 N 
ATOM     15  H   LIG    1        7.141  -0.426   2.435  0.00  0.00    -0.086 HD
ATOM     16  H   LIG    1        7.422   1.074   1.871  0.00  0.00    -0.086 HD
ATOM     17  C   LIG    1        5.427   0.786   2.456  0.00  0.00    -0.081 C 
ATOM     18  C   LIG    1        4.907   1.969   1.622  0.00  0.00    +0.000 C 
ATOM     19  C   LIG    1        3.465   0.746  -0.039  0.00  0.00    +0.121 A 
ATOM     20  N   LIG    1        3.542  -0.570  -0.042  0.00  0.00    -0.239 NA
ATOM     21  C   LIG    1        2.314  -1.030  -0.086  0.00  0.00    +0.143 A 
ENDROOT
BRANCH   1  25
ATOM     22  N   LIG    1       -0.567  -1.322   0.128  0.00  0.00    -0.324 N 
ATOM     23  H   LIG    1       -1.560  -1.491   0.055  0.00  0.00    +0.145 HD
ATOM     24  H   LIG    1        0.041  -2.063   0.444  0.00  0.00    +0.145 HD
ATOM     25  C   LIG    1       -0.070  -0.120  -0.179  0.00  0.00    +0.260 C 
ATOM     26  O   LIG    1       -0.788   0.803  -0.554  0.00  0.00    -0.269 OA
ENDBRANCH   1  25
TORSDOF 1
