REMARK  Name = DB05020
REMARK                            x       y       z     vdW  Elec       q    Type
REMARK                         _______ _______ _______ _____ _____    ______ ____
ROOT
ATOM      1  P   LIG    1        1.215  -0.700   1.089  0.00  0.00    +0.364 P 
ATOM      2  O   LIG    1       -0.105  -0.013   1.024  0.00  0.00    -0.256 OA
ENDROOT
BRANCH   1   3
ATOM      3  O   LIG    1        1.155  -2.194   1.740  0.00  0.00    -0.268 OA
BRANCH   3   4
ATOM      4  C   LIG    1        0.190  -3.139   1.300  0.00  0.00    +0.407 C 
BRANCH   4   5
ATOM      5  O   LIG    1        0.300  -3.448  -0.087  0.00  0.00    -0.437 OA
BRANCH   5   6
ATOM      6  C   LIG    1        1.302  -4.240  -0.550  0.00  0.00    +0.314 C 
ATOM      7  O   LIG    1        2.212  -4.700   0.146  0.00  0.00    -0.250 OA
BRANCH   6   8
ATOM      8  C   LIG    1        1.194  -4.529  -2.074  0.00  0.00    +0.059 C 
ATOM      9  C   LIG    1        2.324  -5.488  -2.535  0.00  0.00    +0.022 C 
ATOM     10  C   LIG    1       -0.170  -5.195  -2.384  0.00  0.00    +0.022 C 
ATOM     11  C   LIG    1        1.326  -3.207  -2.867  0.00  0.00    +0.022 C 
ENDBRANCH   6   8
ENDBRANCH   5   6
ENDBRANCH   4   5
ENDBRANCH   3   4
ENDBRANCH   1   3
BRANCH   1  12
ATOM     12  O   LIG    1        1.947  -0.957  -0.347  0.00  0.00    -0.268 OA
BRANCH  12  13
ATOM     13  C   LIG    1        1.836  -0.012  -1.398  0.00  0.00    +0.407 C 
BRANCH  13  14
ATOM     14  O   LIG    1        0.498   0.086  -1.867  0.00  0.00    -0.437 OA
BRANCH  14  15
ATOM     15  C   LIG    1        0.204   0.759  -3.001  0.00  0.00    +0.314 C 
ATOM     16  O   LIG    1        1.030   1.340  -3.710  0.00  0.00    -0.250 OA
BRANCH  15  17
ATOM     17  C   LIG    1       -1.312   0.727  -3.343  0.00  0.00    +0.059 C 
ATOM     18  C   LIG    1       -1.590   1.439  -4.693  0.00  0.00    +0.022 C 
ATOM     19  C   LIG    1       -1.790  -0.744  -3.455  0.00  0.00    +0.022 C 
ATOM     20  C   LIG    1       -2.110   1.453  -2.233  0.00  0.00    +0.022 C 
ENDBRANCH  15  17
ENDBRANCH  14  15
ENDBRANCH  13  14
ENDBRANCH  12  13
ENDBRANCH   1  12
BRANCH   1  21
ATOM     21  C   LIG    1        2.553   0.074   2.088  0.00  0.00    +0.287 C 
BRANCH  21  22
ATOM     22  O   LIG    1        3.247   0.960   1.220  0.00  0.00    -0.360 OA
BRANCH  22  23
ATOM     23  C   LIG    1        3.752   2.142   1.825  0.00  0.00    +0.088 C 
ATOM     24  C   LIG    1        5.105   2.605   1.333  0.00  0.00    +0.040 C 
ATOM     25  C   LIG    1        4.966   2.011   2.718  0.00  0.00    +0.040 C 
BRANCH  23  26
ATOM     26  C   LIG    1        2.698   3.221   2.167  0.00  0.00    +0.159 C 
BRANCH  26  27
ATOM     27  N   LIG    1        1.760   3.424   1.067  0.00  0.00    -0.312 N 
ATOM     28  C   LIG    1        2.024   3.846  -0.223  0.00  0.00    +0.165 A 
ATOM     29  C   LIG    1        0.761   3.866  -0.860  0.00  0.00    +0.126 A 
ATOM     30  C   LIG    1        0.749   4.269  -2.203  0.00  0.00    +0.145 A 
ATOM     31  N   LIG    1        1.905   4.609  -2.832  0.00  0.00    -0.221 NA
ATOM     32  C   LIG    1        3.053   4.545  -2.106  0.00  0.00    +0.215 A 
ATOM     33  N   LIG    1       -0.236   3.474  -0.010  0.00  0.00    -0.233 NA
ATOM     34  N   LIG    1        3.186   4.177  -0.802  0.00  0.00    -0.195 NA
ATOM     35  C   LIG    1        0.394   3.225   1.112  0.00  0.00    +0.201 A 
BRANCH  32  36
ATOM     36  N   LIG    1        4.224   4.896  -2.769  0.00  0.00    -0.327 N 
ATOM     37  H   LIG    1        5.102   4.865  -2.273  0.00  0.00    +0.145 HD
ATOM     38  H   LIG    1        4.177   5.176  -3.738  0.00  0.00    +0.145 HD
ENDBRANCH  32  36
ENDBRANCH  26  27
ENDBRANCH  23  26
ENDBRANCH  22  23
ENDBRANCH  21  22
ENDBRANCH   1  21
TORSDOF 16
