REMARK  Name = DB05732
REMARK                            x       y       z     vdW  Elec       q    Type
REMARK                         _______ _______ _______ _____ _____    ______ ____
ROOT
ATOM      1  C   LIG    1        0.035   0.049   0.000  0.00  0.00    +0.240 C 
ENDROOT
BRANCH   1   2
ATOM      2  C   LIG    1       -0.554   1.477   0.015  0.00  0.00    +0.316 C 
ATOM      3  O   LIG    1       -0.794   2.022  -1.088  0.00  0.00    -0.250 OA
BRANCH   2   4
ATOM      4  O   LIG    1       -0.787   2.001   1.129  0.00  0.00    -0.480 OA
ATOM      5  H   LIG    1       -0.582   1.537   1.917  0.00  0.00    +0.295 HD
ENDBRANCH   2   4
ENDBRANCH   1   2
BRANCH   1   6
ATOM      6  C   LIG    1        1.577  -0.030  -0.015  0.00  0.00    +0.316 C 
ATOM      7  O   LIG    1        2.171  -0.075   1.088  0.00  0.00    -0.250 OA
BRANCH   6   8
ATOM      8  O   LIG    1        2.149  -0.075  -1.129  0.00  0.00    -0.480 OA
ATOM      9  H   LIG    1        1.643  -0.036  -1.917  0.00  0.00    +0.295 HD
ENDBRANCH   6   8
ENDBRANCH   1   6
TORSDOF 4
