REMARK  Name = DB05498
REMARK                            x       y       z     vdW  Elec       q    Type
REMARK                         _______ _______ _______ _____ _____    ______ ____
ROOT
ATOM      1  C   LIG    1       -1.315  -3.791   0.843  0.00  0.00    +0.204 C 
ATOM      2  O   LIG    1       -0.419  -3.305   1.541  0.00  0.00    -0.286 OA
ATOM      3  C   LIG    1       -2.373  -2.834   0.329  0.00  0.00    +0.069 A 
ATOM      4  C   LIG    1       -1.967  -1.583  -0.223  0.00  0.00    +0.046 A 
ATOM      5  C   LIG    1       -2.943  -0.731  -0.768  0.00  0.00    +0.024 A 
ATOM      6  C   LIG    1       -4.287  -1.083  -0.760  0.00  0.00    +0.004 A 
ATOM      7  C   LIG    1       -4.686  -2.291  -0.206  0.00  0.00    +0.028 A 
ATOM      8  C   LIG    1       -3.746  -3.162   0.351  0.00  0.00    +0.101 A 
ATOM      9  S   LIG    1       -4.363  -4.673   1.102  0.00  0.00    +0.002 S 
ATOM     10  O   LIG    1       -3.699  -4.856   2.398  0.00  0.00    -0.169 OA
ATOM     11  O   LIG    1       -5.828  -4.675   1.014  0.00  0.00    -0.169 OA
ATOM     12  C   LIG    1       -3.684  -5.937  -0.111  0.00  0.00    +0.208 C 
ATOM     13  C   LIG    1       -2.189  -6.161   0.029  0.00  0.00    -0.008 A 
ATOM     14  C   LIG    1       -1.576  -7.402  -0.226  0.00  0.00    +0.013 A 
ATOM     15  C   LIG    1       -0.212  -7.440   0.007  0.00  0.00    +0.046 A 
ATOM     16  S   LIG    1        0.366  -5.922   0.581  0.00  0.00    -0.093 S 
ATOM     17  C   LIG    1       -1.227  -5.220   0.465  0.00  0.00    +0.064 A 
ENDROOT
BRANCH   4  18
ATOM     18  N   LIG    1       -0.598  -1.233  -0.323  0.00  0.00    -0.282 N 
ATOM     19  H   LIG    1        0.038  -2.018  -0.322  0.00  0.00    +0.155 HD
ATOM     20  C   LIG    1       -0.025  -0.007  -0.271  0.00  0.00    +0.258 C 
ATOM     21  O   LIG    1       -0.663   1.031  -0.082  0.00  0.00    -0.272 OA
BRANCH  20  22
ATOM     22  C   LIG    1        1.529   0.079  -0.369  0.00  0.00    +0.234 C 
ATOM     23  C   LIG    1        1.967   1.204  -1.340  0.00  0.00    +0.061 C 
BRANCH  22  24
ATOM     24  C   LIG    1        2.163   0.280   1.043  0.00  0.00    +0.427 C 
ATOM     25  F   LIG    1        1.777   1.422   1.617  0.00  0.00    -0.167 F 
ATOM     26  F   LIG    1        3.497   0.301   0.987  0.00  0.00    -0.167 F 
ATOM     27  F   LIG    1        1.838  -0.707   1.884  0.00  0.00    -0.167 F 
ENDBRANCH  22  24
BRANCH  22  28
ATOM     28  O   LIG    1        2.062  -1.136  -0.893  0.00  0.00    -0.373 OA
ATOM     29  H   LIG    1        3.020  -1.073  -0.895  0.00  0.00    +0.211 HD
ENDBRANCH  22  28
ENDBRANCH  20  22
ENDBRANCH   4  18
TORSDOF 4
