REMARK  Name = DB05458
REMARK                            x       y       z     vdW  Elec       q    Type
REMARK                         _______ _______ _______ _____ _____    ______ ____
ROOT
ATOM      1  O   LIG    1        0.091   0.116  -0.023  0.00  0.00    -0.492 OA
ENDROOT
BRANCH   1   2
ATOM      2  C   LIG    1       -0.523   1.354   0.009  0.00  0.00    +0.141 A 
ATOM      3  C   LIG    1        0.169   2.580  -0.009  0.00  0.00    +0.049 A 
ATOM      4  C   LIG    1       -0.536   3.784   0.026  0.00  0.00    +0.023 A 
ATOM      5  C   LIG    1       -1.927   3.738   0.078  0.00  0.00    +0.111 A 
ATOM      6  N   LIG    1       -2.624   2.575   0.097  0.00  0.00    -0.257 NA
ATOM      7  C   LIG    1       -1.927   1.409   0.063  0.00  0.00    +0.080 A 
ATOM      8  C   LIG    1       -2.791   0.158   0.086  0.00  0.00    +0.069 C 
ENDBRANCH   1   2
BRANCH   1   9
ATOM      9  C   LIG    1        1.513   0.038  -0.060  0.00  0.00    +0.213 C 
BRANCH   9  10
ATOM     10  C   LIG    1        1.929  -1.442  -0.052  0.00  0.00    -0.034 C 
ATOM     11  C   LIG    1        1.549  -2.204   1.229  0.00  0.00    -0.014 C 
ATOM     12  C   LIG    1        2.571  -3.325   1.344  0.00  0.00    -0.021 C 
ATOM     13  C   LIG    1        3.866  -2.657   0.895  0.00  0.00    -0.082 C 
ATOM     14  N   LIG    1        3.426  -1.744  -0.258  0.00  0.00    +0.383 N 
ATOM     15  H   LIG    1        3.982  -0.901  -0.284  0.00  0.00    -0.085 HD
ATOM     16  H   LIG    1        3.553  -2.230  -1.135  0.00  0.00    -0.085 HD
ENDBRANCH   9  10
ENDBRANCH   1   9
TORSDOF 3
