REMARK  Name = DB05119
REMARK                            x       y       z     vdW  Elec       q    Type
REMARK                         _______ _______ _______ _____ _____    ______ ____
ROOT
ATOM      1  N   LIG    1        0.386  -0.188   0.636  0.00  0.00    -0.293 N 
ATOM      2  C   LIG    1       -0.490  -1.230   0.727  0.00  0.00    +0.236 C 
ATOM      3  O   LIG    1       -0.118  -2.386   0.940  0.00  0.00    -0.274 OA
ENDROOT
BRANCH   1   4
ATOM      4  C   LIG    1        1.863  -0.376   0.680  0.00  0.00    +0.079 C 
ATOM      5  C   LIG    1        2.687   0.374   1.753  0.00  0.00    +0.038 C 
ATOM      6  C   LIG    1        4.211   0.323   1.518  0.00  0.00    +0.086 C 
ATOM      7  N   LIG    1        4.697  -1.021   1.187  0.00  0.00    -0.300 NA
ATOM      8  C   LIG    1        4.082  -1.488  -0.063  0.00  0.00    +0.086 C 
ATOM      9  C   LIG    1        2.550  -1.614   0.051  0.00  0.00    +0.038 C 
BRANCH   7  10
ATOM     10  C   LIG    1        6.166  -1.023   1.155  0.00  0.00    +0.112 C 
BRANCH  10  11
ATOM     11  C   LIG    1        6.803  -2.423   1.012  0.00  0.00    +0.174 C 
BRANCH  11  12
ATOM     12  O   LIG    1        6.830  -2.824  -0.352  0.00  0.00    -0.382 OA
ATOM     13  C   LIG    1        7.391  -4.112  -0.554  0.00  0.00    +0.194 C 
ENDBRANCH  11  12
ENDBRANCH  10  11
ENDBRANCH   7  10
ENDBRANCH   1   4
BRANCH   1  14
ATOM     14  C   LIG    1       -0.067   1.217   0.502  0.00  0.00    +0.143 C 
BRANCH  14  20
ATOM     15  C   LIG    1        0.842   3.143  -0.851  0.00  0.00    +0.006 A 
ATOM     16  C   LIG    1        1.164   3.747  -2.063  0.00  0.00    +0.009 A 
ATOM     17  C   LIG    1        0.907   3.097  -3.276  0.00  0.00    -0.018 A 
ATOM     18  C   LIG    1        0.314   1.828  -3.249  0.00  0.00    +0.009 A 
ATOM     19  C   LIG    1       -0.008   1.221  -2.039  0.00  0.00    +0.006 A 
ATOM     20  C   LIG    1        0.259   1.876  -0.835  0.00  0.00    -0.030 A 
BRANCH  17  21
ATOM     21  C   LIG    1        1.261   3.742  -4.573  0.00  0.00    -0.018 A 
ATOM     22  C   LIG    1        0.385   3.683  -5.663  0.00  0.00    +0.009 A 
ATOM     23  C   LIG    1        0.715   4.282  -6.875  0.00  0.00    +0.013 A 
ATOM     24  C   LIG    1        1.934   4.953  -7.019  0.00  0.00    +0.055 A 
ATOM     25  C   LIG    1        2.813   5.017  -5.935  0.00  0.00    +0.013 A 
ATOM     26  C   LIG    1        2.478   4.417  -4.724  0.00  0.00    +0.009 A 
BRANCH  24  27
ATOM     27  C   LIG    1        2.323   5.616  -8.339  0.00  0.00    +0.417 C 
ATOM     28  F   LIG    1        3.473   5.101  -8.778  0.00  0.00    -0.166 F 
ATOM     29  F   LIG    1        2.484   6.926  -8.151  0.00  0.00    -0.166 F 
ATOM     30  F   LIG    1        1.402   5.443  -9.289  0.00  0.00    -0.166 F 
ENDBRANCH  24  27
ENDBRANCH  17  21
ENDBRANCH  14  20
ENDBRANCH   1  14
BRANCH   2  31
ATOM     31  C   LIG    1       -2.013  -0.964   0.564  0.00  0.00    +0.218 C 
BRANCH  31  32
ATOM     32  N   LIG    1       -2.821  -2.209   0.505  0.00  0.00    -0.326 N 
ATOM     33  C   LIG    1       -3.482  -2.713   1.643  0.00  0.00    +0.081 A 
ATOM     34  C   LIG    1       -4.492  -3.609   1.536  0.00  0.00    +0.084 A 
ATOM     35  C   LIG    1       -4.949  -4.176   0.274  0.00  0.00    +0.190 A 
ATOM     36  O   LIG    1       -5.911  -4.939   0.175  0.00  0.00    -0.287 OA
ATOM     37  C   LIG    1       -4.092  -3.776  -0.893  0.00  0.00    +0.045 A 
ATOM     38  C   LIG    1       -4.341  -4.356  -2.147  0.00  0.00    +0.014 A 
ATOM     39  C   LIG    1       -3.560  -4.035  -3.254  0.00  0.00    +0.001 A 
ATOM     40  C   LIG    1       -2.515  -3.128  -3.126  0.00  0.00    +0.002 A 
ATOM     41  C   LIG    1       -2.258  -2.534  -1.894  0.00  0.00    +0.026 A 
ATOM     42  C   LIG    1       -3.041  -2.833  -0.763  0.00  0.00    +0.054 A 
BRANCH  33  43
ATOM     43  S   LIG    1       -2.874  -2.113   3.239  0.00  0.00    -0.103 S 
BRANCH  43  44
ATOM     44  C   LIG    1       -3.910  -2.900   4.524  0.00  0.00    +0.114 C 
BRANCH  44  45
ATOM     45  C   LIG    1       -5.369  -2.434   4.585  0.00  0.00    +0.001 A 
ATOM     46  C   LIG    1       -6.327  -3.265   5.186  0.00  0.00    +0.162 A 
ATOM     47  F   LIG    1       -5.965  -4.465   5.701  0.00  0.00    -0.202 F 
ATOM     48  C   LIG    1       -7.664  -2.869   5.258  0.00  0.00    +0.159 A 
ATOM     49  F   LIG    1       -8.583  -3.678   5.832  0.00  0.00    -0.202 F 
ATOM     50  C   LIG    1       -8.056  -1.636   4.739  0.00  0.00    +0.041 A 
ATOM     51  C   LIG    1       -7.112  -0.796   4.152  0.00  0.00    +0.003 A 
ATOM     52  C   LIG    1       -5.777  -1.190   4.079  0.00  0.00    +0.007 A 
ENDBRANCH  44  45
ENDBRANCH  43  44
ENDBRANCH  33  43
ENDBRANCH  31  32
ENDBRANCH   2  31
TORSDOF 13
