REMARK  Name = DB05830
REMARK                            x       y       z     vdW  Elec       q    Type
REMARK                         _______ _______ _______ _____ _____    ______ ____
ROOT
ATOM      1  C   LIG    1        1.363  -0.037   0.019  0.00  0.00    +0.121 C 
ATOM      2  C   LIG    1        2.023  -0.697   1.250  0.00  0.00    +0.032 C 
ATOM      3  C   LIG    1        3.208  -1.529   0.720  0.00  0.00    +0.007 C 
ATOM      4  C   LIG    1        3.308  -1.139  -0.761  0.00  0.00    +0.001 C 
ATOM      5  C   LIG    1        4.059  -2.054  -1.772  0.00  0.00    -0.000 C 
ATOM      6  C   LIG    1        5.465  -2.513  -1.279  0.00  0.00    -0.006 C 
ATOM      7  C   LIG    1        6.415  -1.357  -0.878  0.00  0.00    +0.008 C 
ATOM      8  C   LIG    1        6.126  -3.417  -2.349  0.00  0.00    +0.034 C 
ATOM      9  C   LIG    1        6.200  -2.666  -3.674  0.00  0.00    -0.063 C 
ATOM     10  C   LIG    1        7.375  -2.337  -4.258  0.00  0.00    +0.045 C 
ATOM     11  C   LIG    1        7.492  -1.541  -5.471  0.00  0.00    +0.156 C 
ATOM     12  C   LIG    1        6.219  -0.805  -5.905  0.00  0.00    +0.079 C 
ATOM     13  C   LIG    1        4.966  -1.672  -5.669  0.00  0.00    +0.016 C 
ATOM     14  O   LIG    1        8.571  -1.378  -6.036  0.00  0.00    -0.293 OA
ATOM     15  C   LIG    1        4.821  -2.251  -4.229  0.00  0.00    +0.019 C 
ATOM     16  C   LIG    1        4.111  -1.342  -3.173  0.00  0.00    -0.000 C 
ATOM     17  C   LIG    1        2.682  -0.891  -3.621  0.00  0.00    +0.005 C 
ATOM     18  C   LIG    1        1.932  -0.079  -2.535  0.00  0.00    +0.010 C 
ATOM     19  C   LIG    1        1.849  -0.861  -1.200  0.00  0.00    -0.003 C 
ATOM     20  C   LIG    1        0.954  -2.132  -1.353  0.00  0.00    +0.014 C 
ENDROOT
BRANCH   1  21
ATOM     21  O   LIG    1       -0.022   0.220   0.145  0.00  0.00    -0.391 OA
ATOM     22  H   LIG    1       -0.276   0.861  -0.523  0.00  0.00    +0.210 HD
ENDBRANCH   1  21
TORSDOF 1
