REMARK  Name = DB05467
REMARK                            x       y       z     vdW  Elec       q    Type
REMARK                         _______ _______ _______ _____ _____    ______ ____
ROOT
ATOM      1  C   LIG    1       -4.889  -1.155   0.883  0.00  0.00    +0.016 C 
ATOM      2  C   LIG    1       -4.343  -0.062  -0.075  0.00  0.00    -0.010 C 
ATOM      3  C   LIG    1       -4.770  -0.308  -1.543  0.00  0.00    +0.016 C 
ATOM      4  C   LIG    1       -2.793  -0.011  -0.024  0.00  0.00    -0.038 A 
ATOM      5  C   LIG    1       -2.068  -1.208  -0.133  0.00  0.00    +0.010 A 
ATOM      6  C   LIG    1       -0.676  -1.258  -0.119  0.00  0.00    -0.019 A 
ATOM      7  C   LIG    1        0.050  -0.065   0.000  0.00  0.00    -0.020 A 
ATOM      8  C   LIG    1       -0.660   1.134   0.102  0.00  0.00    +0.012 A 
ATOM      9  C   LIG    1       -2.063   1.205   0.076  0.00  0.00    -0.037 A 
ATOM     10  C   LIG    1       -2.751   2.590   0.212  0.00  0.00    -0.010 C 
ATOM     11  C   LIG    1       -2.642   3.039   1.690  0.00  0.00    +0.016 C 
ATOM     12  C   LIG    1       -2.114   3.619  -0.759  0.00  0.00    +0.016 C 
ATOM     13  C   LIG    1       -4.249   2.500  -0.183  0.00  0.00    +0.012 C 
ATOM     14  C   LIG    1       -4.949   1.279   0.416  0.00  0.00    +0.012 C 
ENDROOT
BRANCH   7  15
ATOM     15  C   LIG    1        1.530  -0.052   0.027  0.00  0.00    +0.009 C 
ATOM     16  C   LIG    1        2.299   0.808   0.727  0.00  0.00    +0.008 C 
BRANCH  16  17
ATOM     17  C   LIG    1        3.777   0.863   0.745  0.00  0.00    -0.025 A 
ATOM     18  C   LIG    1        4.400   1.708   1.666  0.00  0.00    +0.009 A 
ATOM     19  C   LIG    1        5.788   1.791   1.727  0.00  0.00    +0.015 A 
ATOM     20  C   LIG    1        6.584   1.027   0.864  0.00  0.00    +0.059 A 
ATOM     21  C   LIG    1        5.959   0.179  -0.060  0.00  0.00    +0.015 A 
ATOM     22  C   LIG    1        4.570   0.097  -0.118  0.00  0.00    +0.009 A 
BRANCH  20  23
ATOM     23  C   LIG    1        8.091   1.127   0.943  0.00  0.00    +0.337 C 
ATOM     24  O   LIG    1        8.660   1.849   1.762  0.00  0.00    -0.245 OA
BRANCH  23  25
ATOM     25  O   LIG    1        8.771   0.361   0.040  0.00  0.00    -0.477 OA
ATOM     26  H   LIG    1        9.722   0.460   0.126  0.00  0.00    +0.295 HD
ENDBRANCH  23  25
ENDBRANCH  20  23
ENDBRANCH  16  17
ENDBRANCH   7  15
BRANCH   6  27
ATOM     27  C   LIG    1       -0.006  -2.629  -0.235  0.00  0.00    +0.179 C 
BRANCH  27  28
ATOM     28  N   LIG    1        0.108  -3.095  -1.611  0.00  0.00    -0.267 N 
ATOM     29  N   LIG    1        1.084  -2.616  -2.399  0.00  0.00    -0.179 NA
ATOM     30  C   LIG    1        0.867  -3.165  -3.573  0.00  0.00    +0.134 A 
ATOM     31  C   LIG    1       -0.266  -3.986  -3.578  0.00  0.00    +0.041 A 
ATOM     32  C   LIG    1       -0.759  -3.915  -2.289  0.00  0.00    +0.108 A 
ENDBRANCH  27  28
ENDBRANCH   6  27
TORSDOF 6
