REMARK  Name = DB05939
REMARK                            x       y       z     vdW  Elec       q    Type
REMARK                         _______ _______ _______ _____ _____    ______ ____
ROOT
ATOM      1  C   LIG    1       -2.294  -2.966   0.351  0.00  0.00    +0.011 C 
ATOM      2  C   LIG    1       -3.154  -1.729   0.020  0.00  0.00    +0.055 C 
ATOM      3  C   LIG    1       -2.097  -0.665  -0.010  0.00  0.00    +0.040 A 
ATOM      4  N   LIG    1       -1.989   0.694  -0.031  0.00  0.00    -0.281 N 
ATOM      5  H   LIG    1       -2.764   1.342  -0.041  0.00  0.00    +0.189 HD
ATOM      6  N   LIG    1       -0.710   1.098  -0.018  0.00  0.00    -0.170 NA
ATOM      7  C   LIG    1        0.022  -0.010   0.003  0.00  0.00    +0.134 A 
ATOM      8  C   LIG    1       -0.820  -1.140   0.006  0.00  0.00    +0.004 A 
ATOM      9  C   LIG    1       -0.827  -2.647  -0.016  0.00  0.00    +0.039 C 
ENDROOT
BRANCH   7  10
ATOM     10  C   LIG    1        1.501   0.011   0.007  0.00  0.00    +0.200 A 
ATOM     11  N   LIG    1        2.225  -1.086   0.004  0.00  0.00    -0.107 NA
ATOM     12  N   LIG    1        3.533  -0.662   0.011  0.00  0.00    -0.023 NA
ATOM     13  N   LIG    1        3.527   0.707   0.018  0.00  0.00    -0.046 NA
ATOM     14  N   LIG    1        2.215   1.118   0.015  0.00  0.00    -0.238 N 
ATOM     15  H   LIG    1        1.879   2.043   0.018  0.00  0.00    +0.192 HD
ENDBRANCH   7  10
TORSDOF 1
