REMARK  Name = DB05197
REMARK                            x       y       z     vdW  Elec       q    Type
REMARK                         _______ _______ _______ _____ _____    ______ ____
ROOT
ATOM      1  C   LIG    1       -2.798   0.362   0.190  0.00  0.00    +0.124 A 
ATOM      2  C   LIG    1       -2.172  -0.795   0.642  0.00  0.00    +0.046 A 
ATOM      3  C   LIG    1       -0.787  -0.858   0.753  0.00  0.00    +0.019 A 
ATOM      4  C   LIG    1        0.019   0.236   0.400  0.00  0.00    +0.063 A 
ATOM      5  C   LIG    1       -0.601   1.426  -0.043  0.00  0.00    +0.136 A 
ATOM      6  C   LIG    1       -2.004   1.468  -0.146  0.00  0.00    +0.092 A 
ENDROOT
BRANCH   4   7
ATOM      7  C   LIG    1        1.511   0.131   0.578  0.00  0.00    +0.190 C 
ATOM      8  O   LIG    1        2.202   1.123   0.825  0.00  0.00    -0.287 OA
BRANCH   7   9
ATOM      9  C   LIG    1        2.148  -1.171   0.337  0.00  0.00    +0.052 C 
ATOM     10  C   LIG    1        3.445  -1.425   0.618  0.00  0.00    +0.012 C 
BRANCH  10  11
ATOM     11  C   LIG    1        4.152  -2.709   0.419  0.00  0.00    -0.025 A 
ATOM     12  C   LIG    1        5.537  -2.744   0.599  0.00  0.00    +0.011 A 
ATOM     13  C   LIG    1        6.246  -3.930   0.422  0.00  0.00    +0.046 A 
ATOM     14  C   LIG    1        5.574  -5.107   0.061  0.00  0.00    +0.121 A 
ATOM     15  C   LIG    1        4.192  -5.072  -0.119  0.00  0.00    +0.046 A 
ATOM     16  C   LIG    1        3.484  -3.886   0.056  0.00  0.00    +0.011 A 
BRANCH  14  17
ATOM     17  O   LIG    1        6.190  -6.329  -0.133  0.00  0.00    -0.488 OA
BRANCH  17  18
ATOM     18  C   LIG    1        7.601  -6.435   0.027  0.00  0.00    +0.256 C 
BRANCH  18  19
ATOM     19  C   LIG    1        8.044  -7.857  -0.270  0.00  0.00    +0.012 C 
ATOM     20  C   LIG    1        9.010  -8.569   0.350  0.00  0.00    -0.076 C 
ATOM     21  C   LIG    1        9.890  -8.040   1.474  0.00  0.00    +0.038 C 
ATOM     22  C   LIG    1        9.315 -10.002  -0.053  0.00  0.00    +0.038 C 
ENDBRANCH  18  19
ENDBRANCH  17  18
ENDBRANCH  14  17
ENDBRANCH  10  11
ENDBRANCH   7   9
ENDBRANCH   4   7
BRANCH   1  23
ATOM     23  O   LIG    1       -4.177   0.328   0.111  0.00  0.00    -0.488 OA
BRANCH  23  24
ATOM     24  C   LIG    1       -4.883   1.478  -0.343  0.00  0.00    +0.256 C 
BRANCH  24  25
ATOM     25  C   LIG    1       -6.369   1.169  -0.402  0.00  0.00    +0.012 C 
ATOM     26  C   LIG    1       -7.398   1.954  -0.015  0.00  0.00    -0.076 C 
ATOM     27  C   LIG    1       -7.258   3.365   0.539  0.00  0.00    +0.038 C 
ATOM     28  C   LIG    1       -8.836   1.471  -0.120  0.00  0.00    +0.038 C 
ENDBRANCH  24  25
ENDBRANCH  23  24
ENDBRANCH   1  23
BRANCH   5  29
ATOM     29  O   LIG    1        0.201   2.505  -0.386  0.00  0.00    -0.480 OA
BRANCH  29  30
ATOM     30  C   LIG    1       -0.387   3.749  -0.784  0.00  0.00    +0.349 C 
BRANCH  30  31
ATOM     31  C   LIG    1        0.717   4.792  -1.070  0.00  0.00    +0.343 C 
ATOM     32  O   LIG    1        0.321   5.927  -1.419  0.00  0.00    -0.247 OA
BRANCH  31  33
ATOM     33  O   LIG    1        1.924   4.477  -0.950  0.00  0.00    -0.478 OA
ATOM     34  H   LIG    1        2.332   3.931  -1.592  0.00  0.00    +0.295 HD
ENDBRANCH  31  33
ENDBRANCH  30  31
ENDBRANCH  29  30
ENDBRANCH   5  29
TORSDOF 13
