REMARK  Name = DB05398
REMARK                            x       y       z     vdW  Elec       q    Type
REMARK                         _______ _______ _______ _____ _____    ______ ____
ROOT
ATOM      1  C   LIG    1       -0.511   1.699   0.023  0.00  0.00    -0.018 C 
ENDROOT
BRANCH   1   2
ATOM      2  C   LIG    1       -2.055   1.817   0.067  0.00  0.00    -0.075 C 
BRANCH   2   3
ATOM      3  N   LIG    1       -2.633   3.273  -0.008  0.00  0.00    +0.383 N 
ATOM      4  C   LIG    1       -2.226   3.906  -1.368  0.00  0.00    -0.092 C 
ATOM      5  C   LIG    1       -2.054   4.107   1.169  0.00  0.00    -0.092 C 
BRANCH   3   6
ATOM      6  C   LIG    1       -4.191   3.088   0.111  0.00  0.00    +0.047 C 
BRANCH   6   7
ATOM      7  C   LIG    1       -5.078   4.364   0.071  0.00  0.00    +0.288 C 
ATOM      8  O   LIG    1       -4.592   5.509  -0.057  0.00  0.00    -0.253 OA
BRANCH   7   9
ATOM      9  O   LIG    1       -6.306   4.150   0.176  0.00  0.00    -0.482 OA
ATOM     10  H   LIG    1       -6.623   3.547   0.820  0.00  0.00    +0.295 HD
ENDBRANCH   7   9
ENDBRANCH   6   7
ENDBRANCH   3   6
ENDBRANCH   2   3
ENDBRANCH   1   2
BRANCH   1  11
ATOM     11  C   LIG    1       -0.049   0.232   0.054  0.00  0.00    -0.002 C 
BRANCH  11  12
ATOM     12  C   LIG    1        1.483   0.085   0.038  0.00  0.00    -0.000 C 
BRANCH  12  13
ATOM     13  C   LIG    1        1.947  -1.383   0.036  0.00  0.00    -0.000 C 
BRANCH  13  14
ATOM     14  C   LIG    1        3.481  -1.526   0.047  0.00  0.00    -0.000 C 
BRANCH  14  15
ATOM     15  C   LIG    1        3.984  -2.979  -0.066  0.00  0.00    -0.000 C 
BRANCH  15  16
ATOM     16  C   LIG    1        3.626  -3.871   1.141  0.00  0.00    -0.000 C 
BRANCH  16  17
ATOM     17  C   LIG    1        4.270  -5.272   1.105  0.00  0.00    -0.000 C 
BRANCH  17  18
ATOM     18  C   LIG    1        3.765  -6.173  -0.039  0.00  0.00    -0.000 C 
BRANCH  18  19
ATOM     19  C   LIG    1        4.374  -7.585  -0.003  0.00  0.00    -0.003 C 
ATOM     20  C   LIG    1        3.862  -8.486  -1.135  0.00  0.00    +0.004 C 
ENDBRANCH  18  19
ENDBRANCH  17  18
ENDBRANCH  16  17
ENDBRANCH  15  16
ENDBRANCH  14  15
ENDBRANCH  13  14
ENDBRANCH  12  13
ENDBRANCH  11  12
ENDBRANCH   1  11
TORSDOF 14
