REMARK  Name = DB05420
REMARK                            x       y       z     vdW  Elec       q    Type
REMARK                         _______ _______ _______ _____ _____    ______ ____
ROOT
ATOM      1  C   LIG    1       -0.037  -0.044   0.000  0.00  0.00    +0.090 C 
ATOM      2  C   LIG    1        1.478   0.031   0.000  0.00  0.00    +0.147 A 
ATOM      3  O   LIG    1        2.010  -1.223   0.000  0.00  0.00    -0.464 OA
ATOM      4  C   LIG    1        3.362  -1.358   0.000  0.00  0.00    +0.199 A 
ATOM      5  C   LIG    1        4.218  -0.314   0.000  0.00  0.00    +0.092 A 
ATOM      6  C   LIG    1        3.724   1.074   0.000  0.00  0.00    +0.226 A 
ATOM      7  O   LIG    1        4.482   2.045   0.000  0.00  0.00    -0.284 OA
ATOM      8  C   LIG    1        2.243   1.152   0.000  0.00  0.00    +0.202 A 
ENDROOT
BRANCH   8   9
ATOM      9  O   LIG    1        1.744   2.419   0.000  0.00  0.00    -0.501 OA
ATOM     10  H   LIG    1        2.472   3.047   0.000  0.00  0.00    +0.292 HD
ENDBRANCH   8   9
TORSDOF 1
