REMARK  Name = DB05100
REMARK                            x       y       z     vdW  Elec       q    Type
REMARK                         _______ _______ _______ _____ _____    ______ ____
ROOT
ATOM      1  S   LIG    1        2.542   0.352   0.989  0.00  0.00    +0.062 S 
ATOM      2  O   LIG    1        2.823  -1.058   1.286  0.00  0.00    -0.153 OA
ATOM      3  O   LIG    1        3.353   1.428   1.571  0.00  0.00    -0.153 OA
ENDROOT
BRANCH   1   8
ATOM      4  C   LIG    1       -1.383  -0.136   0.274  0.00  0.00    +0.037 C 
ATOM      5  C   LIG    1       -0.850  -0.106  -1.180  0.00  0.00    +0.024 C 
ATOM      6  C   LIG    1       -2.527  -1.169   0.425  0.00  0.00    +0.024 C 
ATOM      7  C   LIG    1       -0.177  -0.431   1.254  0.00  0.00    +0.183 C 
ATOM      8  N   LIG    1        0.829   0.676   1.333  0.00  0.00    -0.163 NA
ATOM      9  C   LIG    1        0.375   2.073   1.571  0.00  0.00    +0.121 C 
ATOM     10  C   LIG    1       -0.675   2.548   0.558  0.00  0.00    +0.087 C 
ATOM     11  S   LIG    1       -2.156   1.494   0.628  0.00  0.00    -0.151 S 
BRANCH   7  12
ATOM     12  C   LIG    1       -0.573  -0.798   2.711  0.00  0.00    +0.256 C 
ATOM     13  O   LIG    1       -1.352  -0.080   3.343  0.00  0.00    -0.272 OA
ATOM     14  N   LIG    1       -0.017  -1.913   3.221  0.00  0.00    -0.196 N 
ATOM     15  H   LIG    1        0.606  -2.567   2.769  0.00  0.00    +0.182 HD
BRANCH  14  16
ATOM     16  O   LIG    1       -0.364  -2.296   4.521  0.00  0.00    -0.295 OA
ATOM     17  H   LIG    1       -0.926  -3.062   4.382  0.00  0.00    +0.241 HD
ENDBRANCH  14  16
ENDBRANCH   7  12
ENDBRANCH   1   8
BRANCH   1  18
ATOM     18  C   LIG    1        2.667   0.539  -0.788  0.00  0.00    +0.106 A 
ATOM     19  C   LIG    1        2.619  -0.582  -1.620  0.00  0.00    +0.032 A 
ATOM     20  C   LIG    1        2.682  -0.422  -3.001  0.00  0.00    +0.048 A 
ATOM     21  C   LIG    1        2.807   0.852  -3.555  0.00  0.00    +0.129 A 
ATOM     22  C   LIG    1        2.838   1.975  -2.719  0.00  0.00    +0.048 A 
ATOM     23  C   LIG    1        2.775   1.818  -1.337  0.00  0.00    +0.032 A 
BRANCH  21  24
ATOM     24  O   LIG    1        2.831   0.963  -4.929  0.00  0.00    -0.456 OA
BRANCH  24  25
ATOM     25  C   LIG    1        3.704   1.813  -5.577  0.00  0.00    +0.131 A 
ATOM     26  C   LIG    1        4.968   2.158  -5.071  0.00  0.00    +0.066 A 
ATOM     27  C   LIG    1        5.786   3.005  -5.822  0.00  0.00    +0.114 A 
ATOM     28  N   LIG    1        5.420   3.506  -7.028  0.00  0.00    -0.263 NA
ATOM     29  C   LIG    1        4.203   3.153  -7.515  0.00  0.00    +0.114 A 
ATOM     30  C   LIG    1        3.327   2.310  -6.829  0.00  0.00    +0.066 A 
ENDBRANCH  24  25
ENDBRANCH  21  24
ENDBRANCH   1  18
TORSDOF 6
