REMARK  Name = DB05038
REMARK                            x       y       z     vdW  Elec       q    Type
REMARK                         _______ _______ _______ _____ _____    ______ ____
ROOT
ATOM      1  N   LIG    1       -0.472   1.819   0.243  0.00  0.00    -0.165 NA
ATOM      2  C   LIG    1       -0.100   0.369   0.274  0.00  0.00    +0.165 C 
ATOM      3  C   LIG    1       -0.873  -0.191  -0.937  0.00  0.00    +0.031 C 
ATOM      4  C   LIG    1       -1.050   0.984  -1.884  0.00  0.00    +0.019 C 
ATOM      5  C   LIG    1       -1.315   2.147  -0.936  0.00  0.00    +0.110 C 
ENDROOT
BRANCH   2   6
ATOM      6  C   LIG    1        1.433   0.278   0.095  0.00  0.00    +0.232 C 
ATOM      7  N   LIG    1        2.103  -0.338   1.085  0.00  0.00    -0.314 N 
ATOM      8  H   LIG    1        1.580  -0.707   1.866  0.00  0.00    +0.149 HD
ATOM      9  O   LIG    1        1.988   0.751  -0.900  0.00  0.00    -0.274 OA
BRANCH   7  10
ATOM     10  C   LIG    1        3.555  -0.478   1.159  0.00  0.00    +0.106 C 
BRANCH  10  11
ATOM     11  C   LIG    1        4.098  -1.688   0.382  0.00  0.00    +0.037 C 
BRANCH  11  12
ATOM     12  C   LIG    1        5.631  -1.816   0.485  0.00  0.00    +0.106 C 
BRANCH  12  13
ATOM     13  N   LIG    1        6.190  -2.904  -0.315  0.00  0.00    -0.311 N 
ATOM     14  H   LIG    1        6.694  -2.631  -1.147  0.00  0.00    +0.149 HD
ATOM     15  C   LIG    1        6.085  -4.215  -0.022  0.00  0.00    +0.244 C 
ATOM     16  O   LIG    1        5.485  -4.633   0.971  0.00  0.00    -0.270 OA
BRANCH  15  17
ATOM     17  C   LIG    1        6.718  -5.178  -1.001  0.00  0.00    +0.037 A 
ATOM     18  C   LIG    1        7.769  -4.784  -1.841  0.00  0.00    +0.014 A 
ATOM     19  C   LIG    1        8.345  -5.692  -2.725  0.00  0.00    +0.016 A 
ATOM     20  C   LIG    1        7.893  -7.021  -2.801  0.00  0.00    +0.061 A 
ATOM     21  C   LIG    1        6.838  -7.404  -1.954  0.00  0.00    +0.016 A 
ATOM     22  C   LIG    1        6.262  -6.499  -1.068  0.00  0.00    +0.014 A 
BRANCH  20  23
ATOM     23  C   LIG    1        8.507  -7.983  -3.734  0.00  0.00    +0.266 C 
ATOM     24  N   LIG    1        8.741  -7.615  -4.990  0.00  0.00    -0.288 N 
ATOM     25  H   LIG    1        8.492  -6.684  -5.293  0.00  0.00    +0.301 HD
ATOM     26  H   LIG    1        9.160  -8.267  -5.636  0.00  0.00    +0.301 HD
BRANCH  23  27
ATOM     27  N   LIG    1        8.816  -9.203  -3.304  0.00  0.00    -0.250 N 
ATOM     28  H   LIG    1        8.630  -9.457  -2.345  0.00  0.00    +0.288 HD
ATOM     29  H   LIG    1        9.239  -9.868  -3.935  0.00  0.00    +0.288 HD
ENDBRANCH  23  27
ENDBRANCH  20  23
ENDBRANCH  15  17
ENDBRANCH  12  13
ENDBRANCH  11  12
ENDBRANCH  10  11
ENDBRANCH   7  10
ENDBRANCH   2   6
BRANCH   1  30
ATOM     30  S   LIG    1       -0.706   2.696   1.759  0.00  0.00    +0.063 S 
ATOM     31  O   LIG    1       -0.897   4.117   1.445  0.00  0.00    -0.153 OA
ATOM     32  O   LIG    1       -1.723   1.973   2.532  0.00  0.00    -0.153 OA
BRANCH  30  35
ATOM     33  C   LIG    1        2.055   3.115   2.112  0.00  0.00    +0.075 A 
ATOM     34 CL   LIG    1        2.024   4.040   0.641  0.00  0.00    -0.081 Cl
ATOM     35  C   LIG    1        0.873   2.536   2.614  0.00  0.00    +0.124 A 
ATOM     36  C   LIG    1        0.920   1.774   3.783  0.00  0.00    +0.031 A 
ATOM     37  C   LIG    1        2.127   1.564   4.438  0.00  0.00    +0.022 A 
ATOM     38  C   LIG    1        3.305   2.119   3.943  0.00  0.00    +0.049 A 
ATOM     39 CL   LIG    1        4.771   1.777   4.798  0.00  0.00    -0.083 Cl
ATOM     40  C   LIG    1        3.278   2.914   2.783  0.00  0.00    +0.028 A 
BRANCH  40  41
ATOM     41  C   LIG    1        4.560   3.550   2.239  0.00  0.00    +0.267 C 
BRANCH  41  42
ATOM     42  O   LIG    1        4.971   2.858   1.061  0.00  0.00    -0.485 OA
BRANCH  42  43
ATOM     43  C   LIG    1        6.091   3.293   0.368  0.00  0.00    +0.147 A 
ATOM     44  C   LIG    1        6.903   4.350   0.806  0.00  0.00    +0.048 A 
ATOM     45  C   LIG    1        8.020   4.753   0.087  0.00  0.00    +0.004 A 
ATOM     46  C   LIG    1        8.367   4.120  -1.097  0.00  0.00    +0.010 A 
ATOM     47  C   LIG    1        7.582   3.048  -1.598  0.00  0.00    +0.007 A 
ATOM     48  C   LIG    1        7.878   2.360  -2.815  0.00  0.00    -0.039 A 
ATOM     49  C   LIG    1        9.087   2.751  -3.655  0.00  0.00    +0.044 C 
ATOM     50  C   LIG    1        7.043   1.325  -3.234  0.00  0.00    +0.027 A 
ATOM     51  C   LIG    1        5.943   0.986  -2.454  0.00  0.00    +0.039 A 
ATOM     52  C   LIG    1        5.009  -0.128  -2.885  0.00  0.00    +0.065 C 
ATOM     53  N   LIG    1        5.637   1.607  -1.288  0.00  0.00    -0.248 NA
ATOM     54  C   LIG    1        6.431   2.630  -0.852  0.00  0.00    +0.113 A 
ENDBRANCH  42  43
ENDBRANCH  41  42
ENDBRANCH  40  41
ENDBRANCH  30  35
ENDBRANCH   1  30
TORSDOF 13
