REMARK  Name = DB05104
REMARK                            x       y       z     vdW  Elec       q    Type
REMARK                         _______ _______ _______ _____ _____    ______ ____
ROOT
ATOM      1  N   LIG    1        0.026  -0.096  -0.045  0.00  0.00    -0.298 N 
ATOM      2  C   LIG    1       -0.433   1.301   0.022  0.00  0.00    +0.132 C 
ATOM      3  C   LIG    1       -0.840  -1.156  -0.078  0.00  0.00    +0.228 C 
ATOM      4  O   LIG    1       -0.440  -2.322  -0.089  0.00  0.00    -0.275 OA
ENDROOT
BRANCH   1   5
ATOM      5  C   LIG    1        1.500  -0.200   0.139  0.00  0.00    +0.089 C 
BRANCH   5   6
ATOM      6  C   LIG    1        1.944  -0.001   1.593  0.00  0.00    -0.029 A 
ATOM      7  C   LIG    1        2.914   0.960   1.893  0.00  0.00    +0.005 A 
ATOM      8  C   LIG    1        3.324   1.151   3.210  0.00  0.00    +0.000 A 
ATOM      9  C   LIG    1        2.761   0.383   4.227  0.00  0.00    +0.000 A 
ATOM     10  C   LIG    1        1.792  -0.575   3.939  0.00  0.00    +0.000 A 
ATOM     11  C   LIG    1        1.383  -0.767   2.622  0.00  0.00    +0.005 A 
ENDBRANCH   5   6
BRANCH   5  12
ATOM     12  C   LIG    1        2.205  -1.423  -0.518  0.00  0.00    -0.051 C 
BRANCH  12  16
ATOM     13  C   LIG    1        5.800  -1.849  -1.700  0.00  0.00    +0.096 C 
ATOM     14  C   LIG    1        5.460  -0.478  -2.286  0.00  0.00    +0.011 C 
ATOM     15  C   LIG    1        4.083  -0.084  -1.730  0.00  0.00    -0.076 C 
ATOM     16  N   LIG    1        3.720  -1.174  -0.699  0.00  0.00    +0.383 N 
ATOM     17  H   LIG    1        4.099  -0.916   0.201  0.00  0.00    -0.082 HD
ATOM     18  C   LIG    1        4.480  -2.418  -1.187  0.00  0.00    -0.047 C 
BRANCH  13  19
ATOM     19  O   LIG    1        6.556  -2.696  -2.540  0.00  0.00    -0.394 OA
ATOM     20  H   LIG    1        6.098  -2.789  -3.378  0.00  0.00    +0.210 HD
ENDBRANCH  13  19
ENDBRANCH  12  16
ENDBRANCH   5  12
ENDBRANCH   1   5
BRANCH   3  21
ATOM     21  C   LIG    1       -2.381  -0.915  -0.104  0.00  0.00    +0.135 C 
BRANCH  21  22
ATOM     22  C   LIG    1       -2.903  -0.587  -1.517  0.00  0.00    -0.031 A 
ATOM     23  C   LIG    1       -3.824   0.456  -1.671  0.00  0.00    +0.005 A 
ATOM     24  C   LIG    1       -4.311   0.786  -2.933  0.00  0.00    +0.000 A 
ATOM     25  C   LIG    1       -3.881   0.071  -4.047  0.00  0.00    +0.000 A 
ATOM     26  C   LIG    1       -2.968  -0.971  -3.911  0.00  0.00    +0.000 A 
ATOM     27  C   LIG    1       -2.480  -1.300  -2.649  0.00  0.00    +0.005 A 
ENDBRANCH  21  22
BRANCH  21  28
ATOM     28  C   LIG    1       -3.160  -2.044   0.600  0.00  0.00    -0.031 A 
ATOM     29  C   LIG    1       -3.554  -1.878   1.934  0.00  0.00    +0.005 A 
ATOM     30  C   LIG    1       -4.244  -2.889   2.597  0.00  0.00    +0.000 A 
ATOM     31  C   LIG    1       -4.540  -4.074   1.929  0.00  0.00    +0.000 A 
ATOM     32  C   LIG    1       -4.149  -4.258   0.605  0.00  0.00    +0.000 A 
ATOM     33  C   LIG    1       -3.458  -3.247  -0.057  0.00  0.00    +0.005 A 
ENDBRANCH  21  28
ENDBRANCH   3  21
TORSDOF 8
