REMARK  Name = DB05408
REMARK                            x       y       z     vdW  Elec       q    Type
REMARK                         _______ _______ _______ _____ _____    ______ ____
ROOT
ATOM      1  C   LIG    1       -0.420   0.995  -0.165  0.00  0.00    +0.234 C 
ATOM      2  O   LIG    1       -0.153   2.112  -0.612  0.00  0.00    -0.274 OA
ATOM      3  N   LIG    1        0.491   0.145   0.341  0.00  0.00    -0.303 N 
ATOM      4  H   LIG    1        0.174  -0.738   0.715  0.00  0.00    +0.149 HD
ENDROOT
BRANCH   1   5
ATOM      5  C   LIG    1       -1.875   0.499  -0.162  0.00  0.00    +0.156 C 
ATOM      6  C   LIG    1       -2.587   0.722  -1.509  0.00  0.00    +0.038 C 
BRANCH   5   9
ATOM      7  C   LIG    1       -3.566   0.654   1.673  0.00  0.00    +0.300 C 
ATOM      8  O   LIG    1       -3.970  -0.509   1.557  0.00  0.00    -0.265 OA
ATOM      9  N   LIG    1       -2.600   1.190   0.902  0.00  0.00    -0.297 N 
ATOM     10  H   LIG    1       -2.322   2.148   1.068  0.00  0.00    +0.150 HD
BRANCH   7  13
ATOM     11  N   LIG    1       -4.892   0.992   3.601  0.00  0.00    -0.277 N 
ATOM     12  H   LIG    1       -5.061   0.008   3.451  0.00  0.00    +0.155 HD
ATOM     13  C   LIG    1       -4.104   1.605   2.686  0.00  0.00    +0.303 C 
ATOM     14  O   LIG    1       -3.861   2.816   2.656  0.00  0.00    -0.265 OA
BRANCH  11  18
ATOM     15  C   LIG    1       -6.957   2.644   6.877  0.00  0.00    +0.000 A 
ATOM     16  C   LIG    1       -7.442   1.499   6.252  0.00  0.00    +0.006 A 
ATOM     17  C   LIG    1       -6.783   0.912   5.152  0.00  0.00    -0.021 A 
ATOM     18  C   LIG    1       -5.596   1.545   4.689  0.00  0.00    +0.038 A 
ATOM     19  C   LIG    1       -5.111   2.692   5.343  0.00  0.00    +0.023 A 
ATOM     20  C   LIG    1       -5.789   3.239   6.425  0.00  0.00    +0.002 A 
BRANCH  17  21
ATOM     21  C   LIG    1       -7.371  -0.383   4.491  0.00  0.00    -0.011 C 
ATOM     22  C   LIG    1       -6.372  -1.565   4.608  0.00  0.00    +0.015 C 
ATOM     23  C   LIG    1       -8.685  -0.872   5.168  0.00  0.00    +0.015 C 
ATOM     24  C   LIG    1       -7.736  -0.132   3.003  0.00  0.00    +0.015 C 
ENDBRANCH  17  21
ENDBRANCH  11  18
ENDBRANCH   7  13
ENDBRANCH   5   9
ENDBRANCH   1   5
BRANCH   3  25
ATOM     25  C   LIG    1        1.913   0.452   0.572  0.00  0.00    +0.153 C 
BRANCH  25  26
ATOM     26  C   LIG    1        2.727  -0.399  -0.402  0.00  0.00    +0.191 C 
ATOM     27  O   LIG    1        3.789  -0.936  -0.081  0.00  0.00    -0.292 OA
BRANCH  26  28
ATOM     28  C   LIG    1        2.221  -0.508  -1.855  0.00  0.00    +0.305 C 
BRANCH  28  29
ATOM     29  O   LIG    1        3.200  -1.054  -2.744  0.00  0.00    -0.479 OA
BRANCH  29  30
ATOM     30  C   LIG    1        4.102  -0.161  -3.280  0.00  0.00    +0.197 A 
ATOM     31  C   LIG    1        5.464  -0.312  -2.992  0.00  0.00    +0.203 A 
ATOM     32  F   LIG    1        5.881  -1.320  -2.191  0.00  0.00    -0.199 F 
ATOM     33  C   LIG    1        6.399   0.573  -3.530  0.00  0.00    +0.165 A 
ATOM     34  F   LIG    1        7.714   0.430  -3.244  0.00  0.00    -0.202 F 
ATOM     35  C   LIG    1        5.982   1.607  -4.367  0.00  0.00    +0.082 A 
ATOM     36  C   LIG    1        4.630   1.751  -4.677  0.00  0.00    +0.165 A 
ATOM     37  F   LIG    1        4.233   2.747  -5.502  0.00  0.00    -0.202 F 
ATOM     38  C   LIG    1        3.691   0.867  -4.143  0.00  0.00    +0.203 A 
ATOM     39  F   LIG    1        2.386   1.003  -4.476  0.00  0.00    -0.199 F 
ENDBRANCH  29  30
ENDBRANCH  28  29
ENDBRANCH  26  28
ENDBRANCH  25  26
BRANCH  25  40
ATOM     40  C   LIG    1        2.364   0.263   2.055  0.00  0.00    +0.150 C 
BRANCH  40  41
ATOM     41  C   LIG    1        1.427   0.896   3.101  0.00  0.00    +0.307 C 
ATOM     42  O   LIG    1        0.556   0.157   3.614  0.00  0.00    -0.251 OA
BRANCH  41  43
ATOM     43  O   LIG    1        1.482   2.138   3.235  0.00  0.00    -0.481 OA
ATOM     44  H   LIG    1        0.930   2.567   3.860  0.00  0.00    +0.295 HD
ENDBRANCH  41  43
ENDBRANCH  40  41
ENDBRANCH  25  40
ENDBRANCH   3  25
TORSDOF 13
