REMARK  Name = DB05590
REMARK                            x       y       z     vdW  Elec       q    Type
REMARK                         _______ _______ _______ _____ _____    ______ ____
ROOT
ATOM      1  N   LIG    1       -0.638   0.007  -0.687  0.00  0.00    +0.383 N 
ATOM      2  H   LIG    1       -0.448  -0.379  -1.601  0.00  0.00    -0.085 HD
ATOM      3  H   LIG    1       -1.509  -0.408  -0.390  0.00  0.00    -0.085 HD
ENDROOT
BRANCH   1   8
ATOM      4  C   LIG    1       -4.553   0.757   2.392  0.00  0.00    +0.121 A 
ATOM      5  C   LIG    1       -3.299   1.303   2.080  0.00  0.00    +0.049 A 
ATOM      6  C   LIG    1       -2.874   1.451   0.755  0.00  0.00    -0.042 A 
ATOM      7  C   LIG    1       -1.530   2.103   0.437  0.00  0.00    +0.020 C 
ATOM      8  C   LIG    1       -0.872   1.529  -0.841  0.00  0.00    -0.067 C 
ATOM      9  C   LIG    1       -1.880   1.730  -1.996  0.00  0.00    -0.011 C 
ATOM     10  C   LIG    1       -3.257   1.052  -1.759  0.00  0.00    +0.034 C 
ATOM     11  C   LIG    1       -3.716   1.022  -0.295  0.00  0.00    -0.044 A 
ATOM     12  C   LIG    1       -4.971   0.494   0.025  0.00  0.00    +0.007 A 
ATOM     13  C   LIG    1       -5.385   0.365   1.347  0.00  0.00    +0.046 A 
BRANCH   4  14
ATOM     14  O   LIG    1       -5.034   0.578   3.675  0.00  0.00    -0.483 OA
BRANCH  14  15
ATOM     15  C   LIG    1       -4.201   0.911   4.787  0.00  0.00    +0.324 C 
BRANCH  15  18
ATOM     16  C   LIG    1       -2.928   1.339   7.406  0.00  0.00    +0.131 C 
ATOM     17  N   LIG    1       -4.263   0.750   7.281  0.00  0.00    -0.305 N 
ATOM     18  C   LIG    1       -4.904   0.525   6.104  0.00  0.00    +0.253 C 
ATOM     19  O   LIG    1       -6.029   0.021   6.054  0.00  0.00    -0.272 OA
ATOM     20  C   LIG    1       -4.860   0.401   8.573  0.00  0.00    +0.131 C 
ENDBRANCH  15  18
ENDBRANCH  14  15
ENDBRANCH   4  14
ENDBRANCH   1   8
BRANCH   1  21
ATOM     21  C   LIG    1        0.474  -0.403   0.297  0.00  0.00    -0.046 C 
BRANCH  21  22
ATOM     22  C   LIG    1        0.658  -1.940   0.313  0.00  0.00    +0.128 C 
BRANCH  22  23
ATOM     23  C   LIG    1        0.856  -2.565  -1.070  0.00  0.00    -0.020 A 
ATOM     24  C   LIG    1        1.929  -2.178  -1.881  0.00  0.00    +0.013 A 
ATOM     25  C   LIG    1        2.105  -2.735  -3.153  0.00  0.00    -0.003 A 
ATOM     26  C   LIG    1        1.194  -3.699  -3.612  0.00  0.00    +0.120 A 
ATOM     27  C   LIG    1        0.125  -4.089  -2.804  0.00  0.00    +0.046 A 
ATOM     28  C   LIG    1       -0.044  -3.525  -1.540  0.00  0.00    +0.009 A 
BRANCH  26  29
ATOM     29  O   LIG    1        1.330  -4.274  -4.851  0.00  0.00    -0.506 OA
ATOM     30  H   LIG    1        0.650  -4.924  -5.041  0.00  0.00    +0.292 HD
ENDBRANCH  26  29
BRANCH  25  31
ATOM     31  C   LIG    1        3.282  -2.279  -4.011  0.00  0.00    +0.066 C 
BRANCH  31  32
ATOM     32  C   LIG    1        4.462  -3.265  -3.970  0.00  0.00    +0.160 C 
BRANCH  32  33
ATOM     33  O   LIG    1        5.532  -2.782  -4.753  0.00  0.00    -0.395 OA
ATOM     34  H   LIG    1        6.251  -3.418  -4.713  0.00  0.00    +0.209 HD
ENDBRANCH  32  33
ENDBRANCH  31  32
ENDBRANCH  25  31
ENDBRANCH  22  23
BRANCH  22  35
ATOM     35  O   LIG    1        1.743  -2.220   1.173  0.00  0.00    -0.389 OA
ATOM     36  H   LIG    1        1.790  -3.170   1.306  0.00  0.00    +0.210 HD
ENDBRANCH  22  35
ENDBRANCH  21  22
ENDBRANCH   1  21
TORSDOF 12
