REMARK  Name = DB05519
REMARK                            x       y       z     vdW  Elec       q    Type
REMARK                         _______ _______ _______ _____ _____    ______ ____
ROOT
ATOM      1  C   LIG    1       -0.215  -0.021  -0.143  0.00  0.00    +0.197 C 
ATOM      2  O   LIG    1       -0.831  -1.088  -0.107  0.00  0.00    -0.287 OA
ENDROOT
BRANCH   1   3
ATOM      3  C   LIG    1       -0.975   1.234  -0.135  0.00  0.00    +0.071 A 
ATOM      4  C   LIG    1       -2.263   1.425  -0.747  0.00  0.00    +0.031 A 
ATOM      5  C   LIG    1       -2.617   2.763  -0.462  0.00  0.00    +0.136 A 
ATOM      6  C   LIG    1       -3.809   3.351  -0.900  0.00  0.00    +0.047 A 
ATOM      7  C   LIG    1       -4.670   2.551  -1.652  0.00  0.00    +0.004 A 
ATOM      8  C   LIG    1       -4.351   1.226  -1.949  0.00  0.00    +0.001 A 
ATOM      9  O   LIG    1       -1.660   3.373   0.288  0.00  0.00    -0.458 OA
ATOM     10  C   LIG    1       -3.157   0.648  -1.508  0.00  0.00    +0.012 A 
ATOM     11  C   LIG    1       -0.681   2.448   0.510  0.00  0.00    +0.128 A 
BRANCH  11  12
ATOM     12  C   LIG    1        0.437   2.944   1.411  0.00  0.00    +0.195 C 
BRANCH  12  13
ATOM     13  C   LIG    1        0.486   2.208   2.749  0.00  0.00    +0.315 C 
ATOM     14  O   LIG    1       -0.393   2.365   3.598  0.00  0.00    -0.250 OA
BRANCH  13  15
ATOM     15  O   LIG    1        1.566   1.398   2.858  0.00  0.00    -0.461 OA
BRANCH  15  16
ATOM     16  C   LIG    1        1.853   0.685   4.063  0.00  0.00    +0.173 C 
ATOM     17  C   LIG    1        2.723  -0.532   3.708  0.00  0.00    +0.052 C 
BRANCH  16  18
ATOM     18  C   LIG    1        2.503   1.603   5.128  0.00  0.00    +0.041 C 
ATOM     19  C   LIG    1        3.816   2.276   4.691  0.00  0.00    +0.007 C 
ENDBRANCH  16  18
ENDBRANCH  15  16
ENDBRANCH  13  15
ENDBRANCH  12  13
ENDBRANCH  11  12
ENDBRANCH   1   3
BRANCH   1  20
ATOM     20  C   LIG    1        1.284  -0.005  -0.203  0.00  0.00    +0.025 A 
ATOM     21  C   LIG    1        2.007  -1.123   0.234  0.00  0.00    +0.029 A 
ATOM     22  C   LIG    1        3.401  -1.137   0.189  0.00  0.00    +0.057 A 
ATOM     23  I   LIG    1        4.425  -2.809   0.926  0.00  0.00    -0.040 I 
ATOM     24  C   LIG    1        4.097  -0.039  -0.329  0.00  0.00    +0.147 A 
ATOM     25  C   LIG    1        3.385   1.069  -0.797  0.00  0.00    +0.057 A 
ATOM     26  I   LIG    1        4.375   2.750  -1.559  0.00  0.00    -0.040 I 
ATOM     27  C   LIG    1        1.991   1.074  -0.753  0.00  0.00    +0.029 A 
BRANCH  24  28
ATOM     28  O   LIG    1        5.469  -0.046  -0.353  0.00  0.00    -0.492 OA
BRANCH  28  29
ATOM     29  C   LIG    1        6.044  -0.585  -1.541  0.00  0.00    +0.211 C 
BRANCH  29  30
ATOM     30  C   LIG    1        7.479  -1.066  -1.257  0.00  0.00    -0.037 C 
BRANCH  30  31
ATOM     31  N   LIG    1        8.327  -0.001  -0.510  0.00  0.00    +0.382 N 
ATOM     32  H   LIG    1        7.836   0.187   0.353  0.00  0.00    -0.082 HD
BRANCH  31  33
ATOM     33  C   LIG    1        9.722  -0.527  -0.089  0.00  0.00    -0.082 C 
ATOM     34  C   LIG    1        9.611  -1.574   1.032  0.00  0.00    -0.017 C 
ENDBRANCH  31  33
BRANCH  31  35
ATOM     35  C   LIG    1        8.415   1.371  -1.230  0.00  0.00    -0.082 C 
ATOM     36  C   LIG    1        9.085   1.278  -2.613  0.00  0.00    -0.017 C 
ENDBRANCH  31  35
ENDBRANCH  30  31
ENDBRANCH  29  30
ENDBRANCH  28  29
ENDBRANCH  24  28
ENDBRANCH   1  20
TORSDOF 13
