REMARK  Name = DB05154
REMARK                            x       y       z     vdW  Elec       q    Type
REMARK                         _______ _______ _______ _____ _____    ______ ____
ROOT
ATOM      1  O   LIG    1        0.059   0.137   0.361  0.00  0.00    -0.367 OA
ENDROOT
BRANCH   1   2
ATOM      2  C   LIG    1       -0.590   1.404   0.251  0.00  0.00    +0.176 C 
ATOM      3  C   LIG    1       -1.569   1.552   1.445  0.00  0.00    +0.265 C 
ATOM      4  O   LIG    1       -2.547   0.501   1.449  0.00  0.00    -0.461 OA
ATOM      5  C   LIG    1       -3.103   0.243   0.216  0.00  0.00    +0.300 A 
ATOM      6  N   LIG    1       -4.181  -0.487   0.076  0.00  0.00    -0.171 NA
ATOM      7  C   LIG    1       -4.399  -0.526  -1.236  0.00  0.00    +0.231 A 
ATOM      8  C   LIG    1       -3.413   0.190  -1.922  0.00  0.00    +0.143 A 
ATOM      9  N   LIG    1       -2.540   0.651  -0.973  0.00  0.00    -0.296 N 
ATOM     10  C   LIG    1       -1.374   1.525  -1.085  0.00  0.00    +0.161 C 
BRANCH   7  11
ATOM     11  N   LIG    1       -5.516  -1.218  -1.808  0.00  0.00    +0.027 N 
ATOM     12  O   LIG    1       -5.628  -1.195  -3.030  0.00  0.00    -0.128 OA
BRANCH  11  13
ATOM     13  O   LIG    1       -6.298  -1.793  -1.055  0.00  0.00    -0.395 OA
ATOM     14  H   LIG    1       -7.036  -2.252  -1.406  0.00  0.00    +0.329 HD
ENDBRANCH  11  13
ENDBRANCH   7  11
ENDBRANCH   1   2
BRANCH   1  15
ATOM     15  C   LIG    1        1.306   0.020  -0.315  0.00  0.00    +0.195 C 
BRANCH  15  19
ATOM     16  C   LIG    1        2.737  -4.041   0.048  0.00  0.00    +0.130 A 
ATOM     17  C   LIG    1        2.461  -3.279   1.194  0.00  0.00    +0.046 A 
ATOM     18  C   LIG    1        2.001  -1.970   1.074  0.00  0.00    +0.009 A 
ATOM     19  C   LIG    1        1.808  -1.410  -0.190  0.00  0.00    -0.022 A 
ATOM     20  C   LIG    1        2.080  -2.162  -1.334  0.00  0.00    +0.009 A 
ATOM     21  C   LIG    1        2.541  -3.470  -1.211  0.00  0.00    +0.046 A 
BRANCH  16  22
ATOM     22  O   LIG    1        3.197  -5.345   0.062  0.00  0.00    -0.406 OA
BRANCH  22  24
ATOM     23  F   LIG    1        3.894  -7.234   1.004  0.00  0.00    -0.133 F 
ATOM     24  C   LIG    1        3.451  -6.013   1.298  0.00  0.00    +0.575 C 
ATOM     25  F   LIG    1        4.403  -5.400   2.004  0.00  0.00    -0.133 F 
ATOM     26  F   LIG    1        2.339  -6.152   2.022  0.00  0.00    -0.133 F 
ENDBRANCH  22  24
ENDBRANCH  16  22
ENDBRANCH  15  19
ENDBRANCH   1  15
TORSDOF 7
