REMARK  Name = DB05339
REMARK                            x       y       z     vdW  Elec       q    Type
REMARK                         _______ _______ _______ _____ _____    ______ ____
ROOT
ATOM      1  N   LIG    1       -0.676   1.306  -0.027  0.00  0.00    +0.382 N 
ATOM      2  H   LIG    1       -0.361   1.704   0.847  0.00  0.00    -0.086 HD
ATOM      3  H   LIG    1       -0.219   1.804  -0.778  0.00  0.00    -0.086 HD
ENDROOT
BRANCH   1   4
ATOM      4  C   LIG    1       -2.194   1.523  -0.142  0.00  0.00    -0.034 C 
BRANCH   4  14
ATOM      5  O   LIG    1       -1.965   3.582   1.209  0.00  0.00    -0.484 OA
ATOM      6  C   LIG    1       -2.683   3.304   2.358  0.00  0.00    +0.162 A 
ATOM      7  C   LIG    1       -2.048   3.488   3.587  0.00  0.00    +0.049 A 
ATOM      8  C   LIG    1       -2.753   3.253   4.769  0.00  0.00    +0.004 A 
ATOM      9  C   LIG    1       -4.088   2.843   4.723  0.00  0.00    +0.004 A 
ATOM     10  C   LIG    1       -4.729   2.665   3.495  0.00  0.00    +0.049 A 
ATOM     11  C   LIG    1       -4.029   2.905   2.312  0.00  0.00    +0.162 A 
ATOM     12  O   LIG    1       -4.680   2.668   1.117  0.00  0.00    -0.485 OA
ATOM     13  C   LIG    1       -4.054   3.299  -0.005  0.00  0.00    +0.271 C 
ATOM     14  C   LIG    1       -2.527   3.026   0.008  0.00  0.00    +0.194 C 
ENDBRANCH   4  14
ENDBRANCH   1   4
BRANCH   1  15
ATOM     15  C   LIG    1       -0.256  -0.170  -0.078  0.00  0.00    -0.079 C 
BRANCH  15  16
ATOM     16  C   LIG    1        1.273  -0.265   0.016  0.00  0.00    +0.022 C 
BRANCH  16  17
ATOM     17  C   LIG    1        1.774  -1.715  -0.011  0.00  0.00    +0.227 C 
BRANCH  17  18
ATOM     18  O   LIG    1        3.197  -1.703   0.062  0.00  0.00    -0.492 OA
BRANCH  18  19
ATOM     19  C   LIG    1        3.886  -2.900   0.027  0.00  0.00    +0.124 A 
ATOM     20  C   LIG    1        5.290  -2.815   0.086  0.00  0.00    +0.049 A 
ATOM     21  C   LIG    1        6.095  -3.962   0.050  0.00  0.00    +0.053 A 
ATOM     22  C   LIG    1        5.454  -5.192  -0.035  0.00  0.00    +0.166 A 
ATOM     23  C   LIG    1        4.093  -5.292  -0.091  0.00  0.00    +0.170 A 
ATOM     24  O   LIG    1        3.742  -6.599  -0.205  0.00  0.00    -0.452 OA
ATOM     25  C   LIG    1        4.923  -7.327  -0.002  0.00  0.00    +0.466 C 
ATOM     26  O   LIG    1        6.000  -6.434  -0.110  0.00  0.00    -0.453 OA
ATOM     27  C   LIG    1        3.273  -4.168  -0.067  0.00  0.00    +0.095 A 
ENDBRANCH  18  19
ENDBRANCH  17  18
ENDBRANCH  16  17
ENDBRANCH  15  16
ENDBRANCH   1  15
TORSDOF 7
