REMARK  Name = DB05806
REMARK                            x       y       z     vdW  Elec       q    Type
REMARK                         _______ _______ _______ _____ _____    ______ ____
ROOT
ATOM      1  C   LIG    1        2.069  -1.346  -0.008  0.00  0.00    +0.000 A 
ATOM      2  C   LIG    1        2.361  -1.943   1.266  0.00  0.00    +0.000 A 
ATOM      3  C   LIG    1        2.165  -1.293   2.518  0.00  0.00    +0.000 A 
ATOM      4  C   LIG    1        2.477  -1.940   3.711  0.00  0.00    +0.000 A 
ATOM      5  C   LIG    1        2.985  -3.233   3.705  0.00  0.00    +0.000 A 
ATOM      6  C   LIG    1        3.188  -3.907   2.505  0.00  0.00    +0.000 A 
ATOM      7  C   LIG    1        2.881  -3.280   1.273  0.00  0.00    +0.000 A 
ATOM      8  N   LIG    1        3.094  -3.986   0.128  0.00  0.00    +0.000 NA
ATOM      9  C   LIG    1        2.792  -3.385  -1.046  0.00  0.00    +0.000 A 
ATOM     10  C   LIG    1        2.942  -3.983  -2.376  0.00  0.00    +0.000 A 
ATOM     11  C   LIG    1        3.390  -5.190  -2.768  0.00  0.00    +0.000 A 
ATOM     12  C   LIG    1        3.414  -5.497  -4.197  0.00  0.00    +0.000 A 
ATOM     13  C   LIG    1        2.953  -4.547  -5.059  0.00  0.00    +0.000 A 
ATOM     14  C   LIG    1        2.909  -4.842  -6.560  0.00  0.00    +0.000 C 
ATOM     15  O   LIG    1        3.870  -5.809  -7.011  0.00  0.00    +0.000 OA
ATOM     16  C   LIG    1        4.330  -6.829  -6.225  0.00  0.00    +0.000 C 
ATOM     17  O   LIG    1        5.103  -7.614  -6.774  0.00  0.00    +0.000 OA
ATOM     18  C   LIG    1        2.477  -3.223  -4.615  0.00  0.00    +0.000 A 
ATOM     19  O   LIG    1        2.077  -2.358  -5.397  0.00  0.00    +0.000 OA
ATOM     20  C   LIG    1        3.875  -6.855  -4.740  0.00  0.00    +0.000 C 
ATOM     21  N   LIG    1        2.505  -3.022  -3.258  0.00  0.00    +0.000 N 
ATOM     22  C   LIG    1        2.076  -1.782  -2.617  0.00  0.00    +0.000 C 
ATOM     23  C   LIG    1        2.291  -2.102  -1.162  0.00  0.00    +0.000 A 
ENDROOT
BRANCH  20  24
ATOM     24  C   LIG    1        2.762  -7.931  -4.541  0.00  0.00    +0.000 C 
ATOM     25  C   LIG    1        1.426  -7.687  -5.272  0.00  0.00    +0.000 C 
ENDBRANCH  20  24
BRANCH  20  26
ATOM     26  O   LIG    1        4.974  -7.335  -3.977  0.00  0.00    +0.000 OA
ATOM     27  H   LIG    1        5.697  -6.707  -4.054  0.00  0.00    +0.000 HD
ENDBRANCH  20  26
BRANCH   1  28
ATOM     28  C   LIG    1        1.516   0.076  -0.089  0.00  0.00    +0.000 C 
BRANCH  28  29
ATOM     29  C   LIG    1       -0.005   0.136   0.131  0.00  0.00    +0.000 C 
BRANCH  29  30
ATOM     30 SI   LIG    1       -0.709   1.889   0.106  0.00  0.00    +0.000 Si
ATOM     31  C   LIG    1       -0.241   2.745  -1.508  0.00  0.00    +0.000 C 
ATOM     32  C   LIG    1       -0.014   2.866   1.561  0.00  0.00    +0.000 C 
ATOM     33  C   LIG    1       -2.586   1.806   0.246  0.00  0.00    +0.000 C 
ENDBRANCH  29  30
ENDBRANCH  28  29
ENDBRANCH   1  28
TORSDOF 5
