REMARK  Name = DB05992
REMARK                            x       y       z     vdW  Elec       q    Type
REMARK                         _______ _______ _______ _____ _____    ______ ____
ROOT
ATOM      1  C   UNK A  1        2.027   0.774   0.973  0.00  0.00    +0.090 A 
ATOM      2  N   UNK A  1        1.296   1.008   2.073  0.00  0.00    -0.320 N 
ATOM      3  H   UNK A  1        0.295   0.845   2.022  0.00  0.00    +0.169 HD
ATOM      4  C   PHE A  2        1.779   1.471   3.337  0.00  0.00    +0.273 A 
ATOM      5  O   PHE A  2        1.027   1.646   4.298  0.00  0.00    -0.266 OA
ATOM      6  CA  PHE A  2        3.237   1.697   3.316  0.00  0.00    +0.108 A 
ATOM      7  CB  PHE A  2        3.805   2.143   4.469  0.00  0.00    +0.039 C 
ATOM      8  N   PHE A  2        4.015   1.440   2.165  0.00  0.00    -0.317 N 
ATOM      9  H   PHE A  2        4.985   1.595   2.216  0.00  0.00    +0.169 HD
ATOM     10  C   UNK A  1        3.509   1.000   1.020  0.00  0.00    +0.269 A 
ATOM     11  O   UNK A  1        4.178   0.769   0.012  0.00  0.00    -0.266 OA
ENDROOT
BRANCH   7  12
ATOM     12  CG  PHE A  2        5.221   2.492   4.735  0.00  0.00    -0.023 A 
ATOM     13  CD2 PHE A  2        5.779   2.116   5.961  0.00  0.00    +0.008 A 
ATOM     14  CE2 PHE A  2        7.104   2.427   6.256  0.00  0.00    +0.001 A 
ATOM     15  CZ  PHE A  2        7.873   3.121   5.325  0.00  0.00    +0.000 A 
ATOM     16  CE1 PHE A  2        7.328   3.507   4.104  0.00  0.00    +0.001 A 
ATOM     17  CD1 PHE A  2        6.003   3.196   3.810  0.00  0.00    +0.008 A 
ENDBRANCH   7  12
BRANCH   1  18
ATOM     18  C   UNK A  1        1.448   0.276  -0.339  0.00  0.00    +0.116 C 
BRANCH  18  24
ATOM     19  C   UNK A  1       -0.866  -1.005  -0.128  0.00  0.00    +0.044 A 
ATOM     20  N   UNK A  1       -2.145  -0.521  -0.261  0.00  0.00    -0.348 N 
ATOM     21  H   UNK A  1       -2.997  -1.058  -0.185  0.00  0.00    +0.167 HD
ATOM     22  C   UNK A  1       -2.050   0.816  -0.506  0.00  0.00    +0.197 A 
ATOM     23  N   UNK A  1       -0.810   1.220  -0.549  0.00  0.00    -0.240 NA
ATOM     24  C   UNK A  1       -0.070   0.139  -0.329  0.00  0.00    +0.068 A 
BRANCH  19  26
ATOM     25  C   UNK A  1        0.041  -3.129  -1.116  0.00  0.00    +0.017 C 
ATOM     26  C   UNK A  1       -0.550  -2.482   0.155  0.00  0.00    +0.004 C 
ATOM     27  C   UNK A  1        0.466  -2.599   1.316  0.00  0.00    +0.017 C 
ATOM     28  C   UNK A  1       -1.824  -3.268   0.562  0.00  0.00    +0.017 C 
ENDBRANCH  19  26
ENDBRANCH  18  24
ENDBRANCH   1  18
TORSDOF 4
