REMARK  Name = DB05351
REMARK                            x       y       z     vdW  Elec       q    Type
REMARK                         _______ _______ _______ _____ _____    ______ ____
ROOT
ATOM      1  C   LIG    1       -0.233   2.386  -0.255  0.00  0.00    +0.049 C 
ATOM      2  C   LIG    1       -0.821   1.090   0.300  0.00  0.00    +0.013 A 
ATOM      3  C   LIG    1       -2.131   1.056   0.816  0.00  0.00    +0.060 A 
ATOM      4  N   LIG    1       -2.697  -0.077   1.307  0.00  0.00    -0.258 NA
ATOM      5  C   LIG    1       -1.965  -1.214   1.295  0.00  0.00    +0.114 A 
ATOM      6  C   LIG    1       -0.663  -1.271   0.804  0.00  0.00    +0.065 A 
ATOM      7  C   LIG    1       -0.071  -0.102   0.294  0.00  0.00    +0.127 A 
ENDROOT
BRANCH   3   8
ATOM      8  C   LIG    1       -3.034   2.283   0.863  0.00  0.00    +0.167 C 
BRANCH   8   9
ATOM      9  S   LIG    1       -3.965   2.445  -0.735  0.00  0.00    +0.095 S 
ATOM     10  O   LIG    1       -4.997   1.315  -0.770  0.00  0.00    -0.249 OA
BRANCH   9  11
ATOM     11  C   LIG    1       -4.920   3.944  -0.280  0.00  0.00    +0.198 A 
ATOM     12  N   LIG    1       -5.687   4.111   0.769  0.00  0.00    -0.220 NA
ATOM     13  C   LIG    1       -6.174   5.385   0.635  0.00  0.00    +0.090 A 
ATOM     14  C   LIG    1       -7.046   6.093   1.475  0.00  0.00    +0.030 A 
ATOM     15  C   LIG    1       -7.397   7.395   1.113  0.00  0.00    +0.002 A 
ATOM     16  C   LIG    1       -6.899   7.983  -0.051  0.00  0.00    +0.002 A 
ATOM     17  C   LIG    1       -6.029   7.306  -0.911  0.00  0.00    +0.028 A 
ATOM     18  C   LIG    1       -5.680   6.003  -0.545  0.00  0.00    +0.067 A 
ATOM     19  N   LIG    1       -4.877   5.039  -1.109  0.00  0.00    -0.331 N 
ATOM     20  H   LIG    1       -4.339   5.075  -1.963  0.00  0.00    +0.168 HD
ENDBRANCH   9  11
ENDBRANCH   8   9
ENDBRANCH   3   8
BRANCH   7  21
ATOM     21  O   LIG    1        1.216  -0.060  -0.214  0.00  0.00    -0.483 OA
BRANCH  21  22
ATOM     22  C   LIG    1        2.003  -1.249  -0.250  0.00  0.00    +0.342 C 
BRANCH  22  23
ATOM     23  C   LIG    1        3.371  -0.940  -0.876  0.00  0.00    +0.424 C 
ATOM     24  F   LIG    1        3.245  -0.490  -2.125  0.00  0.00    -0.167 F 
ATOM     25  F   LIG    1        4.128  -2.036  -0.920  0.00  0.00    -0.167 F 
ATOM     26  F   LIG    1        4.034  -0.022  -0.173  0.00  0.00    -0.167 F 
ENDBRANCH  22  23
ENDBRANCH  21  22
ENDBRANCH   7  21
TORSDOF 6
