REMARK  Name = DB05855
REMARK                            x       y       z     vdW  Elec       q    Type
REMARK                         _______ _______ _______ _____ _____    ______ ____
ROOT
ATOM      1  C   LIG    1       -0.326   1.548   0.079  0.00  0.00    -0.028 C 
ATOM      2  C   LIG    1       -0.905   2.186   1.113  0.00  0.00    +0.005 C 
ENDROOT
BRANCH   2   3
ATOM      3  C   LIG    1       -1.402   3.576   1.115  0.00  0.00    -0.007 A 
ATOM      4  C   LIG    1       -1.654   4.299  -0.061  0.00  0.00    +0.118 A 
ATOM      5  N   LIG    1       -2.105   5.580  -0.068  0.00  0.00    -0.263 NA
ATOM      6  C   LIG    1       -2.316   6.183   1.129  0.00  0.00    +0.111 A 
ATOM      7  C   LIG    1       -2.090   5.545   2.349  0.00  0.00    +0.020 A 
ATOM      8  C   LIG    1       -1.628   4.228   2.334  0.00  0.00    +0.011 A 
ENDBRANCH   2   3
BRANCH   1   9
ATOM      9  C   LIG    1        0.156   0.110   0.117  0.00  0.00    +0.008 C 
BRANCH   9  10
ATOM     10  C   LIG    1        1.679  -0.014  -0.043  0.00  0.00    -0.079 C 
BRANCH  10  11
ATOM     11  N   LIG    1        2.087  -1.495   0.017  0.00  0.00    +0.377 N 
ATOM     12  H   LIG    1        1.610  -1.996  -0.719  0.00  0.00    -0.086 HD
ATOM     13  H   LIG    1        1.785  -1.880   0.901  0.00  0.00    -0.086 HD
ATOM     14  C   LIG    1        3.599  -1.716  -0.130  0.00  0.00    -0.100 C 
ENDBRANCH  10  11
ENDBRANCH   9  10
ENDBRANCH   1   9
TORSDOF 4
