REMARK  Name = DB05814
REMARK                            x       y       z     vdW  Elec       q    Type
REMARK                         _______ _______ _______ _____ _____    ______ ____
ROOT
ATOM      1  N   LIG    1       -1.458  -1.527  -1.184  0.00  0.00    -0.282 N 
ATOM      2  C   LIG    1       -1.666  -0.567  -2.281  0.00  0.00    +0.109 C 
ATOM      3  C   LIG    1       -2.421  -1.330  -3.363  0.00  0.00    +0.021 C 
ATOM      4  C   LIG    1       -3.174  -2.383  -2.569  0.00  0.00    +0.035 C 
ATOM      5  C   LIG    1       -2.176  -2.798  -1.464  0.00  0.00    +0.185 C 
ATOM      6  C   LIG    1       -0.762  -1.323  -0.030  0.00  0.00    +0.283 C 
ATOM      7  O   LIG    1       -0.651  -2.135   0.890  0.00  0.00    -0.267 OA
ENDROOT
BRANCH   5   8
ATOM      8  C   LIG    1       -1.301  -4.051  -1.864  0.00  0.00    +0.325 C 
ATOM      9  O   LIG    1       -1.961  -5.105  -2.017  0.00  0.00    -0.249 OA
BRANCH   8  10
ATOM     10  O   LIG    1       -0.067  -3.874  -1.998  0.00  0.00    -0.479 OA
ATOM     11  H   LIG    1        0.303  -3.026  -1.852  0.00  0.00    +0.295 HD
ENDBRANCH   8  10
ENDBRANCH   5   8
BRANCH   6  12
ATOM     12  C   LIG    1       -0.041   0.082   0.093  0.00  0.00    +0.223 C 
ATOM     13  O   LIG    1       -0.716   1.102   0.245  0.00  0.00    -0.287 OA
BRANCH  12  14
ATOM     14  C   LIG    1        1.523   0.064   0.062  0.00  0.00    +0.032 C 
ATOM     15  C   LIG    1        2.049   1.523  -0.056  0.00  0.00    +0.019 C 
ATOM     16  C   LIG    1        2.036  -0.704  -1.186  0.00  0.00    +0.019 C 
BRANCH  14  17
ATOM     17  C   LIG    1        2.122  -0.587   1.350  0.00  0.00    +0.011 C 
ATOM     18  C   LIG    1        1.655  -0.023   2.708  0.00  0.00    +0.005 C 
ENDBRANCH  14  17
ENDBRANCH  12  14
ENDBRANCH   6  12
TORSDOF 5
