REMARK  Name = DB05514
REMARK                            x       y       z     vdW  Elec       q    Type
REMARK                         _______ _______ _______ _____ _____    ______ ____
ROOT
ATOM      1  C   LIG    1       -2.865   3.301  -0.317  0.00  0.00    +0.232 C 
ATOM      2  O   LIG    1       -2.711   2.531   0.871  0.00  0.00    -0.340 OA
ATOM      3  C   LIG    1       -2.093   1.254   0.670  0.00  0.00    +0.133 C 
ATOM      4  C   LIG    1       -1.910   0.431   1.942  0.00  0.00    +0.106 C 
ATOM      5  C   LIG    1       -0.690  -0.450   1.621  0.00  0.00    +0.139 C 
ATOM      6  C   LIG    1       -0.060   0.065   0.305  0.00  0.00    +0.061 C 
ATOM      7  O   LIG    1       -0.276  -1.377   2.316  0.00  0.00    -0.297 OA
ATOM      8  C   LIG    1       -0.680   1.459   0.168  0.00  0.00    +0.029 C 
ATOM      9  C   LIG    1       -0.758   2.113  -1.212  0.00  0.00    +0.012 C 
ATOM     10  C   LIG    1       -1.501   3.460  -1.066  0.00  0.00    +0.071 C 
ENDROOT
BRANCH   1  11
ATOM     11  C   LIG    1       -3.455   4.674   0.111  0.00  0.00    +0.301 C 
ATOM     12  F   LIG    1       -2.584   5.267   0.932  0.00  0.00    -0.200 F 
ATOM     13  F   LIG    1       -3.549   5.449  -0.974  0.00  0.00    -0.200 F 
BRANCH  11  14
ATOM     14  C   LIG    1       -4.836   4.539   0.819  0.00  0.00    +0.084 C 
BRANCH  14  15
ATOM     15  C   LIG    1       -5.395   5.822   1.499  0.00  0.00    -0.009 C 
ATOM     16  C   LIG    1       -5.617   6.979   0.504  0.00  0.00    +0.007 C 
BRANCH  15  18
ATOM     17  C   LIG    1       -6.538   4.620   3.509  0.00  0.00    +0.004 C 
ATOM     18  C   LIG    1       -6.699   5.545   2.290  0.00  0.00    -0.000 C 
ENDBRANCH  15  18
ENDBRANCH  14  15
ENDBRANCH  11  14
ENDBRANCH   1  11
BRANCH   1  19
ATOM     19  O   LIG    1       -3.749   2.717  -1.202  0.00  0.00    -0.360 OA
ATOM     20  H   LIG    1       -3.813   3.288  -1.972  0.00  0.00    +0.213 HD
ENDBRANCH   1  19
BRANCH   6  21
ATOM     21  C   LIG    1        1.492  -0.006   0.300  0.00  0.00    +0.011 C 
BRANCH  21  22
ATOM     22  C   LIG    1        2.234   0.805   1.387  0.00  0.00    +0.001 C 
BRANCH  22  23
ATOM     23  C   LIG    1        3.759   0.605   1.341  0.00  0.00    +0.000 C 
BRANCH  23  24
ATOM     24  C   LIG    1        4.504   1.429   2.406  0.00  0.00    +0.001 C 
BRANCH  24  25
ATOM     25  C   LIG    1        6.026   1.195   2.390  0.00  0.00    +0.011 C 
BRANCH  25  26
ATOM     26  C   LIG    1        6.769   2.026   3.469  0.00  0.00    +0.120 C 
BRANCH  26  27
ATOM     27  C   LIG    1        8.301   1.808   3.531  0.00  0.00    +0.305 C 
ATOM     28  O   LIG    1        8.913   2.467   4.402  0.00  0.00    -0.251 OA
BRANCH  27  29
ATOM     29  O   LIG    1        8.858   1.011   2.740  0.00  0.00    -0.481 OA
ATOM     30  H   LIG    1        8.347   0.545   2.108  0.00  0.00    +0.295 HD
ENDBRANCH  27  29
ENDBRANCH  26  27
ENDBRANCH  25  26
ENDBRANCH  24  25
ENDBRANCH  23  24
ENDBRANCH  22  23
ENDBRANCH  21  22
ENDBRANCH   6  21
TORSDOF 13
