REMARK  Name = DB05864
REMARK                            x       y       z     vdW  Elec       q    Type
REMARK                         _______ _______ _______ _____ _____    ______ ____
ROOT
ATOM      1  C   LIG    1        3.322  -0.564   1.500  0.00  0.00    +0.090 C 
ATOM      2  C   LIG    1        1.814  -0.515   1.101  0.00  0.00    +0.167 C 
ATOM      3  C   LIG    1        1.608   0.213  -0.264  0.00  0.00    +0.207 C 
ATOM      4  C   LIG    1        2.413  -0.468  -1.391  0.00  0.00    +0.050 C 
ATOM      5  C   LIG    1        3.909  -0.561  -1.034  0.00  0.00    +0.041 C 
ATOM      6  C   LIG    1        4.124  -1.225   0.343  0.00  0.00    +0.101 C 
ATOM      7  C   LIG    1        4.401  -2.695   0.396  0.00  0.00    +0.196 C 
ATOM      8  O   LIG    1        5.400  -1.731   0.626  0.00  0.00    -0.368 OA
ENDROOT
BRANCH   1  11
ATOM      9  O   LIG    1        4.010   1.863   1.185  0.00  0.00    -0.364 OA
ATOM     10  C   LIG    1        3.095   2.008   2.239  0.00  0.00    +0.155 C 
ATOM     11  C   LIG    1        3.937   0.762   2.062  0.00  0.00    +0.101 C 
ATOM     12  C   LIG    1        5.167   0.536   2.969  0.00  0.00    +0.045 C 
BRANCH  10  13
ATOM     13  C   LIG    1        3.402   3.080   3.301  0.00  0.00    +0.061 C 
BRANCH  13  14
ATOM     14  C   LIG    1        2.982   4.473   2.860  0.00  0.00    -0.026 C 
ATOM     15  C   LIG    1        3.771   5.447   2.358  0.00  0.00    -0.080 C 
ATOM     16  C   LIG    1        5.263   5.300   2.094  0.00  0.00    +0.038 C 
ATOM     17  C   LIG    1        3.205   6.808   1.987  0.00  0.00    +0.038 C 
ENDBRANCH  13  14
ENDBRANCH  10  13
ENDBRANCH   1  11
BRANCH   2  18
ATOM     18  O   LIG    1        1.345  -1.865   1.008  0.00  0.00    -0.376 OA
ATOM     19  C   LIG    1        0.053  -2.115   1.547  0.00  0.00    +0.194 C 
ENDBRANCH   2  18
BRANCH   3  20
ATOM     20  O   LIG    1        0.237   0.298  -0.654  0.00  0.00    -0.444 OA
BRANCH  20  21
ATOM     21  C   LIG    1       -0.615   1.193  -0.107  0.00  0.00    +0.401 C 
ATOM     22  N   LIG    1       -1.886   0.966  -0.629  0.00  0.00    -0.270 N 
ATOM     23  H   LIG    1       -2.017   0.175  -1.242  0.00  0.00    +0.153 HD
ATOM     24  O   LIG    1       -0.297   2.043   0.727  0.00  0.00    -0.226 OA
BRANCH  22  25
ATOM     25  C   LIG    1       -3.095   1.708  -0.212  0.00  0.00    +0.164 C 
BRANCH  25  26
ATOM     26  C   LIG    1       -3.578   1.274   1.198  0.00  0.00    +0.231 C 
ATOM     27  N   LIG    1       -4.695   0.544   1.256  0.00  0.00    -0.328 N 
ATOM     28  H   LIG    1       -5.187   0.290   0.411  0.00  0.00    +0.145 HD
ATOM     29  H   LIG    1       -5.054   0.241   2.150  0.00  0.00    +0.145 HD
ATOM     30  O   LIG    1       -2.956   1.613   2.204  0.00  0.00    -0.274 OA
ENDBRANCH  25  26
BRANCH  25  31
ATOM     31  C   LIG    1       -2.987   3.276  -0.294  0.00  0.00    +0.012 C 
ATOM     32  C   LIG    1       -2.470   3.754  -1.666  0.00  0.00    +0.009 C 
ATOM     33  C   LIG    1       -4.308   4.010   0.028  0.00  0.00    +0.009 C 
ENDBRANCH  25  31
ENDBRANCH  22  25
ENDBRANCH  20  21
ENDBRANCH   3  20
TORSDOF 9
