REMARK  Name = DB05875
REMARK                            x       y       z     vdW  Elec       q    Type
REMARK                         _______ _______ _______ _____ _____    ______ ____
ROOT
ATOM      1  C   LIG    1        0.853  -0.767  -0.704  0.00  0.00    +0.159 C 
ENDROOT
BRANCH   1   4
ATOM      2  C   LIG    1        2.246   0.233   1.090  0.00  0.00    +0.234 C 
ATOM      3  O   LIG    1        2.629   1.194   0.423  0.00  0.00    -0.274 OA
ATOM      4  N   LIG    1        1.475  -0.759   0.618  0.00  0.00    -0.302 N 
ATOM      5  H   LIG    1        1.200  -1.510   1.235  0.00  0.00    +0.150 HD
BRANCH   2   6
ATOM      6  C   LIG    1        2.603   0.134   2.582  0.00  0.00    +0.159 C 
BRANCH   6   9
ATOM      7  C   LIG    1        5.072   0.503   2.515  0.00  0.00    +0.234 C 
ATOM      8  O   LIG    1        5.325  -0.419   1.736  0.00  0.00    -0.274 OA
ATOM      9  N   LIG    1        3.841   0.833   2.933  0.00  0.00    -0.302 N 
ATOM     10  H   LIG    1        3.735   1.604   3.576  0.00  0.00    +0.150 HD
BRANCH   7  17
ATOM     11  C   LIG    1        6.803  -0.201   4.997  0.00  0.00    +0.237 C 
ATOM     12  O   LIG    1        5.702  -0.081   5.538  0.00  0.00    -0.274 OA
ATOM     13  N   LIG    1        7.165   0.470   3.875  0.00  0.00    -0.288 N 
ATOM     14  C   LIG    1        8.466   0.412   3.202  0.00  0.00    +0.109 C 
ATOM     15  C   LIG    1        8.245   1.041   1.831  0.00  0.00    +0.021 C 
ATOM     16  C   LIG    1        7.100   2.010   2.075  0.00  0.00    +0.033 C 
ATOM     17  C   LIG    1        6.221   1.324   3.132  0.00  0.00    +0.162 C 
BRANCH  11  18
ATOM     18  C   LIG    1        7.808  -1.204   5.614  0.00  0.00    +0.159 C 
BRANCH  18  21
ATOM     19  C   LIG    1        8.464   0.056   7.662  0.00  0.00    +0.234 C 
ATOM     20  O   LIG    1        9.018   0.981   7.065  0.00  0.00    -0.274 OA
ATOM     21  N   LIG    1        7.907  -1.009   7.061  0.00  0.00    -0.302 N 
ATOM     22  H   LIG    1        7.488  -1.730   7.631  0.00  0.00    +0.150 HD
BRANCH  19  26
ATOM     23  C   LIG    1       10.478  -1.190   9.738  0.00  0.00    +0.202 C 
ATOM     24  O   LIG    1       10.035  -2.233   9.242  0.00  0.00    -0.277 OA
ATOM     25  N   LIG    1        9.742  -0.052   9.810  0.00  0.00    -0.291 N 
ATOM     26  C   LIG    1        8.403   0.063   9.202  0.00  0.00    +0.162 C 
ATOM     27  C   LIG    1        7.856   1.385   9.768  0.00  0.00    +0.033 C 
ATOM     28  C   LIG    1        9.089   2.222  10.066  0.00  0.00    +0.021 C 
ATOM     29  C   LIG    1       10.111   1.182  10.512  0.00  0.00    +0.108 C 
BRANCH  23  30
ATOM     30  C   LIG    1       11.950  -1.122  10.253  0.00  0.00    +0.013 C 
BRANCH  30  31
ATOM     31  N   LIG    1       12.223  -2.429  10.951  0.00  0.00    +0.386 N 
ATOM     32  H   LIG    1       12.110  -3.185  10.290  0.00  0.00    -0.089 HD
ATOM     33  H   LIG    1       13.170  -2.423  11.303  0.00  0.00    -0.089 HD
ATOM     34  H   LIG    1       11.576  -2.537  11.719  0.00  0.00    -0.089 HD
ENDBRANCH  30  31
BRANCH  30  35
ATOM     35  C   LIG    1       12.965  -0.906   9.095  0.00  0.00    -0.006 C 
BRANCH  35  36
ATOM     36  C   LIG    1       12.911   0.488   8.431  0.00  0.00    +0.014 C 
BRANCH  36  37
ATOM     37  C   LIG    1       13.796   0.631   7.177  0.00  0.00    +0.084 C 
BRANCH  37  38
ATOM     38  N   LIG    1       13.262  -0.099   6.011  0.00  0.00    -0.283 NA
ATOM     39  H   LIG    1       13.603  -1.043   5.896  0.00  0.00    +0.125 HD
BRANCH  38  40
ATOM     40  C   LIG    1       12.349   0.344   5.122  0.00  0.00    +0.167 C 
BRANCH  40  41
ATOM     41  N   LIG    1       11.805   1.570   5.196  0.00  0.00    -0.297 NA
ATOM     42  H   LIG    1       12.072   2.198   5.941  0.00  0.00    +0.121 HD
ATOM     43  H   LIG    1       11.122   1.868   4.515  0.00  0.00    +0.121 HD
ENDBRANCH  40  41
BRANCH  40  44
ATOM     44  N   LIG    1       11.970  -0.471   4.128  0.00  0.00    -0.297 NA
ATOM     45  H   LIG    1       12.369  -1.395   4.047  0.00  0.00    +0.121 HD
ATOM     46  H   LIG    1       11.294  -0.158   3.446  0.00  0.00    +0.121 HD
ENDBRANCH  40  44
ENDBRANCH  38  40
ENDBRANCH  37  38
ENDBRANCH  36  37
ENDBRANCH  35  36
ENDBRANCH  30  35
ENDBRANCH  23  30
ENDBRANCH  19  26
ENDBRANCH  18  21
BRANCH  18  47
ATOM     47  C   LIG    1        7.355  -2.663   5.370  0.00  0.00    +0.032 C 
BRANCH  47  48
ATOM     48  C   LIG    1        7.177  -3.039   3.885  0.00  0.00    +0.000 C 
BRANCH  48  49
ATOM     49  C   LIG    1        6.704  -4.489   3.683  0.00  0.00    -0.019 C 
BRANCH  49  50
ATOM     50  C   LIG    1        6.499  -4.878   2.206  0.00  0.00    -0.086 C 
BRANCH  50  51
ATOM     51  N   LIG    1        5.366  -4.170   1.578  0.00  0.00    +0.378 N 
ATOM     52  H   LIG    1        4.515  -4.380   2.080  0.00  0.00    -0.090 HD
ATOM     53  H   LIG    1        5.532  -3.173   1.603  0.00  0.00    -0.090 HD
ATOM     54  H   LIG    1        5.271  -4.469   0.618  0.00  0.00    -0.090 HD
ENDBRANCH  50  51
ENDBRANCH  49  50
ENDBRANCH  48  49
ENDBRANCH  47  48
ENDBRANCH  18  47
ENDBRANCH  11  18
ENDBRANCH   7  17
ENDBRANCH   6   9
BRANCH   6  55
ATOM     55  C   LIG    1        1.453   0.704   3.438  0.00  0.00    +0.041 C 
BRANCH  55  56
ATOM     56  C   LIG    1        1.621   0.451   4.950  0.00  0.00    +0.098 C 
BRANCH  56  57
ATOM     57  C   LIG    1        0.468   1.020   5.783  0.00  0.00    +0.211 C 
ATOM     58  N   LIG    1        0.256   0.459   6.976  0.00  0.00    -0.329 N 
ATOM     59  H   LIG    1       -0.486   0.799   7.571  0.00  0.00    +0.145 HD
ATOM     60  H   LIG    1        0.831  -0.309   7.292  0.00  0.00    +0.145 HD
ATOM     61  O   LIG    1       -0.207   1.963   5.376  0.00  0.00    -0.276 OA
ENDBRANCH  56  57
ENDBRANCH  55  56
ENDBRANCH   6  55
ENDBRANCH   2   6
ENDBRANCH   1   4
BRANCH   1  62
ATOM     62  C   LIG    1       -0.472   0.009  -0.615  0.00  0.00    +0.234 C 
ATOM     63  O   LIG    1       -1.472  -0.551  -0.167  0.00  0.00    -0.274 OA
ATOM     64  N   LIG    1       -0.436   1.292  -1.010  0.00  0.00    -0.302 N 
ATOM     65  H   LIG    1        0.428   1.689  -1.351  0.00  0.00    +0.150 HD
BRANCH  64  66
ATOM     66  C   LIG    1       -1.590   2.190  -0.976  0.00  0.00    +0.163 C 
BRANCH  66  67
ATOM     67  C   LIG    1       -2.491   1.977  -2.202  0.00  0.00    +0.234 C 
ATOM     68  O   LIG    1       -1.988   1.904  -3.324  0.00  0.00    -0.274 OA
ATOM     69  N   LIG    1       -3.808   1.924  -1.952  0.00  0.00    -0.302 N 
ATOM     70  H   LIG    1       -4.129   1.982  -0.996  0.00  0.00    +0.150 HD
BRANCH  69  71
ATOM     71  C   LIG    1       -4.864   1.855  -2.963  0.00  0.00    +0.163 C 
BRANCH  71  72
ATOM     72  C   LIG    1       -6.220   2.253  -2.331  0.00  0.00    +0.236 C 
ATOM     73  O   LIG    1       -6.423   1.894  -1.168  0.00  0.00    -0.274 OA
ATOM     74  N   LIG    1       -7.124   2.970  -3.060  0.00  0.00    -0.294 N 
ATOM     75  C   LIG    1       -8.396   3.382  -2.454  0.00  0.00    +0.132 C 
BRANCH  74  76
ATOM     76  C   LIG    1       -6.890   3.446  -4.439  0.00  0.00    +0.203 C 
BRANCH  76  77
ATOM     77  C   LIG    1       -6.116   4.779  -4.510  0.00  0.00    +0.231 C 
ATOM     78  O   LIG    1       -5.875   5.268  -5.613  0.00  0.00    -0.274 OA
ATOM     79  N   LIG    1       -5.703   5.339  -3.358  0.00  0.00    -0.303 N 
ATOM     80  H   LIG    1       -5.947   4.890  -2.487  0.00  0.00    +0.149 HD
BRANCH  79  81
ATOM     81  C   LIG    1       -4.790   6.476  -3.238  0.00  0.00    +0.159 C 
BRANCH  81  82
ATOM     82  C   LIG    1       -3.373   6.090  -3.701  0.00  0.00    +0.234 C 
ATOM     83  O   LIG    1       -2.891   5.015  -3.348  0.00  0.00    -0.274 OA
ATOM     84  N   LIG    1       -2.732   6.990  -4.463  0.00  0.00    -0.302 N 
ATOM     85  H   LIG    1       -3.192   7.855  -4.705  0.00  0.00    +0.150 HD
BRANCH  84  86
ATOM     86  C   LIG    1       -1.351   6.844  -4.929  0.00  0.00    +0.160 C 
BRANCH  86  87
ATOM     87  C   LIG    1       -0.344   7.137  -3.796  0.00  0.00    +0.231 C 
ATOM     88  N   LIG    1        0.678   6.286  -3.662  0.00  0.00    -0.328 N 
ATOM     89  H   LIG    1        1.372   6.438  -2.945  0.00  0.00    +0.145 HD
ATOM     90  H   LIG    1        0.760   5.487  -4.273  0.00  0.00    +0.145 HD
ATOM     91  O   LIG    1       -0.481   8.130  -3.082  0.00  0.00    -0.274 OA
ENDBRANCH  86  87
BRANCH  86  92
ATOM     92  C   LIG    1       -1.073   7.756  -6.141  0.00  0.00    +0.054 C 
BRANCH  92  93
ATOM     93  C   LIG    1       -1.966   7.433  -7.355  0.00  0.00    +0.168 C 
BRANCH  93  94
ATOM     94  S   LIG    1       -1.450   8.437  -8.874  0.00  0.00    -0.034 S 
ATOM     95  O   LIG    1       -2.330   8.054  -9.983  0.00  0.00    -0.175 OA
ATOM     96  O   LIG    1        0.004   8.330  -9.030  0.00  0.00    -0.175 OA
ATOM     97  C   LIG    1       -1.858  10.219  -8.409  0.00  0.00    +0.194 C 
ENDBRANCH  93  94
ENDBRANCH  92  93
ENDBRANCH  86  92
ENDBRANCH  84  86
ENDBRANCH  81  82
BRANCH  81  98
ATOM     98  C   LIG    1       -4.811   6.950  -1.763  0.00  0.00    +0.034 C 
BRANCH  98  99
ATOM     99  C   LIG    1       -3.855   8.111  -1.391  0.00  0.00    -0.015 C 
ATOM    100  C   LIG    1       -4.095   9.378  -2.240  0.00  0.00    +0.007 C 
ATOM    101  C   LIG    1       -3.910   8.402   0.124  0.00  0.00    +0.007 C 
ENDBRANCH  98  99
ENDBRANCH  81  98
ENDBRANCH  79  81
ENDBRANCH  76  77
ENDBRANCH  74  76
ENDBRANCH  71  72
BRANCH  71 102
ATOM    102  C   LIG    1       -4.902   0.472  -3.664  0.00  0.00    +0.067 C 
BRANCH 102 103
ATOM    103  C   LIG    1       -5.098  -0.749  -2.777  0.00  0.00    -0.045 A 
ATOM    104  C   LIG    1       -6.392  -1.175  -2.407  0.00  0.00    +0.004 A 
ATOM    105  C   LIG    1       -6.547  -2.240  -1.529  0.00  0.00    +0.000 A 
ATOM    106  C   LIG    1       -5.434  -2.875  -0.992  0.00  0.00    +0.000 A 
ATOM    107  C   LIG    1       -4.154  -2.444  -1.319  0.00  0.00    +0.000 A 
ATOM    108  C   LIG    1       -3.979  -1.381  -2.195  0.00  0.00    +0.004 A 
ENDBRANCH 102 103
ENDBRANCH  71 102
ENDBRANCH  69  71
ENDBRANCH  66  67
BRANCH  66 109
ATOM    109  C   LIG    1       -1.115   3.656  -0.904  0.00  0.00    +0.067 C 
BRANCH 109 110
ATOM    110  C   LIG    1       -0.323   4.014   0.342  0.00  0.00    -0.045 A 
ATOM    111  C   LIG    1        1.087   4.016   0.315  0.00  0.00    +0.004 A 
ATOM    112  C   LIG    1        1.804   4.267   1.478  0.00  0.00    +0.000 A 
ATOM    113  C   LIG    1        1.138   4.493   2.676  0.00  0.00    +0.000 A 
ATOM    114  C   LIG    1       -0.250   4.452   2.725  0.00  0.00    +0.000 A 
ATOM    115  C   LIG    1       -0.985   4.204   1.573  0.00  0.00    +0.004 A 
ENDBRANCH 109 110
ENDBRANCH  66 109
ENDBRANCH  64  66
ENDBRANCH   1  62
BRANCH   1 116
ATOM    116  C   LIG    1        0.667  -2.234  -1.150  0.00  0.00    +0.041 C 
BRANCH 116 117
ATOM    117  C   LIG    1        0.083  -2.393  -2.569  0.00  0.00    +0.098 C 
BRANCH 117 118
ATOM    118  C   LIG    1       -0.179  -3.854  -2.945  0.00  0.00    +0.211 C 
ATOM    119  O   LIG    1        0.514  -4.761  -2.488  0.00  0.00    -0.276 OA
ATOM    120  N   LIG    1       -1.173  -4.084  -3.806  0.00  0.00    -0.329 N 
ATOM    121  H   LIG    1       -1.383  -5.027  -4.098  0.00  0.00    +0.145 HD
ATOM    122  H   LIG    1       -1.721  -3.318  -4.172  0.00  0.00    +0.145 HD
ENDBRANCH 117 118
ENDBRANCH 116 117
ENDBRANCH   1 116
TORSDOF 47
