REMARK  Name = DB05724
REMARK                            x       y       z     vdW  Elec       q    Type
REMARK                         _______ _______ _______ _____ _____    ______ ____
ROOT
ATOM      1  C   UNK A  2       -4.662  -0.982  -2.238  0.00  0.00    +0.169 C 
ATOM      2  C   UNK A  2       -5.089  -0.617  -0.798  0.00  0.00    +0.112 C 
ATOM      3  S   UNK A  2       -5.125  -2.011   0.361  0.00  0.00    -0.091 S 
ATOM      4  S   UNK A  2       -5.477  -1.262   2.218  0.00  0.00    -0.091 S 
ATOM      5  C   UNK A  2       -3.883  -0.680   2.886  0.00  0.00    +0.112 C 
ATOM      6  C   UNK A  2       -2.532  -1.331   2.475  0.00  0.00    +0.169 C 
ATOM      7  N   UNK A  2       -2.011  -0.719   1.248  0.00  0.00    -0.302 N 
ATOM      8  H   UNK A  2       -2.076  -1.287   0.415  0.00  0.00    +0.150 HD
ATOM      9  C   UNK A  2       -1.437   0.493   1.176  0.00  0.00    +0.234 C 
ATOM     10  C   UNK A  2       -0.871   0.877  -0.199  0.00  0.00    +0.159 C 
ATOM     11  N   UNK A  2       -1.056   2.309  -0.447  0.00  0.00    -0.302 N 
ATOM     12  H   UNK A  2       -0.514   2.930   0.137  0.00  0.00    +0.150 HD
ATOM     13  C   UNK A  2       -1.981   2.822  -1.275  0.00  0.00    +0.234 C 
ATOM     14  C   UNK A  2       -2.184   4.347  -1.204  0.00  0.00    +0.162 C 
ATOM     15  C   UNK A  2       -3.514   4.681  -0.489  0.00  0.00    +0.033 C 
ATOM     16  C   UNK A  2       -4.156   5.787  -1.307  0.00  0.00    +0.021 C 
ATOM     17  C   UNK A  2       -3.692   5.468  -2.717  0.00  0.00    +0.109 C 
ATOM     18  N   UNK A  2       -2.329   4.974  -2.536  0.00  0.00    -0.288 N 
ATOM     19  C   UNK A  2       -1.382   5.148  -3.493  0.00  0.00    +0.237 C 
ATOM     20  C   UNK A  2        0.095   4.854  -3.159  0.00  0.00    +0.170 C 
ATOM     21  N   UNK A  2        0.521   3.718  -3.978  0.00  0.00    -0.302 N 
ATOM     22  H   UNK A  2        0.117   3.676  -4.902  0.00  0.00    +0.150 HD
ATOM     23  C   UNK A  2        1.353   2.741  -3.581  0.00  0.00    +0.236 C 
ATOM     24  C   UNK A  2        1.636   1.597  -4.576  0.00  0.00    +0.184 C 
ATOM     25  N   UNK A  2        0.840   0.420  -4.221  0.00  0.00    -0.301 N 
ATOM     26  H   UNK A  2        1.363  -0.322  -3.780  0.00  0.00    +0.150 HD
ATOM     27  C   UNK A  3       -0.498   0.297  -4.295  0.00  0.00    +0.235 C 
ATOM     28  C   UNK A  3       -1.071  -0.945  -3.602  0.00  0.00    +0.169 C 
ATOM     29  C   UNK A  3       -0.784  -2.265  -4.343  0.00  0.00    +0.112 C 
ATOM     30  S   UNK A  3       -1.802  -2.666  -5.791  0.00  0.00    -0.091 S 
ATOM     31  S   UNK A  3       -0.697  -4.087  -6.748  0.00  0.00    -0.091 S 
ATOM     32  C   UNK A  3       -0.728  -5.527  -5.637  0.00  0.00    +0.112 C 
ATOM     33  C   UNK A  3        0.660  -6.101  -5.254  0.00  0.00    +0.169 C 
ATOM     34  N   UNK A  3        0.526  -7.311  -4.432  0.00  0.00    -0.302 N 
ATOM     35  H   UNK A  3        0.961  -8.130  -4.832  0.00  0.00    +0.150 HD
ATOM     36  C   UNK A  3       -0.050  -7.450  -3.222  0.00  0.00    +0.234 C 
ATOM     37  C   UNK A  3       -0.013  -8.862  -2.580  0.00  0.00    +0.162 C 
ATOM     38  N   UNK A  3        0.825  -9.852  -3.272  0.00  0.00    -0.302 N 
ATOM     39  H   UNK A  3        0.309 -10.640  -3.638  0.00  0.00    +0.150 HD
ATOM     40  C   UNK A  3        2.161  -9.855  -3.449  0.00  0.00    +0.234 C 
ATOM     41  C   UNK A  3        2.784 -11.084  -4.151  0.00  0.00    +0.159 C 
ATOM     42  N   UNK A  3        1.801 -12.078  -4.615  0.00  0.00    -0.302 N 
ATOM     43  H   UNK A  3        1.751 -12.912  -4.049  0.00  0.00    +0.150 HD
ATOM     44  C   UNK A  3        0.946 -11.963  -5.647  0.00  0.00    +0.234 C 
ATOM     45  C   UNK A  3       -0.069 -13.112  -5.789  0.00  0.00    +0.162 C 
ATOM     46  C   UNK A  3        0.276 -14.049  -6.958  0.00  0.00    +0.033 C 
ATOM     47  C   UNK A  3       -1.071 -14.568  -7.425  0.00  0.00    +0.021 C 
ATOM     48  C   UNK A  3       -1.956 -13.341  -7.273  0.00  0.00    +0.109 C 
ATOM     49  N   UNK A  3       -1.448 -12.657  -6.083  0.00  0.00    -0.288 N 
ATOM     50  C   UNK A  3       -2.136 -11.830  -5.252  0.00  0.00    +0.237 C 
ATOM     51  C   UNK A  3       -3.504 -11.228  -5.697  0.00  0.00    +0.161 C 
ATOM     52  N   UNK A  3       -3.985 -10.228  -4.723  0.00  0.00    -0.302 N 
ATOM     53  H   UNK A  3       -4.748 -10.536  -4.137  0.00  0.00    +0.150 HD
ATOM     54  C   UNK A  3       -3.500  -8.984  -4.536  0.00  0.00    +0.234 C 
ATOM     55  C   UNK A  3       -4.154  -8.128  -3.428  0.00  0.00    +0.169 C 
ATOM     56  N   UNK A  3       -3.759  -6.725  -3.596  0.00  0.00    -0.302 N 
ATOM     57  H   UNK A  3       -3.490  -6.497  -4.543  0.00  0.00    +0.150 HD
ATOM     58  C   UNK A  3       -3.714  -5.727  -2.696  0.00  0.00    +0.234 C 
ATOM     59  C   UNK A  3       -4.099  -5.965  -1.220  0.00  0.00    +0.163 C 
ATOM     60  N   UNK A  3       -3.136  -5.228  -0.395  0.00  0.00    -0.302 N 
ATOM     61  H   UNK A  3       -2.756  -4.396  -0.825  0.00  0.00    +0.150 HD
ATOM     62  C   UNK A  3       -2.610  -5.653   0.765  0.00  0.00    +0.234 C 
ATOM     63  C   UNK A  3       -1.396  -4.855   1.281  0.00  0.00    +0.168 C 
ATOM     64  N   UNK A  3       -1.692  -3.430   1.493  0.00  0.00    -0.302 N 
ATOM     65  H   UNK A  3       -1.171  -2.806   0.894  0.00  0.00    +0.150 HD
ATOM     66  O   UNK A  3       -3.011  -6.638   1.385  0.00  0.00    -0.274 OA
ATOM     67  O   UNK A  3       -3.377  -4.597  -3.042  0.00  0.00    -0.274 OA
ATOM     68  O   UNK A  3       -2.561  -8.520  -5.185  0.00  0.00    -0.274 OA
ATOM     69  O   UNK A  3       -1.709 -11.538  -4.132  0.00  0.00    -0.274 OA
ATOM     70  O   UNK A  3        0.899 -11.010  -6.426  0.00  0.00    -0.274 OA
ATOM     71  O   UNK A  3        2.905  -8.954  -3.066  0.00  0.00    -0.274 OA
ATOM     72  O   UNK A  3       -0.644  -6.544  -2.639  0.00  0.00    -0.274 OA
ATOM     73  N   UNK A  3       -2.501  -0.781  -3.349  0.00  0.00    -0.302 N 
ATOM     74  H   UNK A  3       -2.986  -0.158  -3.979  0.00  0.00    +0.150 HD
ATOM     75  O   UNK A  3       -1.251   1.115  -4.825  0.00  0.00    -0.274 OA
ATOM     76  O   UNK A  2        1.892   2.702  -2.477  0.00  0.00    -0.274 OA
ATOM     77  O   UNK A  2       -1.643   5.562  -4.624  0.00  0.00    -0.274 OA
ATOM     78  O   UNK A  2       -2.690   2.154  -2.029  0.00  0.00    -0.274 OA
ATOM     79  O   UNK A  2       -1.321   1.267   2.127  0.00  0.00    -0.274 OA
ATOM     80  C   UNK A  3       -2.507  -2.875   2.414  0.00  0.00    +0.235 C 
ATOM     81  O   UNK A  3       -3.191  -3.518   3.209  0.00  0.00    -0.274 OA
ATOM     82  C   UNK A  2       -3.171  -1.353  -2.341  0.00  0.00    +0.235 C 
ATOM     83  O   UNK A  2       -2.658  -2.123  -1.527  0.00  0.00    -0.274 OA
ENDROOT
BRANCH  33  84
ATOM     84  C   UNK A  3        1.601  -5.041  -4.628  0.00  0.00    +0.232 C 
ATOM     85  N   UNK A  3        2.541  -4.527  -5.427  0.00  0.00    -0.328 N 
ATOM     86  H   UNK A  3        2.629  -4.843  -6.382  0.00  0.00    +0.145 HD
ATOM     87  H   UNK A  3        3.174  -3.823  -5.077  0.00  0.00    +0.145 HD
ATOM     88  O   UNK A  3        1.457  -4.670  -3.464  0.00  0.00    -0.274 OA
ENDBRANCH  33  84
BRANCH   1  90
ATOM     89  C   GLY A  1       -5.705  -2.368  -4.039  0.00  0.00    +0.196 C 
ATOM     90  N   UNK A  2       -5.501  -2.073  -2.738  0.00  0.00    -0.305 N 
ATOM     91  H   UNK A  2       -5.875  -2.687  -2.029  0.00  0.00    +0.149 HD
ATOM     92  O   GLY A  1       -5.258  -1.677  -4.953  0.00  0.00    -0.278 OA
BRANCH  89  93
ATOM     93  CA  GLY A  1       -6.483  -3.651  -4.382  0.00  0.00    +0.011 C 
BRANCH  93  94
ATOM     94  N   GLY A  1       -7.859  -3.575  -3.823  0.00  0.00    +0.384 N 
ATOM     95  H1  GLY A  1       -7.843  -3.470  -2.819  0.00  0.00    -0.089 HD
ATOM     96  H2  GLY A  1       -8.373  -2.802  -4.221  0.00  0.00    -0.089 HD
ATOM     97  H3  GLY A  1       -8.369  -4.423  -4.031  0.00  0.00    -0.089 HD
ENDBRANCH  93  94
ENDBRANCH  89  93
ENDBRANCH   1  90
BRANCH  37  98
ATOM     98  C   UNK A  3        0.273  -8.822  -1.035  0.00  0.00    +0.015 C 
ATOM     99  C   UNK A  3        1.174  -7.676  -0.515  0.00  0.00    +0.010 C 
BRANCH  98 100
ATOM    100  C   UNK A  3       -1.040  -8.850  -0.224  0.00  0.00    +0.002 C 
ATOM    101  C   UNK A  3       -1.830 -10.163  -0.345  0.00  0.00    +0.004 C 
ENDBRANCH  98 100
ENDBRANCH  37  98
BRANCH  10 102
ATOM    102  C   UNK A  2        0.620   0.495  -0.330  0.00  0.00    +0.033 C 
BRANCH 102 103
ATOM    103  C   UNK A  2        1.601   1.275   0.569  0.00  0.00    +0.017 C 
BRANCH 103 104
ATOM    104  C   UNK A  2        3.062   0.858   0.338  0.00  0.00    +0.084 C 
BRANCH 104 105
ATOM    105  N   UNK A  2        4.007   1.719   1.072  0.00  0.00    -0.283 NA
ATOM    106  H   UNK A  2        4.178   1.449   2.030  0.00  0.00    +0.125 HD
BRANCH 105 107
ATOM    107  C   UNK A  2        4.611   2.839   0.625  0.00  0.00    +0.167 C 
BRANCH 107 108
ATOM    108  N   UNK A  2        4.423   3.315  -0.615  0.00  0.00    -0.297 NA
ATOM    109  H   UNK A  2        3.787   2.848  -1.248  0.00  0.00    +0.121 HD
ATOM    110  H   UNK A  2        4.866   4.174  -0.911  0.00  0.00    +0.121 HD
ENDBRANCH 107 108
BRANCH 107 111
ATOM    111  N   UNK A  2        5.428   3.504   1.452  0.00  0.00    -0.297 NA
ATOM    112  H   UNK A  2        5.888   4.347   1.139  0.00  0.00    +0.121 HD
ATOM    113  H   UNK A  2        5.582   3.170   2.392  0.00  0.00    +0.121 HD
ENDBRANCH 107 111
ENDBRANCH 105 107
ENDBRANCH 104 105
ENDBRANCH 103 104
ENDBRANCH 102 103
ENDBRANCH  10 102
BRANCH  20 114
ATOM    114  C   UNK A  2        0.947   6.132  -3.402  0.00  0.00    +0.152 C 
BRANCH 114 115
ATOM    115  C   UNK A  2        2.446   5.983  -3.097  0.00  0.00    +0.307 C 
ATOM    116  O   UNK A  2        3.200   5.645  -4.036  0.00  0.00    -0.251 OA
BRANCH 115 117
ATOM    117  O   UNK A  2        2.786   6.047  -1.894  0.00  0.00    -0.481 OA
ATOM    118  H   UNK A  2        2.164   6.310  -1.245  0.00  0.00    +0.295 HD
ENDBRANCH 115 117
ENDBRANCH 114 115
ENDBRANCH  20 114
BRANCH  51 119
ATOM    119  C   UNK A  3       -3.544 -10.639  -7.139  0.00  0.00    +0.057 C 
BRANCH 119 120
ATOM    120  C   UNK A  3       -4.798  -9.875  -7.496  0.00  0.00    +0.059 C 
ATOM    121  N   UNK A  3       -4.737  -8.625  -8.095  0.00  0.00    -0.290 NA
ATOM    122  H   UNK A  3       -3.905  -8.074  -8.250  0.00  0.00    +0.124 HD
ATOM    123  C   UNK A  3       -5.984  -8.278  -8.406  0.00  0.00    +0.155 C 
ATOM    124  N   UNK A  3       -6.852  -9.240  -8.101  0.00  0.00    -0.293 NA
ATOM    125  H   UNK A  3       -7.850  -9.222  -8.258  0.00  0.00    +0.124 HD
ATOM    126  C   UNK A  3       -6.118 -10.284  -7.564  0.00  0.00    +0.096 C 
ENDBRANCH 119 120
ENDBRANCH  51 119
BRANCH  55 127
ATOM    127  C   UNK A  3       -5.694  -8.345  -3.267  0.00  0.00    +0.152 C 
BRANCH 127 128
ATOM    128  C   UNK A  3       -6.643  -7.520  -4.164  0.00  0.00    +0.307 C 
ATOM    129  O   UNK A  3       -7.820  -7.396  -3.761  0.00  0.00    -0.251 OA
BRANCH 128 130
ATOM    130  O   UNK A  3       -6.245  -7.139  -5.287  0.00  0.00    -0.481 OA
ATOM    131  H   UNK A  3       -5.348  -7.259  -5.532  0.00  0.00    +0.295 HD
ENDBRANCH 128 130
ENDBRANCH 127 128
ENDBRANCH  55 127
BRANCH  59 132
ATOM    132  C   UNK A  3       -5.545  -5.488  -0.940  0.00  0.00    +0.067 C 
BRANCH 132 133
ATOM    133  C   UNK A  3       -6.178  -5.973   0.358  0.00  0.00    -0.045 A 
ATOM    134  C   UNK A  3       -5.898  -5.331   1.583  0.00  0.00    +0.007 A 
ATOM    135  C   UNK A  3       -6.484  -5.782   2.780  0.00  0.00    +0.045 A 
ATOM    136  C   UNK A  3       -7.367  -6.879   2.760  0.00  0.00    +0.117 A 
ATOM    137  C   UNK A  3       -7.662  -7.519   1.541  0.00  0.00    +0.045 A 
ATOM    138  C   UNK A  3       -7.072  -7.066   0.345  0.00  0.00    +0.007 A 
BRANCH 136 139
ATOM    139  O   UNK A  3       -7.937  -7.320   3.919  0.00  0.00    -0.507 OA
ATOM    140  H   UNK A  3       -7.666  -6.815   4.689  0.00  0.00    +0.292 HD
ENDBRANCH 136 139
ENDBRANCH 132 133
ENDBRANCH  59 132
BRANCH  63 141
ATOM    141  C   UNK A  3       -0.728  -5.504   2.527  0.00  0.00    +0.127 C 
BRANCH 141 142
ATOM    142  C   UNK A  3        0.636  -4.900   2.882  0.00  0.00    +0.213 C 
ATOM    143  N   UNK A  3        1.709  -5.675   2.699  0.00  0.00    -0.329 N 
ATOM    144  H   UNK A  3        2.630  -5.331   2.932  0.00  0.00    +0.145 HD
ATOM    145  H   UNK A  3        1.608  -6.611   2.334  0.00  0.00    +0.145 HD
ATOM    146  O   UNK A  3        0.724  -3.760   3.333  0.00  0.00    -0.276 OA
ENDBRANCH 141 142
ENDBRANCH  63 141
BRANCH  24 147
ATOM    147  C   UNK A  2        1.492   1.965  -6.075  0.00  0.00    +0.187 C 
BRANCH 147 148
ATOM    148  O   UNK A  4        2.405   2.981  -6.441  0.00  0.00    -0.393 OA
ATOM    149  H   UNK A  4        2.177   3.788  -5.972  0.00  0.00    +0.209 HD
ENDBRANCH 147 148
ENDBRANCH  24 147
BRANCH  41 150
ATOM    150  C   UNK A  3        3.789 -10.681  -5.262  0.00  0.00    +0.043 C 
BRANCH 150 151
ATOM    151  C   UNK A  3        4.514 -11.882  -5.918  0.00  0.00    +0.123 C 
BRANCH 151 152
ATOM    152  C   UNK A  3        5.563 -11.528  -6.987  0.00  0.00    +0.305 C 
ATOM    153  O   UNK A  3        6.156 -12.493  -7.518  0.00  0.00    -0.251 OA
BRANCH 152 154
ATOM    154  O   UNK A  3        5.771 -10.326  -7.272  0.00  0.00    -0.481 OA
ATOM    155  H   UNK A  3        5.290  -9.651  -6.834  0.00  0.00    +0.295 HD
ENDBRANCH 152 154
ENDBRANCH 151 152
ENDBRANCH 150 151
ENDBRANCH  41 150
TORSDOF 32
