REMARK  Name = DB05586
REMARK                            x       y       z     vdW  Elec       q    Type
REMARK                         _______ _______ _______ _____ _____    ______ ____
ROOT
ATOM      1  O   LIG    1       -0.460   2.189   0.081  0.00  0.00    -0.268 OA
ATOM      2  C   LIG    1       -0.842   1.020   0.029  0.00  0.00    +0.265 C 
ATOM      3  N   LIG    1        0.002  -0.032  -0.018  0.00  0.00    -0.309 N 
ATOM      4  H   LIG    1       -0.396  -0.960  -0.034  0.00  0.00    +0.149 HD
ENDROOT
BRANCH   2   5
ATOM      5  C   LIG    1       -2.254   0.695   0.015  0.00  0.00    +0.154 A 
ATOM      6  C   LIG    1       -3.377   1.600   0.010  0.00  0.00    +0.032 A 
ATOM      7  C   LIG    1       -3.547   2.997   0.013  0.00  0.00    +0.012 A 
ATOM      8  C   LIG    1       -4.838   3.521   0.003  0.00  0.00    +0.001 A 
ATOM      9  C   LIG    1       -5.954   2.687  -0.010  0.00  0.00    +0.002 A 
ATOM     10  C   LIG    1       -5.833   1.297  -0.012  0.00  0.00    +0.028 A 
ATOM     11  C   LIG    1       -4.534   0.778  -0.001  0.00  0.00    +0.066 A 
ATOM     12  N   LIG    1       -4.056  -0.510   0.001  0.00  0.00    -0.276 N 
ATOM     13  H   LIG    1       -4.588  -1.368  -0.003  0.00  0.00    +0.189 HD
ATOM     14  N   LIG    1       -2.715  -0.542   0.013  0.00  0.00    -0.168 NA
ENDBRANCH   2   5
BRANCH   3  15
ATOM     15  C   LIG    1        1.468   0.052  -0.008  0.00  0.00    +0.060 C 
ATOM     16  C   LIG    1        2.065  -1.274  -0.583  0.00  0.00    -0.056 C 
ATOM     17  N   LIG    1        2.858  -2.024   0.518  0.00  0.00    +0.381 N 
ATOM     18  H   LIG    1        3.150  -2.927   0.170  0.00  0.00    -0.082 HD
ATOM     19  C   LIG    1        1.986  -2.208   1.786  0.00  0.00    -0.078 C 
ATOM     20  C   LIG    1        1.608  -0.809   2.349  0.00  0.00    -0.014 C 
ATOM     21  C   LIG    1        4.102  -1.185   0.878  0.00  0.00    -0.078 C 
ATOM     22  C   LIG    1        3.621   0.209   1.350  0.00  0.00    -0.014 C 
ATOM     23  C   LIG    1        2.070   0.345   1.409  0.00  0.00    +0.004 C 
ENDBRANCH   3  15
TORSDOF 2
