REMARK  Name = DB05245
REMARK                            x       y       z     vdW  Elec       q    Type
REMARK                         _______ _______ _______ _____ _____    ______ ____
ROOT
ATOM      1  S   LIG    1       -0.383  -0.145   0.000  0.00  0.00    +0.075 S 
ATOM      2  O   LIG    1       -0.999  -0.594   1.255  0.00  0.00    -0.150 OA
ATOM      3  O   LIG    1       -0.999  -0.594  -1.255  0.00  0.00    -0.150 OA
ENDROOT
BRANCH   1   4
ATOM      4  C   LIG    1       -0.571   1.641   0.000  0.00  0.00    +0.109 A 
ATOM      5  C   LIG    1       -0.632   2.336  -1.211  0.00  0.00    +0.030 A 
ATOM      6  C   LIG    1       -0.767   3.722  -1.211  0.00  0.00    +0.024 A 
ATOM      7  C   LIG    1       -0.836   4.411   0.000  0.00  0.00    +0.025 A 
ATOM      8  C   LIG    1       -0.768   3.722   1.211  0.00  0.00    +0.024 A 
ATOM      9  C   LIG    1       -0.632   2.336   1.211  0.00  0.00    +0.030 A 
BRANCH   7  10
ATOM     10  N   LIG    1       -0.971   5.799  -0.000  0.00  0.00    -0.358 N 
ATOM     11  H   LIG    1       -1.008   6.293   0.879  0.00  0.00    +0.142 HD
ATOM     12  H   LIG    1       -1.008   6.293  -0.879  0.00  0.00    +0.142 HD
ENDBRANCH   7  10
ENDBRANCH   1   4
BRANCH   1  13
ATOM     13  N   LIG    1        1.185  -0.222   0.000  0.00  0.00    -0.184 N 
ATOM     14  H   LIG    1        1.699   0.617  -0.000  0.00  0.00    +0.177 HD
BRANCH  13  15
ATOM     15  C   LIG    1        1.868  -1.413   0.000  0.00  0.00    +0.235 A 
ATOM     16  N   LIG    1        1.218  -2.617   0.000  0.00  0.00    -0.222 NA
ATOM     17  C   LIG    1        1.965  -3.751   0.000  0.00  0.00    +0.116 A 
ATOM     18  C   LIG    1        3.358  -3.722   0.000  0.00  0.00    +0.039 A 
ATOM     19  C   LIG    1        3.955  -2.462  -0.000  0.00  0.00    +0.116 A 
ATOM     20  N   LIG    1        3.228  -1.315   0.000  0.00  0.00    -0.222 NA
ENDBRANCH  13  15
ENDBRANCH   1  13
TORSDOF 4
