REMARK  Name = DB05186
REMARK                            x       y       z     vdW  Elec       q    Type
REMARK                         _______ _______ _______ _____ _____    ______ ____
ROOT
ATOM      1  C   LIG    1       -1.278   2.295  -1.312  0.00  0.00    -0.102 C 
ENDROOT
BRANCH   1   2
ATOM      2  N   LIG    1       -0.323   3.319  -1.956  0.00  0.00    +0.380 N 
ATOM      3  H   LIG    1        0.183   3.802  -1.228  0.00  0.00    -0.086 HD
ATOM      4  H   LIG    1        0.373   2.838  -2.510  0.00  0.00    -0.086 HD
BRANCH   2   5
ATOM      5  C   LIG    1       -0.987   4.391  -2.852  0.00  0.00    -0.066 C 
ATOM      6  C   LIG    1       -1.860   5.367  -1.996  0.00  0.00    -0.024 C 
ATOM      7  C   LIG    1       -0.975   6.164  -0.995  0.00  0.00    +0.005 C 
ATOM      8  C   LIG    1        0.126   6.979  -1.725  0.00  0.00    -0.010 C 
ATOM      9  C   LIG    1       -0.569   7.947  -2.722  0.00  0.00    +0.007 C 
ATOM     10  C   LIG    1       -1.446   7.192  -3.759  0.00  0.00    -0.010 C 
ATOM     11  C   LIG    1       -0.534   6.198  -4.529  0.00  0.00    +0.005 C 
ATOM     12  C   LIG    1        0.999   5.991  -2.542  0.00  0.00    +0.005 C 
ATOM     13  C   LIG    1       -2.513   6.375  -2.979  0.00  0.00    +0.005 C 
ATOM     14  C   LIG    1        0.151   5.186  -3.571  0.00  0.00    -0.024 C 
ENDBRANCH   2   5
ENDBRANCH   1   2
BRANCH   1  15
ATOM     15  C   LIG    1       -0.481   1.229  -0.534  0.00  0.00    -0.102 C 
BRANCH  15  16
ATOM     16  N   LIG    1        0.013   1.799   0.810  0.00  0.00    +0.380 N 
ATOM     17  H   LIG    1       -0.781   2.165   1.317  0.00  0.00    -0.086 HD
ATOM     18  H   LIG    1        0.647   2.567   0.636  0.00  0.00    -0.086 HD
BRANCH  16  19
ATOM     19  C   LIG    1        0.723   0.778   1.714  0.00  0.00    -0.055 C 
BRANCH  19  20
ATOM     20  C   LIG    1        2.032   0.269   1.132  0.00  0.00    -0.047 C 
ATOM     21  C   LIG    1        2.290  -0.948   0.605  0.00  0.00    -0.078 C 
ATOM     22  C   LIG    1        1.266  -2.071   0.482  0.00  0.00    +0.038 C 
BRANCH  21  23
ATOM     23  C   LIG    1        3.687  -1.293   0.097  0.00  0.00    +0.034 C 
BRANCH  23  24
ATOM     24  C   LIG    1        3.954  -0.941  -1.380  0.00  0.00    +0.031 C 
BRANCH  24  25
ATOM     25  C   LIG    1        3.110  -1.712  -2.385  0.00  0.00    -0.028 C 
ATOM     26  C   LIG    1        3.457  -2.821  -3.071  0.00  0.00    -0.080 C 
ATOM     27  C   LIG    1        2.503  -3.466  -4.063  0.00  0.00    +0.038 C 
ATOM     28  C   LIG    1        4.789  -3.545  -2.928  0.00  0.00    +0.038 C 
ENDBRANCH  24  25
ENDBRANCH  23  24
ENDBRANCH  21  23
ENDBRANCH  19  20
ENDBRANCH  16  19
ENDBRANCH  15  16
ENDBRANCH   1  15
TORSDOF 9
