REMARK  Name = DB05053
REMARK                            x       y       z     vdW  Elec       q    Type
REMARK                         _______ _______ _______ _____ _____    ______ ____
ROOT
ATOM      1  P   LIG    1       -0.436   0.397  -0.002  0.00  0.00    +0.278 P 
ATOM      2  O   LIG    1       -1.159   1.681  -0.214  0.00  0.00    -0.279 OA
ENDROOT
BRANCH   1   3
ATOM      3  C   LIG    1       -0.882  -0.351   1.583  0.00  0.00    +0.193 A 
ATOM      4  C   LIG    1       -1.939  -1.215   1.833  0.00  0.00    +0.056 A 
ATOM      5  C   LIG    1       -1.896  -1.537   3.189  0.00  0.00    +0.052 A 
ATOM      6  C   LIG    1       -0.818  -0.854   3.734  0.00  0.00    +0.155 A 
ATOM      7  O   LIG    1       -0.214  -0.140   2.747  0.00  0.00    -0.448 OA
BRANCH   6   8
ATOM      8  C   LIG    1       -0.239  -0.761   5.075  0.00  0.00    +0.126 A 
ATOM      9  C   LIG    1       -0.910  -0.976   6.293  0.00  0.00    +0.087 A 
ATOM     10  S   LIG    1        0.202  -0.725   7.615  0.00  0.00    -0.049 S 
ATOM     11  C   LIG    1        1.429  -0.387   6.449  0.00  0.00    +0.157 A 
ATOM     12  N   LIG    1        1.042  -0.445   5.204  0.00  0.00    -0.221 NA
BRANCH  11  13
ATOM     13  N   LIG    1        2.695  -0.082   6.855  0.00  0.00    -0.337 N 
ATOM     14  H   LIG    1        2.945  -0.041   7.833  0.00  0.00    +0.144 HD
ATOM     15  H   LIG    1        3.426   0.122   6.189  0.00  0.00    +0.144 HD
ENDBRANCH  11  13
BRANCH   9  16
ATOM     16  C   LIG    1       -2.315  -1.281   6.564  0.00  0.00    +0.177 C 
ATOM     17  O   LIG    1       -3.192  -0.575   6.063  0.00  0.00    -0.291 OA
BRANCH  16  18
ATOM     18  C   LIG    1       -2.713  -2.553   7.380  0.00  0.00    +0.026 C 
ATOM     19  C   LIG    1       -2.910  -2.172   8.867  0.00  0.00    +0.019 C 
ATOM     20  C   LIG    1       -4.059  -3.112   6.840  0.00  0.00    +0.019 C 
ATOM     21  C   LIG    1       -1.662  -3.688   7.253  0.00  0.00    +0.019 C 
ENDBRANCH  16  18
ENDBRANCH   9  16
ENDBRANCH   6   8
ENDBRANCH   1   3
BRANCH   1  22
ATOM     22  N   LIG    1       -0.712  -0.890  -1.091  0.00  0.00    -0.233 NA
ATOM     23  H   LIG    1       -0.545  -1.842  -0.763  0.00  0.00    +0.132 HD
BRANCH  22  24
ATOM     24  C   LIG    1       -1.424  -0.800  -2.375  0.00  0.00    +0.118 C 
ATOM     25  C   LIG    1       -1.259  -2.153  -3.114  0.00  0.00    +0.040 C 
ATOM     26  C   LIG    1       -0.802   0.294  -3.287  0.00  0.00    +0.040 C 
BRANCH  24  27
ATOM     27  C   LIG    1       -2.936  -0.553  -2.091  0.00  0.00    +0.327 C 
ATOM     28  O   LIG    1       -3.691  -1.476  -1.772  0.00  0.00    -0.249 OA
BRANCH  27  29
ATOM     29  O   LIG    1       -3.317   0.739  -2.233  0.00  0.00    -0.464 OA
BRANCH  29  30
ATOM     30  C   LIG    1       -4.653   1.142  -1.967  0.00  0.00    +0.229 C 
ATOM     31  C   LIG    1       -4.759   2.661  -2.131  0.00  0.00    +0.048 C 
ENDBRANCH  29  30
ENDBRANCH  27  29
ENDBRANCH  24  27
ENDBRANCH  22  24
ENDBRANCH   1  22
BRANCH   1  32
ATOM     32  N   LIG    1        1.268   0.434   0.100  0.00  0.00    -0.233 NA
ATOM     33  H   LIG    1        1.744  -0.433   0.348  0.00  0.00    +0.132 HD
BRANCH  32  34
ATOM     34  C   LIG    1        2.079   1.649   0.317  0.00  0.00    +0.118 C 
ATOM     35  C   LIG    1        3.559   1.223   0.456  0.00  0.00    +0.040 C 
ATOM     36  C   LIG    1        1.662   2.354   1.637  0.00  0.00    +0.040 C 
BRANCH  34  37
ATOM     37  C   LIG    1        1.993   2.631  -0.890  0.00  0.00    +0.327 C 
ATOM     38  O   LIG    1        1.997   3.855  -0.731  0.00  0.00    -0.249 OA
BRANCH  37  39
ATOM     39  O   LIG    1        1.928   2.008  -2.099  0.00  0.00    -0.464 OA
BRANCH  39  40
ATOM     40  C   LIG    1        1.877   2.748  -3.317  0.00  0.00    +0.229 C 
ATOM     41  C   LIG    1        3.271   3.226  -3.752  0.00  0.00    +0.048 C 
ENDBRANCH  39  40
ENDBRANCH  37  39
ENDBRANCH  34  37
ENDBRANCH  32  34
ENDBRANCH   1  32
TORSDOF 15
