REMARK  Name = DB05284
REMARK                            x       y       z     vdW  Elec       q    Type
REMARK                         _______ _______ _______ _____ _____    ______ ____
ROOT
ATOM      1  C   LIG    1       -0.033  -0.004   0.038  0.00  0.00    +0.149 C 
ENDROOT
BRANCH   1   2
ATOM      2  C   LIG    1        1.497  -0.079   0.065  0.00  0.00    -0.012 A 
ATOM      3  C   LIG    1        2.208  -0.043   1.269  0.00  0.00    +0.055 A 
ATOM      4  C   LIG    1        3.611  -0.084   1.280  0.00  0.00    +0.166 A 
ATOM      5  C   LIG    1        4.297  -0.140   0.059  0.00  0.00    +0.204 A 
ATOM      6  C   LIG    1        3.603  -0.177  -1.159  0.00  0.00    +0.166 A 
ATOM      7  C   LIG    1        2.201  -0.153  -1.139  0.00  0.00    +0.055 A 
BRANCH   6   8
ATOM      8  O   LIG    1        4.356  -0.228  -2.318  0.00  0.00    -0.491 OA
ATOM      9  C   LIG    1        3.698  -0.202  -3.580  0.00  0.00    +0.277 C 
ENDBRANCH   6   8
BRANCH   5  10
ATOM     10  O   LIG    1        5.671  -0.180   0.056  0.00  0.00    -0.488 OA
ATOM     11  C   LIG    1        6.287   1.099  -0.025  0.00  0.00    +0.277 C 
ENDBRANCH   5  10
BRANCH   4  12
ATOM     12  O   LIG    1        4.375  -0.064   2.433  0.00  0.00    -0.491 OA
ATOM     13  C   LIG    1        3.729  -0.029   3.700  0.00  0.00    +0.277 C 
ENDBRANCH   4  12
ENDBRANCH   1   2
BRANCH   1  14
ATOM     14  O   LIG    1       -0.642  -0.672   1.128  0.00  0.00    -0.387 OA
ATOM     15  H   LIG    1       -0.443  -1.609   1.060  0.00  0.00    +0.210 HD
ENDBRANCH   1  14
BRANCH   1  16
ATOM     16  C   LIG    1       -0.556   1.452   0.004  0.00  0.00    +0.071 C 
BRANCH  16  17
ATOM     17  C   LIG    1       -0.115   2.226  -1.233  0.00  0.00    -0.041 A 
ATOM     18  C   LIG    1       -0.802   2.075  -2.438  0.00  0.00    +0.007 A 
ATOM     19  C   LIG    1       -0.375   2.751  -3.581  0.00  0.00    +0.049 A 
ATOM     20  C   LIG    1        0.751   3.592  -3.540  0.00  0.00    +0.161 A 
ATOM     21  C   LIG    1        1.433   3.740  -2.323  0.00  0.00    +0.159 A 
ATOM     22  C   LIG    1        1.000   3.066  -1.180  0.00  0.00    +0.053 A 
BRANCH  21  23
ATOM     23  O   LIG    1        2.541   4.544  -2.237  0.00  0.00    -0.503 OA
ATOM     24  H   LIG    1        2.922   4.564  -1.357  0.00  0.00    +0.292 HD
ENDBRANCH  21  23
BRANCH  20  25
ATOM     25  O   LIG    1        1.235   4.286  -4.635  0.00  0.00    -0.491 OA
ATOM     26  C   LIG    1        0.573   4.162  -5.889  0.00  0.00    +0.277 C 
ENDBRANCH  20  25
ENDBRANCH  16  17
ENDBRANCH   1  16
TORSDOF 9
