REMARK  Name = DB05800
REMARK                            x       y       z     vdW  Elec       q    Type
REMARK                         _______ _______ _______ _____ _____    ______ ____
ROOT
ATOM      1  S   LIG    1        2.473   1.401  -0.901  0.00  0.00    -0.092 S 
ENDROOT
BRANCH   1   2
ATOM      2  C   LIG    1        1.206   1.852   0.313  0.00  0.00    +0.099 C 
BRANCH   2   3
ATOM      3  C   LIG    1        0.417   3.122  -0.049  0.00  0.00    +0.115 C 
BRANCH   3   4
ATOM      4  N   LIG    1       -0.683   3.404   0.872  0.00  0.00    -0.315 N 
ATOM      5  H   LIG    1       -1.611   3.190   0.537  0.00  0.00    +0.149 HD
ATOM      6  C   LIG    1       -0.547   3.928   2.103  0.00  0.00    +0.211 C 
ATOM      7  O   LIG    1        0.543   4.229   2.592  0.00  0.00    -0.276 OA
BRANCH   6   8
ATOM      8  C   LIG    1       -1.849   4.127   2.895  0.00  0.00    +0.076 C 
BRANCH   8   9
ATOM      9  C   LIG    1       -1.686   5.047   4.127  0.00  0.00    -0.077 C 
BRANCH   9  10
ATOM     10  N   LIG    1       -3.026   5.192   4.858  0.00  0.00    +0.378 N 
ATOM     11  H   LIG    1       -3.719   5.593   4.242  0.00  0.00    -0.090 HD
ATOM     12  H   LIG    1       -3.352   4.289   5.172  0.00  0.00    -0.090 HD
ATOM     13  H   LIG    1       -2.919   5.795   5.662  0.00  0.00    -0.090 HD
ENDBRANCH   9  10
ENDBRANCH   8   9
ENDBRANCH   6   8
ENDBRANCH   3   4
ENDBRANCH   2   3
ENDBRANCH   1   2
BRANCH   1  14
ATOM     14  S   LIG    1        3.306  -0.295  -0.132  0.00  0.00    -0.092 S 
BRANCH  14  15
ATOM     15  C   LIG    1        2.200  -1.624  -0.674  0.00  0.00    +0.099 C 
BRANCH  15  16
ATOM     16  C   LIG    1        2.243  -1.917  -2.185  0.00  0.00    +0.115 C 
BRANCH  16  17
ATOM     17  N   LIG    1        1.267  -2.919  -2.611  0.00  0.00    -0.315 N 
ATOM     18  H   LIG    1        0.458  -2.570  -3.105  0.00  0.00    +0.149 HD
ATOM     19  C   LIG    1        1.376  -4.243  -2.406  0.00  0.00    +0.211 C 
ATOM     20  O   LIG    1        2.336  -4.763  -1.835  0.00  0.00    -0.276 OA
BRANCH  19  21
ATOM     21  C   LIG    1        0.230  -5.123  -2.941  0.00  0.00    +0.076 C 
BRANCH  21  22
ATOM     22  C   LIG    1       -0.681  -5.796  -1.879  0.00  0.00    -0.077 C 
BRANCH  22  23
ATOM     23  N   LIG    1        0.083  -6.683  -0.881  0.00  0.00    +0.378 N 
ATOM     24  H   LIG    1        0.564  -7.425  -1.370  0.00  0.00    -0.090 HD
ATOM     25  H   LIG    1        0.767  -6.132  -0.380  0.00  0.00    -0.090 HD
ATOM     26  H   LIG    1       -0.556  -7.092  -0.215  0.00  0.00    -0.090 HD
ENDBRANCH  22  23
ENDBRANCH  21  22
ENDBRANCH  19  21
ENDBRANCH  16  17
ENDBRANCH  15  16
ENDBRANCH  14  15
ENDBRANCH   1  14
TORSDOF 13
