REMARK  Name = DB05395
REMARK                            x       y       z     vdW  Elec       q    Type
REMARK                         _______ _______ _______ _____ _____    ______ ____
ROOT
ATOM      1  C   LIG    1       -4.079  -2.483  -0.485  0.00  0.00    -0.067 C 
ATOM      2  C   LIG    1       -4.889  -1.373   0.213  0.00  0.00    -0.011 C 
ATOM      3  C   LIG    1       -4.316   0.009  -0.143  0.00  0.00    +0.034 C 
ATOM      4  C   LIG    1       -2.794   0.077   0.009  0.00  0.00    -0.044 A 
ATOM      5  C   LIG    1       -2.006  -1.096   0.057  0.00  0.00    -0.042 A 
ATOM      6  C   LIG    1       -0.613  -0.976   0.099  0.00  0.00    +0.049 A 
ATOM      7  C   LIG    1        0.023   0.265   0.120  0.00  0.00    +0.122 A 
ATOM      8  C   LIG    1       -0.767   1.421   0.101  0.00  0.00    +0.046 A 
ATOM      9  C   LIG    1       -2.154   1.320   0.045  0.00  0.00    +0.007 A 
ATOM     10  C   LIG    1       -2.655  -2.482   0.117  0.00  0.00    +0.020 C 
ENDROOT
BRANCH   1  11
ATOM     11  N   LIG    1       -4.774  -3.812  -0.125  0.00  0.00    +0.383 N 
ATOM     12  H   LIG    1       -5.764  -3.708  -0.294  0.00  0.00    -0.085 HD
ATOM     13  H   LIG    1       -4.683  -3.952   0.872  0.00  0.00    -0.085 HD
BRANCH  11  14
ATOM     14  C   LIG    1       -4.239  -5.062  -0.852  0.00  0.00    -0.046 C 
BRANCH  14  15
ATOM     15  C   LIG    1       -5.080  -6.311  -0.502  0.00  0.00    +0.128 C 
BRANCH  15  16
ATOM     16  C   LIG    1       -4.581  -7.530  -1.277  0.00  0.00    -0.020 A 
ATOM     17  C   LIG    1       -3.513  -8.304  -0.801  0.00  0.00    +0.006 A 
ATOM     18  C   LIG    1       -3.057  -9.403  -1.530  0.00  0.00    +0.002 A 
ATOM     19  C   LIG    1       -3.660  -9.736  -2.742  0.00  0.00    +0.020 A 
ATOM     20  C   LIG    1       -4.719  -8.968  -3.228  0.00  0.00    +0.041 A 
ATOM     21 CL   LIG    1       -5.463  -9.377  -4.731  0.00  0.00    -0.084 Cl
ATOM     22  C   LIG    1       -5.175  -7.869  -2.499  0.00  0.00    +0.026 A 
ENDBRANCH  15  16
BRANCH  15  23
ATOM     23  O   LIG    1       -5.093  -6.526   0.901  0.00  0.00    -0.389 OA
ATOM     24  H   LIG    1       -5.702  -7.244   1.093  0.00  0.00    +0.210 HD
ENDBRANCH  15  23
ENDBRANCH  14  15
ENDBRANCH  11  14
ENDBRANCH   1  11
BRANCH   7  25
ATOM     25  O   LIG    1        1.403   0.259   0.165  0.00  0.00    -0.481 OA
BRANCH  25  26
ATOM     26  C   LIG    1        2.096   1.506   0.172  0.00  0.00    +0.349 C 
BRANCH  26  27
ATOM     27  C   LIG    1        3.609   1.278   0.132  0.00  0.00    +0.345 C 
ATOM     28  O   LIG    1        4.105   0.149   0.139  0.00  0.00    -0.247 OA
BRANCH  27  29
ATOM     29  O   LIG    1        4.290   2.441   0.088  0.00  0.00    -0.463 OA
BRANCH  29  30
ATOM     30  C   LIG    1        5.711   2.446   0.035  0.00  0.00    +0.229 C 
ATOM     31  C   LIG    1        6.217   3.892  -0.001  0.00  0.00    +0.048 C 
ENDBRANCH  29  30
ENDBRANCH  27  29
ENDBRANCH  26  27
ENDBRANCH  25  26
ENDBRANCH   7  25
TORSDOF 10
