REMARK  Name = DB05552
REMARK                            x       y       z     vdW  Elec       q    Type
REMARK                         _______ _______ _______ _____ _____    ______ ____
ROOT
ATOM      1  N   LIG    1       -4.720  -1.240   0.007  0.00  0.00    -0.198 NA
ATOM      2  C   LIG    1       -4.087  -0.043   0.017  0.00  0.00    +0.149 A 
ATOM      3  C   LIG    1       -2.670   0.071   0.006  0.00  0.00    +0.148 A 
ATOM      4  C   LIG    1       -1.949  -1.159  -0.020  0.00  0.00    +0.186 A 
ATOM      5  N   LIG    1       -0.590  -1.171  -0.028  0.00  0.00    -0.224 NA
ATOM      6  C   LIG    1        0.063   0.024  -0.006  0.00  0.00    +0.099 A 
ATOM      7  C   LIG    1       -0.648   1.244   0.001  0.00  0.00    +0.098 A 
ATOM      8  N   LIG    1       -2.578  -2.367  -0.032  0.00  0.00    -0.193 NA
ATOM      9  N   LIG    1       -2.010   1.264   0.017  0.00  0.00    -0.238 NA
ATOM     10  C   LIG    1       -3.934  -2.344  -0.016  0.00  0.00    +0.216 A 
ENDROOT
BRANCH   6  11
ATOM     11  C   LIG    1        1.551  -0.082   0.034  0.00  0.00    +0.006 A 
ATOM     12  C   LIG    1        2.238  -0.885  -0.888  0.00  0.00    +0.010 A 
ATOM     13  C   LIG    1        3.630  -0.975  -0.861  0.00  0.00    +0.004 A 
ATOM     14  C   LIG    1        4.355  -0.266   0.094  0.00  0.00    +0.045 A 
ATOM     15  C   LIG    1        3.688   0.532   1.023  0.00  0.00    +0.117 A 
ATOM     16  C   LIG    1        2.295   0.618   0.993  0.00  0.00    +0.055 A 
BRANCH  15  17
ATOM     17  O   LIG    1        4.400   1.229   1.963  0.00  0.00    -0.507 OA
ATOM     18  H   LIG    1        3.843   1.748   2.547  0.00  0.00    +0.292 HD
ENDBRANCH  15  17
ENDBRANCH   6  11
BRANCH   7  19
ATOM     19  C   LIG    1       -0.011   2.592  -0.035  0.00  0.00    +0.006 A 
ATOM     20  C   LIG    1       -0.375   3.583   0.887  0.00  0.00    +0.010 A 
ATOM     21  C   LIG    1        0.225   4.842   0.859  0.00  0.00    +0.004 A 
ATOM     22  C   LIG    1        1.198   5.129  -0.096  0.00  0.00    +0.045 A 
ATOM     23  C   LIG    1        1.569   4.157  -1.024  0.00  0.00    +0.117 A 
ATOM     24  C   LIG    1        0.965   2.899  -0.994  0.00  0.00    +0.055 A 
BRANCH  23  25
ATOM     25  O   LIG    1        2.524   4.438  -1.964  0.00  0.00    -0.507 OA
ATOM     26  H   LIG    1        2.705   3.698  -2.547  0.00  0.00    +0.292 HD
ENDBRANCH  23  25
ENDBRANCH   7  19
BRANCH   2  27
ATOM     27  N   LIG    1       -4.917   1.078   0.040  0.00  0.00    -0.341 N 
ATOM     28  H   LIG    1       -5.918   0.951   0.047  0.00  0.00    +0.144 HD
ATOM     29  H   LIG    1       -4.505   2.000   0.045  0.00  0.00    +0.144 HD
ENDBRANCH   2  27
BRANCH  10  30
ATOM     30  N   LIG    1       -4.581  -3.574  -0.023  0.00  0.00    -0.327 N 
ATOM     31  H   LIG    1       -5.590  -3.600  -0.005  0.00  0.00    +0.145 HD
ATOM     32  H   LIG    1       -4.031  -4.420  -0.036  0.00  0.00    +0.145 HD
ENDBRANCH  10  30
TORSDOF 6
