REMARK  Name = DB05812
REMARK                            x       y       z     vdW  Elec       q    Type
REMARK                         _______ _______ _______ _____ _____    ______ ____
ROOT
ATOM      1  C   LIG    1       -0.463  -0.550  -1.256  0.00  0.00    +0.032 C 
ATOM      2  C   LIG    1       -1.973  -0.846  -1.244  0.00  0.00    +0.014 C 
ATOM      3  C   LIG    1       -2.516  -1.526   0.054  0.00  0.00    -0.008 C 
ATOM      4  C   LIG    1       -1.983  -2.983   0.161  0.00  0.00    +0.016 C 
ATOM      5  C   LIG    1       -4.095  -1.480   0.029  0.00  0.00    +0.003 C 
ATOM      6  C   LIG    1       -4.750  -2.367  -1.085  0.00  0.00    +0.005 C 
ATOM      7  C   LIG    1       -6.300  -2.443  -1.046  0.00  0.00    +0.012 C 
ATOM      8  C   LIG    1       -6.837  -2.781   0.369  0.00  0.00    -0.003 C 
ATOM      9  C   LIG    1       -6.281  -1.698   1.306  0.00  0.00    +0.007 C 
ATOM     10  C   LIG    1       -7.170  -1.709   2.545  0.00  0.00    +0.032 C 
ATOM     11  C   LIG    1       -8.498  -2.103   1.923  0.00  0.00    -0.022 C 
ATOM     12  C   LIG    1       -8.329  -2.595   0.673  0.00  0.00    -0.036 C 
ATOM     13  C   LIG    1       -6.454  -4.237   0.768  0.00  0.00    +0.016 C 
ATOM     14  C   LIG    1       -4.736  -1.713   1.435  0.00  0.00    +0.001 C 
ATOM     15  C   LIG    1       -4.253  -0.666   2.465  0.00  0.00    +0.031 C 
ATOM     16  C   LIG    1       -2.775  -0.353   2.308  0.00  0.00    -0.027 C 
ATOM     17  C   LIG    1       -1.985  -0.731   1.280  0.00  0.00    -0.065 C 
ATOM     18  C   LIG    1       -0.483  -0.419   1.288  0.00  0.00    +0.062 C 
ATOM     19  C   LIG    1       -0.048   0.264  -0.022  0.00  0.00    +0.119 C 
ENDROOT
BRANCH  12  20
ATOM     20  C   LIG    1       -9.447  -3.136  -0.139  0.00  0.00    -0.004 A 
ATOM     21  C   LIG    1       -9.514  -2.951  -1.527  0.00  0.00    +0.011 A 
ATOM     22  C   LIG    1      -10.596  -3.454  -2.253  0.00  0.00    +0.020 A 
ATOM     23  C   LIG    1      -11.602  -4.129  -1.563  0.00  0.00    +0.111 A 
ATOM     24  N   LIG    1      -11.578  -4.310  -0.220  0.00  0.00    -0.263 NA
ATOM     25  C   LIG    1      -10.518  -3.812   0.466  0.00  0.00    +0.118 A 
ENDBRANCH  12  20
BRANCH  19  26
ATOM     26  O   LIG    1        1.346   0.500  -0.024  0.00  0.00    -0.391 OA
ATOM     27  H   LIG    1        1.496   1.446  -0.089  0.00  0.00    +0.210 HD
ENDBRANCH  19  26
TORSDOF 2
