REMARK  Name = DB05786
REMARK                            x       y       z     vdW  Elec       q    Type
REMARK                         _______ _______ _______ _____ _____    ______ ____
ROOT
ATOM      1  C   LIG    1       -2.957  -3.068  -0.498  0.00  0.00    +0.135 C 
ATOM      2  C   LIG    1       -2.943  -3.002  -2.045  0.00  0.00    +0.051 C 
ATOM      3  C   LIG    1       -3.308  -1.651   0.029  0.00  0.00    +0.196 C 
ATOM      4  C   LIG    1       -2.155  -0.760   0.077  0.00  0.00    +0.028 C 
ATOM      5  C   LIG    1       -2.191   0.569   0.123  0.00  0.00    +0.015 C 
ATOM      6  C   LIG    1       -0.837   1.077   0.081  0.00  0.00    -0.044 C 
ATOM      7  C   LIG    1       -0.509   2.559   0.139  0.00  0.00    +0.044 C 
ATOM      8  C   LIG    1        0.030   0.024   0.022  0.00  0.00    -0.011 C 
ATOM      9  C   LIG    1       -0.785  -1.201   0.057  0.00  0.00    -0.009 C 
ATOM     10  C   LIG    1       -0.473  -2.530   0.082  0.00  0.00    -0.055 C 
ATOM     11  C   LIG    1        0.965  -3.037   0.187  0.00  0.00    +0.040 C 
ATOM     12  O   LIG    1       -4.445  -1.287   0.344  0.00  0.00    -0.289 OA
ATOM     13  C   LIG    1       -1.614  -3.584   0.154  0.00  0.00    +0.028 C 
ATOM     14  C   LIG    1       -1.321  -5.077   0.054  0.00  0.00    +0.015 C 
ATOM     15  C   LIG    1       -1.669  -4.467   1.394  0.00  0.00    +0.015 C 
ENDROOT
BRANCH   1  16
ATOM     16  O   LIG    1       -4.043  -3.940  -0.200  0.00  0.00    -0.380 OA
ATOM     17  H   LIG    1       -3.860  -4.797  -0.590  0.00  0.00    +0.211 HD
ENDBRANCH   1  16
BRANCH   8  18
ATOM     18  C   LIG    1        1.558   0.085  -0.101  0.00  0.00    +0.192 C 
BRANCH  18  19
ATOM     19  O   LIG    1        2.022   1.323  -0.598  0.00  0.00    -0.390 OA
ATOM     20  H   LIG    1        2.980   1.290  -0.656  0.00  0.00    +0.210 HD
ENDBRANCH  18  19
ENDBRANCH   8  18
TORSDOF 3
