REMARK  Name = DB05650
REMARK                            x       y       z     vdW  Elec       q    Type
REMARK                         _______ _______ _______ _____ _____    ______ ____
ROOT
ATOM      1  C   LIG    1        1.517   0.123   0.369  0.00  0.00    +0.180 C 
ATOM      2  C   LIG    1        2.211   0.652   1.636  0.00  0.00    +0.068 C 
ATOM      3  C   LIG    1        3.766   0.644   1.514  0.00  0.00    +0.045 C 
ATOM      4  C   LIG    1        4.211   1.824   0.607  0.00  0.00    +0.030 C 
ATOM      5  C   LIG    1        4.300   0.881   2.952  0.00  0.00    +0.030 C 
ATOM      6  N   LIG    1        4.219  -0.690   1.038  0.00  0.00    -0.180 NA
ATOM      7  C   LIG    1        3.535  -1.416  -0.066  0.00  0.00    +0.045 C 
ATOM      8  C   LIG    1        3.872  -2.929   0.035  0.00  0.00    +0.030 C 
ATOM      9  C   LIG    1        3.911  -0.907  -1.484  0.00  0.00    +0.030 C 
ATOM     10  C   LIG    1        1.990  -1.315   0.122  0.00  0.00    +0.068 C 
ENDROOT
BRANCH   6  11
ATOM     11  O   LIG    1        5.594  -0.801   0.982  0.00  0.00    -0.311 OA
ATOM     12  H   LIG    1        5.761  -1.390   1.722  0.00  0.00    +0.237 HD
ENDBRANCH   6  11
BRANCH   1  13
ATOM     13  O   LIG    1        0.093   0.149   0.478  0.00  0.00    -0.461 OA
BRANCH  13  14
ATOM     14  C   LIG    1       -0.616   1.283   0.273  0.00  0.00    +0.310 C 
ATOM     15  O   LIG    1       -0.145   2.384  -0.023  0.00  0.00    -0.251 OA
BRANCH  14  16
ATOM     16  C   LIG    1       -2.123   1.054   0.454  0.00  0.00    +0.098 C 
ATOM     17  C   LIG    1       -2.948   2.188   1.045  0.00  0.00    +0.015 C 
ATOM     18  C   LIG    1       -3.077   1.866  -0.411  0.00  0.00    +0.015 C 
ENDBRANCH  14  16
ENDBRANCH  13  14
ENDBRANCH   1  13
TORSDOF 4
