REMARK  Name = DB05416
REMARK                            x       y       z     vdW  Elec       q    Type
REMARK                         _______ _______ _______ _____ _____    ______ ____
ROOT
ATOM      1  S   LIG    1        2.083  -0.084   2.953  0.00  0.00    -0.071 S 
ATOM      2  C   LIG    1        2.920   1.294   3.603  0.00  0.00    +0.109 A 
ATOM      3  N   LIG    1        3.365   2.108   2.680  0.00  0.00    -0.244 NA
ATOM      4  C   LIG    1        3.072   1.714   1.455  0.00  0.00    +0.050 A 
ATOM      5  C   LIG    1        3.531   2.641   0.349  0.00  0.00    +0.066 C 
ATOM      6  C   LIG    1        2.360   0.513   1.336  0.00  0.00    +0.023 A 
ENDROOT
BRANCH   2   7
ATOM      7  C   LIG    1        3.098   1.519   5.081  0.00  0.00    +0.007 A 
ATOM      8  C   LIG    1        3.802   2.644   5.532  0.00  0.00    +0.011 A 
ATOM      9  C   LIG    1        3.975   2.878   6.893  0.00  0.00    +0.013 A 
ATOM     10  C   LIG    1        3.443   1.992   7.833  0.00  0.00    +0.055 A 
ATOM     11  C   LIG    1        2.743   0.865   7.393  0.00  0.00    +0.013 A 
ATOM     12  C   LIG    1        2.571   0.633   6.031  0.00  0.00    +0.011 A 
BRANCH  10  13
ATOM     13  C   LIG    1        3.644   2.245   9.327  0.00  0.00    +0.417 C 
ATOM     14  F   LIG    1        2.666   3.035   9.768  0.00  0.00    -0.166 F 
ATOM     15  F   LIG    1        3.618   1.109  10.026  0.00  0.00    -0.166 F 
ATOM     16  F   LIG    1        4.813   2.843   9.563  0.00  0.00    -0.166 F 
ENDBRANCH  10  13
ENDBRANCH   2   7
BRANCH   6  17
ATOM     17  C   LIG    1        1.830  -0.201   0.110  0.00  0.00    +0.118 C 
BRANCH  17  18
ATOM     18  S   LIG    1        0.055   0.079  -0.154  0.00  0.00    -0.120 S 
BRANCH  18  19
ATOM     19  C   LIG    1       -0.111   1.834  -0.216  0.00  0.00    +0.009 A 
ATOM     20  C   LIG    1        0.033   2.508  -1.427  0.00  0.00    +0.018 A 
ATOM     21  C   LIG    1       -0.060   3.899  -1.462  0.00  0.00    +0.047 A 
ATOM     22  C   LIG    1       -0.293   4.634  -0.286  0.00  0.00    +0.124 A 
ATOM     23  C   LIG    1       -0.439   3.943   0.928  0.00  0.00    -0.008 A 
ATOM     24  C   LIG    1       -0.678   4.701   2.224  0.00  0.00    +0.047 C 
ATOM     25  C   LIG    1       -0.353   2.548   0.957  0.00  0.00    +0.021 A 
BRANCH  22  26
ATOM     26  O   LIG    1       -0.385   6.014  -0.248  0.00  0.00    -0.481 OA
BRANCH  26  27
ATOM     27  C   LIG    1       -0.230   6.770  -1.455  0.00  0.00    +0.349 C 
BRANCH  27  28
ATOM     28  C   LIG    1       -0.359   8.281  -1.155  0.00  0.00    +0.343 C 
ATOM     29  O   LIG    1       -0.241   9.047  -2.139  0.00  0.00    -0.247 OA
BRANCH  28  30
ATOM     30  O   LIG    1       -0.570   8.673   0.017  0.00  0.00    -0.478 OA
ATOM     31  H   LIG    1       -1.204   9.344   0.180  0.00  0.00    +0.295 HD
ENDBRANCH  28  30
ENDBRANCH  27  28
ENDBRANCH  26  27
ENDBRANCH  22  26
ENDBRANCH  18  19
ENDBRANCH  17  18
ENDBRANCH   6  17
TORSDOF 9
