REMARK  Name = DB05766
REMARK                            x       y       z     vdW  Elec       q    Type
REMARK                         _______ _______ _______ _____ _____    ______ ____
ROOT
ATOM      1  C   LIG    1       -2.041   1.464   0.236  0.00  0.00    +0.199 A 
ATOM      2  C   LIG    1       -3.077   0.609  -0.230  0.00  0.00    +0.083 A 
ATOM      3  N   LIG    1       -2.837  -0.696  -0.676  0.00  0.00    -0.310 N 
ATOM      4  H   LIG    1       -3.680  -1.137  -1.013  0.00  0.00    +0.152 HD
ATOM      5  C   LIG    1       -1.841  -1.630  -0.374  0.00  0.00    +0.046 A 
ATOM      6  C   LIG    1       -2.167  -2.992  -0.396  0.00  0.00    +0.024 A 
ATOM      7  C   LIG    1       -1.273  -3.965   0.035  0.00  0.00    +0.002 A 
ATOM      8  C   LIG    1       -0.026  -3.584   0.508  0.00  0.00    +0.001 A 
ATOM      9  C   LIG    1        0.331  -2.240   0.498  0.00  0.00    +0.018 A 
ATOM     10  C   LIG    1       -0.536  -1.241   0.007  0.00  0.00    +0.087 A 
ATOM     11  C   LIG    1       -0.031   0.161  -0.094  0.00  0.00    +0.323 C 
ATOM     12  C   LIG    1       -4.401   1.068  -0.216  0.00  0.00    +0.029 A 
ATOM     13  C   LIG    1       -4.736   2.325   0.271  0.00  0.00    +0.022 A 
ATOM     14  C   LIG    1       -3.736   3.160   0.746  0.00  0.00    +0.045 A 
ATOM     15 CL   LIG    1       -4.129   4.728   1.350  0.00  0.00    -0.083 Cl
ATOM     16  C   LIG    1       -2.413   2.731   0.713  0.00  0.00    +0.077 A 
ATOM     17  N   LIG    1       -0.656   1.255   0.120  0.00  0.00    -0.040 NA
ENDROOT
BRANCH  11  18
ATOM     18  N   LIG    1        1.325   0.282  -0.462  0.00  0.00    -0.224 N 
ATOM     19  C   LIG    1        2.142   1.470  -0.134  0.00  0.00    +0.207 C 
ATOM     20  C   LIG    1        3.604   1.101   0.197  0.00  0.00    -0.038 C 
ATOM     21  N   LIG    1        4.228   0.305  -0.954  0.00  0.00    +0.384 N 
ATOM     22  H   LIG    1        4.296   0.900  -1.767  0.00  0.00    -0.086 HD
ATOM     23  H   LIG    1        5.166   0.019  -0.709  0.00  0.00    -0.086 HD
ATOM     24  C   LIG    1        3.377  -0.923  -1.300  0.00  0.00    -0.038 C 
ATOM     25  C   LIG    1        1.909  -0.517  -1.562  0.00  0.00    +0.207 C 
ENDBRANCH  11  18
TORSDOF 1
