REMARK  Name = DB05029
REMARK                            x       y       z     vdW  Elec       q    Type
REMARK                         _______ _______ _______ _____ _____    ______ ____
ROOT
ATOM      1  C   UNK A 19       -0.659   1.776   5.968  0.00  0.00    +0.182 C 
ATOM      2  N   UNK A 19       -1.866   2.093   5.172  0.00  0.00    -0.301 N 
ATOM      3  H   UNK A 19       -2.067   3.080   5.106  0.00  0.00    +0.150 HD
ATOM      4  C   UNK A 18       -2.579   1.256   4.390  0.00  0.00    +0.235 C 
ATOM      5  O   UNK A 18       -2.457   0.030   4.420  0.00  0.00    -0.274 OA
ATOM      6  C   UNK A 18       -3.580   1.898   3.392  0.00  0.00    +0.171 C 
ATOM      7  C   UNK A  1       -3.123   3.269   2.773  0.00  0.00    +0.072 C 
ATOM      8  S   UNK A  1       -1.529   3.115   1.870  0.00  0.00    -0.156 S 
ATOM      9  C   UNK A  1       -1.721   3.708   0.145  0.00  0.00    +0.062 C 
ATOM     10  C   UNK A  1       -2.032   2.652  -0.962  0.00  0.00    +0.023 C 
ATOM     11  C   UNK A  1       -1.121   1.390  -1.089  0.00  0.00    +0.200 C 
ATOM     12  O   UNK A  1       -1.375   0.525  -1.932  0.00  0.00    -0.278 OA
ATOM     13  N   LYS A  2       -0.071   1.294  -0.257  0.00  0.00    -0.305 N 
ATOM     14  H   LYS A  2        0.118   2.063   0.370  0.00  0.00    +0.149 HD
ATOM     15  CA  LYS A  2        0.620   0.044   0.088  0.00  0.00    +0.159 C 
ATOM     16  C   LYS A  2       -0.065  -0.589   1.324  0.00  0.00    +0.234 C 
ATOM     17  O   LYS A  2       -1.031  -0.024   1.834  0.00  0.00    -0.274 OA
ATOM     18  N   GLN A  3        0.408  -1.761   1.776  0.00  0.00    -0.302 N 
ATOM     19  H   GLN A  3        1.179  -2.212   1.305  0.00  0.00    +0.150 HD
ATOM     20  CA  GLN A  3       -0.147  -2.461   2.946  0.00  0.00    +0.159 C 
ATOM     21  C   GLN A  3        0.884  -3.375   3.647  0.00  0.00    +0.234 C 
ATOM     22  O   GLN A  3        0.522  -4.104   4.571  0.00  0.00    -0.274 OA
ATOM     23  N   CYS A  4        2.165  -3.296   3.236  0.00  0.00    -0.302 N 
ATOM     24  H   CYS A  4        2.396  -2.652   2.494  0.00  0.00    +0.150 HD
ATOM     25  CA  CYS A  4        3.293  -4.093   3.748  0.00  0.00    +0.169 C 
ATOM     26  CB  CYS A  4        3.190  -5.599   3.367  0.00  0.00    +0.101 C 
ATOM     27  SG  CYS A 14        2.854  -5.899   1.595  0.00  0.00    -0.156 S 
ATOM     28  CB  CYS A 14        1.711  -7.318   1.694  0.00  0.00    +0.101 C 
ATOM     29  CA  CYS A 14        0.272  -6.889   2.096  0.00  0.00    +0.169 C 
ATOM     30  N   CYS A 14       -0.374  -7.824   3.016  0.00  0.00    -0.302 N 
ATOM     31  H   CYS A 14       -0.576  -7.449   3.931  0.00  0.00    +0.150 HD
ATOM     32  C   VAL A 13       -0.736  -9.092   2.753  0.00  0.00    +0.234 C 
ATOM     33  O   VAL A 13       -0.535  -9.671   1.686  0.00  0.00    -0.274 OA
ATOM     34  CA  VAL A 13       -1.416  -9.852   3.914  0.00  0.00    +0.161 C 
ATOM     35  N   VAL A 13       -0.745  -9.568   5.185  0.00  0.00    -0.302 N 
ATOM     36  H   VAL A 13       -1.214  -8.900   5.780  0.00  0.00    +0.150 HD
ATOM     37  C   PHE A 12        0.484  -9.986   5.523  0.00  0.00    +0.234 C 
ATOM     38  O   PHE A 12        1.103 -10.839   4.885  0.00  0.00    -0.274 OA
ATOM     39  CA  PHE A 12        1.130  -9.357   6.785  0.00  0.00    +0.163 C 
ATOM     40  N   PHE A 12        2.589  -9.521   6.811  0.00  0.00    -0.302 N 
ATOM     41  H   PHE A 12        2.944 -10.029   7.608  0.00  0.00    +0.150 HD
ATOM     42  C   UNK A 11        3.479  -9.035   5.920  0.00  0.00    +0.235 C 
ATOM     43  O   UNK A 11        3.161  -8.438   4.893  0.00  0.00    -0.274 OA
ATOM     44  C   UNK A 11        4.980  -9.233   6.229  0.00  0.00    +0.171 C 
ATOM     45  N   UNK A 11        5.179  -9.815   7.558  0.00  0.00    -0.301 N 
ATOM     46  H   UNK A 11        4.658  -9.371   8.300  0.00  0.00    +0.150 HD
ATOM     47  C   PHE A 10        6.002 -10.825   7.875  0.00  0.00    +0.234 C 
ATOM     48  O   PHE A 10        6.692 -11.451   7.071  0.00  0.00    -0.274 OA
ATOM     49  CA  PHE A 10        6.070 -11.162   9.372  0.00  0.00    +0.163 C 
ATOM     50  N   PHE A 10        6.208  -9.919  10.135  0.00  0.00    -0.302 N 
ATOM     51  H   PHE A 10        6.247  -9.086   9.566  0.00  0.00    +0.150 HD
ATOM     52  C   PRO A  9        6.238  -9.767  11.466  0.00  0.00    +0.234 C 
ATOM     53  O   PRO A  9        6.209 -10.685  12.284  0.00  0.00    -0.274 OA
ATOM     54  CA  PRO A  9        6.261  -8.301  11.944  0.00  0.00    +0.162 C 
ATOM     55  CB  PRO A  9        7.328  -8.049  13.028  0.00  0.00    +0.033 C 
ATOM     56  CG  PRO A  9        6.738  -6.956  13.897  0.00  0.00    +0.021 C 
ATOM     57  CD  PRO A  9        5.254  -7.288  13.894  0.00  0.00    +0.108 C 
ATOM     58  N   PRO A  9        4.997  -7.838  12.561  0.00  0.00    -0.289 N 
ATOM     59  C   GLY A  8        3.777  -7.907  11.966  0.00  0.00    +0.233 C 
ATOM     60  O   GLY A  8        3.616  -8.341  10.824  0.00  0.00    -0.274 OA
ATOM     61  CA  GLY A  8        2.539  -7.375  12.702  0.00  0.00    +0.200 C 
ATOM     62  N   GLY A  8        2.493  -5.931  12.494  0.00  0.00    -0.305 N 
ATOM     63  H   GLY A  8        2.592  -5.622  11.539  0.00  0.00    +0.149 HD
ATOM     64  C   PHE A  7        2.349  -5.009  13.463  0.00  0.00    +0.234 C 
ATOM     65  O   PHE A  7        2.206  -5.278  14.655  0.00  0.00    -0.274 OA
ATOM     66  CA  PHE A  7        2.413  -3.530  13.034  0.00  0.00    +0.163 C 
ATOM     67  N   PHE A  7        3.223  -3.351  11.829  0.00  0.00    -0.302 N 
ATOM     68  H   PHE A  7        3.327  -4.172  11.252  0.00  0.00    +0.150 HD
ATOM     69  C   UNK A  6        3.833  -2.215  11.450  0.00  0.00    +0.232 C 
ATOM     70  O   UNK A  6        3.794  -1.170  12.098  0.00  0.00    -0.274 OA
ATOM     71  C   UNK A  6        4.622  -2.265  10.121  0.00  0.00    +0.142 C 
ATOM     72  C   UNK A 19        4.781  -0.881   9.413  0.00  0.00    -0.051 C 
ATOM     73  N   UNK A 19        3.764  -0.557   8.414  0.00  0.00    +0.381 N 
ATOM     74  H   UNK A 19        3.697  -1.314   7.747  0.00  0.00    -0.086 HD
ATOM     75  H   UNK A 19        4.071   0.253   7.893  0.00  0.00    -0.086 HD
ATOM     76  C   UNK A 19        2.443  -0.272   8.960  0.00  0.00    -0.083 C 
ATOM     77  C   UNK A 19        1.539   0.075   7.773  0.00  0.00    -0.019 C 
ATOM     78  C   UNK A 19        0.101   0.468   8.146  0.00  0.00    +0.001 C 
ATOM     79  N   UNK A  6        4.122  -3.339   9.254  0.00  0.00    -0.304 N 
ATOM     80  H   UNK A  6        3.221  -3.715   9.513  0.00  0.00    +0.149 HD
ATOM     81  C   UNK A  5        4.737  -3.839   8.173  0.00  0.00    +0.235 C 
ATOM     82  O   UNK A  5        5.826  -3.460   7.744  0.00  0.00    -0.274 OA
ATOM     83  C   UNK A  5        3.972  -4.979   7.470  0.00  0.00    +0.169 C 
ATOM     84  C   UNK A  5        4.427  -6.364   7.989  0.00  0.00    +0.101 C 
ATOM     85  S   UNK A  5        6.100  -6.881   7.471  0.00  0.00    -0.153 S 
ATOM     86  N   UNK A  5        3.939  -4.905   6.003  0.00  0.00    -0.302 N 
ATOM     87  H   UNK A  5        4.144  -5.772   5.528  0.00  0.00    +0.150 HD
ATOM     88  C   UNK A  5        5.844  -7.942   5.992  0.00  0.00    +0.073 C 
ATOM     89  C   UNK A  5        7.205  -8.299   5.367  0.00  0.00    +0.021 C 
ATOM     90  C   CYS A 14       -0.667  -6.472   0.945  0.00  0.00    +0.235 C 
ATOM     91  O   CYS A 14       -1.859  -6.299   1.196  0.00  0.00    -0.274 OA
ATOM     92  N   UNK A 15       -0.130  -6.261  -0.270  0.00  0.00    -0.300 N 
ATOM     93  H   UNK A 15        0.856  -6.431  -0.407  0.00  0.00    +0.150 HD
ATOM     94  C   UNK A 15       -0.836  -5.666  -1.416  0.00  0.00    +0.199 C 
ATOM     95  C   UNK A 15       -1.054  -4.155  -1.160  0.00  0.00    +0.237 C 
ATOM     96  O   UNK A 15       -0.062  -3.457  -0.942  0.00  0.00    -0.274 OA
ATOM     97  N   GLY A 16       -2.306  -3.666  -1.212  0.00  0.00    -0.305 N 
ATOM     98  H   GLY A 16       -3.081  -4.285  -1.404  0.00  0.00    +0.149 HD
ATOM     99  CA  GLY A 16       -2.604  -2.249  -1.040  0.00  0.00    +0.200 C 
ATOM    100  C   GLY A 16       -4.005  -2.055  -0.461  0.00  0.00    +0.231 C 
ATOM    101  O   GLY A 16       -4.957  -2.699  -0.903  0.00  0.00    -0.274 OA
ATOM    102  N   ASN A 17       -4.124  -1.098   0.477  0.00  0.00    -0.302 N 
ATOM    103  H   ASN A 17       -3.290  -0.624   0.793  0.00  0.00    +0.150 HD
ATOM    104  CA  ASN A 17       -5.385  -0.620   1.061  0.00  0.00    +0.168 C 
ATOM    105  C   ASN A 17       -5.181   0.654   1.911  0.00  0.00    +0.234 C 
ATOM    106  O   ASN A 17       -6.146   1.388   2.121  0.00  0.00    -0.274 OA
ATOM    107  C   CYS A  4        3.519  -3.857   5.267  0.00  0.00    +0.235 C 
ATOM    108  O   CYS A  4        3.282  -2.742   5.739  0.00  0.00    -0.274 OA
ATOM    109  C   UNK A  1       -4.259   4.023   2.056  0.00  0.00    +0.021 C 
ATOM    110  N   UNK A 18       -3.948   0.886   2.393  0.00  0.00    -0.301 N 
ATOM    111  H   UNK A 18       -3.209   0.231   2.179  0.00  0.00    +0.150 HD
ATOM    112  C   UNK A 19       -0.873   0.564   6.945  0.00  0.00    +0.034 C 
ENDROOT
BRANCH  10 113
ATOM    113  N   UNK A  1       -3.446   2.141  -0.943  0.00  0.00    +0.386 N 
ATOM    114  H   UNK A  1       -3.541   1.473  -0.191  0.00  0.00    -0.089 HD
ATOM    115  H   UNK A  1       -4.075   2.916  -0.790  0.00  0.00    -0.089 HD
ATOM    116  H   UNK A  1       -3.650   1.700  -1.829  0.00  0.00    -0.089 HD
ENDBRANCH  10 113
BRANCH  34 117
ATOM    117  CB  VAL A 13       -2.915  -9.428   3.973  0.00  0.00    +0.012 C 
ATOM    118  CG2 VAL A 13       -3.675  -9.547   2.633  0.00  0.00    +0.009 C 
ATOM    119  CG1 VAL A 13       -3.673 -10.204   5.065  0.00  0.00    +0.009 C 
ENDBRANCH  34 117
BRANCH   1 120
ATOM    120  C   UNK A 19        0.566   1.640   4.976  0.00  0.00    +0.325 C 
ATOM    121  O   UNK A 19        0.979   2.730   4.514  0.00  0.00    -0.249 OA
BRANCH 120 122
ATOM    122  O   UNK A 19        0.972   0.484   4.718  0.00  0.00    -0.479 OA
ATOM    123  H   UNK A 19        0.576  -0.256   5.134  0.00  0.00    +0.295 HD
ENDBRANCH 120 122
ENDBRANCH   1 120
BRANCH  15 124
ATOM    124  CB  LYS A  2        2.118   0.361   0.307  0.00  0.00    +0.032 C 
BRANCH 124 125
ATOM    125  CG  LYS A  2        2.431   1.202   1.558  0.00  0.00    +0.000 C 
BRANCH 125 126
ATOM    126  CD  LYS A  2        3.873   1.723   1.598  0.00  0.00    -0.019 C 
BRANCH 126 127
ATOM    127  CE  LYS A  2        4.144   2.549   2.866  0.00  0.00    -0.086 C 
BRANCH 127 128
ATOM    128  NZ  LYS A  2        5.518   3.078   2.893  0.00  0.00    +0.378 N 
ATOM    129  HZ1 LYS A  2        6.176   2.312   2.874  0.00  0.00    -0.090 HD
ATOM    130  HZ2 LYS A  2        5.667   3.670   2.089  0.00  0.00    -0.090 HD
ATOM    131  HZ3 LYS A  2        5.654   3.618   3.736  0.00  0.00    -0.090 HD
ENDBRANCH 127 128
ENDBRANCH 126 127
ENDBRANCH 125 126
ENDBRANCH 124 125
ENDBRANCH  15 124
BRANCH  20 132
ATOM    132  CB  GLN A  3       -1.518  -3.103   2.582  0.00  0.00    +0.041 C 
BRANCH 132 133
ATOM    133  CG  GLN A  3       -2.223  -3.927   3.682  0.00  0.00    +0.098 C 
BRANCH 133 134
ATOM    134  CD  GLN A  3       -3.720  -4.120   3.432  0.00  0.00    +0.211 C 
ATOM    135  NE2 GLN A  3       -4.088  -4.680   2.278  0.00  0.00    -0.329 N 
ATOM    136 HE21 GLN A  3       -5.065  -4.828   2.071  0.00  0.00    +0.145 HD
ATOM    137 HE22 GLN A  3       -3.391  -4.984   1.612  0.00  0.00    +0.145 HD
ATOM    138  OE1 GLN A  3       -4.539  -3.773   4.279  0.00  0.00    -0.276 OA
ENDBRANCH 133 134
ENDBRANCH 132 133
ENDBRANCH  20 132
BRANCH  39 139
ATOM    139  CB  PHE A 12        0.795  -7.860   7.060  0.00  0.00    +0.067 C 
BRANCH 139 140
ATOM    140  CG  PHE A 12       -0.660  -7.493   7.303  0.00  0.00    -0.045 A 
ATOM    141  CD2 PHE A 12       -1.349  -8.021   8.415  0.00  0.00    +0.004 A 
ATOM    142  CE2 PHE A 12       -2.693  -7.725   8.602  0.00  0.00    +0.000 A 
ATOM    143  CZ  PHE A 12       -3.364  -6.913   7.696  0.00  0.00    +0.000 A 
ATOM    144  CE1 PHE A 12       -2.699  -6.390   6.595  0.00  0.00    +0.000 A 
ATOM    145  CD1 PHE A 12       -1.355  -6.673   6.388  0.00  0.00    +0.004 A 
ENDBRANCH 139 140
ENDBRANCH  39 139
BRANCH  49 146
ATOM    146  CB  PHE A 10        4.866 -12.018   9.862  0.00  0.00    +0.067 C 
BRANCH 146 147
ATOM    147  CG  PHE A 10        4.309 -13.051   8.892  0.00  0.00    -0.045 A 
ATOM    148  CD2 PHE A 10        5.016 -14.244   8.637  0.00  0.00    +0.004 A 
ATOM    149  CE2 PHE A 10        4.547 -15.137   7.683  0.00  0.00    +0.000 A 
ATOM    150  CZ  PHE A 10        3.395 -14.851   6.960  0.00  0.00    +0.000 A 
ATOM    151  CE1 PHE A 10        2.704 -13.666   7.180  0.00  0.00    +0.000 A 
ATOM    152  CD1 PHE A 10        3.155 -12.762   8.131  0.00  0.00    +0.004 A 
ENDBRANCH 146 147
ENDBRANCH  49 146
BRANCH  66 153
ATOM    153  CB  PHE A  7        1.022  -2.871  12.843  0.00  0.00    +0.067 C 
BRANCH 153 154
ATOM    154  CG  PHE A  7        0.009  -3.088  13.955  0.00  0.00    -0.045 A 
ATOM    155  CD2 PHE A  7        0.103  -2.343  15.150  0.00  0.00    +0.004 A 
ATOM    156  CE2 PHE A  7       -0.765  -2.605  16.202  0.00  0.00    +0.000 A 
ATOM    157  CZ  PHE A  7       -1.711  -3.618  16.093  0.00  0.00    +0.000 A 
ATOM    158  CE1 PHE A  7       -1.791  -4.384  14.937  0.00  0.00    +0.000 A 
ATOM    159  CD1 PHE A  7       -0.933  -4.137  13.873  0.00  0.00    +0.004 A 
ENDBRANCH 153 154
ENDBRANCH  66 153
BRANCH  94 160
ATOM    160  C   UNK A 15       -2.078  -6.455  -1.984  0.00  0.00    +0.252 C 
BRANCH 160 161
ATOM    161  O   UNK A 15       -2.318  -6.015  -3.320  0.00  0.00    -0.379 OA
ATOM    162  H   UNK A 15       -2.904  -6.647  -3.744  0.00  0.00    +0.211 HD
ENDBRANCH 160 161
BRANCH 160 163
ATOM    163  C   UNK A 15       -1.948  -8.009  -1.953  0.00  0.00    +0.336 C 
ATOM    164  O   UNK A 15       -1.369  -8.596  -2.898  0.00  0.00    -0.248 OA
BRANCH 163 165
ATOM    165  O   UNK A 15       -2.443  -8.607  -0.969  0.00  0.00    -0.479 OA
ATOM    166  H   UNK A 15       -2.866  -8.120  -0.289  0.00  0.00    +0.295 HD
ENDBRANCH 163 165
ENDBRANCH 160 163
ENDBRANCH  94 160
BRANCH 104 167
ATOM    167  CB  ASN A 17       -6.062  -1.715   1.934  0.00  0.00    +0.127 C 
BRANCH 167 168
ATOM    168  CG  ASN A 17       -7.584  -1.590   2.074  0.00  0.00    +0.213 C 
ATOM    169  ND2 ASN A 17       -8.125  -2.117   3.174  0.00  0.00    -0.329 N 
ATOM    170 HD21 ASN A 17       -9.123  -2.072   3.321  0.00  0.00    +0.145 HD
ATOM    171 HD22 ASN A 17       -7.542  -2.564   3.867  0.00  0.00    +0.145 HD
ATOM    172  OD1 ASN A 17       -8.267  -1.048   1.206  0.00  0.00    -0.276 OA
ENDBRANCH 167 168
ENDBRANCH 104 167
TORSDOF 24
