REMARK  Name = DB05460
REMARK                            x       y       z     vdW  Elec       q    Type
REMARK                         _______ _______ _______ _____ _____    ______ ____
ROOT
ATOM      1  C   LIG    1        1.628  -0.396   0.367  0.00  0.00    +0.169 C 
ENDROOT
BRANCH   1   2
ATOM      2  C   LIG    1        1.877  -0.258  -1.143  0.00  0.00    +0.235 C 
ATOM      3  N   LIG    1        2.964   0.457  -1.496  0.00  0.00    -0.297 N 
ATOM      4  H   LIG    1        3.510   0.869  -0.753  0.00  0.00    +0.150 HD
ATOM      5  O   LIG    1        1.105  -0.800  -1.935  0.00  0.00    -0.274 OA
BRANCH   3   6
ATOM      6  C   LIG    1        3.450   0.771  -2.856  0.00  0.00    +0.213 C 
BRANCH   6   7
ATOM      7  C   LIG    1        2.403   1.554  -3.642  0.00  0.00    -0.017 A 
ATOM      8  C   LIG    1        1.555   0.955  -4.588  0.00  0.00    +0.006 A 
ATOM      9  C   LIG    1        0.611   1.715  -5.273  0.00  0.00    +0.000 A 
ATOM     10  C   LIG    1        0.509   3.080  -5.019  0.00  0.00    +0.000 A 
ATOM     11  C   LIG    1        1.341   3.690  -4.084  0.00  0.00    +0.000 A 
ATOM     12  C   LIG    1        2.284   2.928  -3.399  0.00  0.00    +0.006 A 
ENDBRANCH   6   7
BRANCH   6  13
ATOM     13  C   LIG    1        4.000  -0.479  -3.556  0.00  0.00    +0.332 C 
ATOM     14  O   LIG    1        3.960  -1.620  -3.085  0.00  0.00    -0.248 OA
BRANCH  13  15
ATOM     15  O   LIG    1        4.565  -0.158  -4.744  0.00  0.00    -0.463 OA
BRANCH  15  16
ATOM     16  C   LIG    1        5.146  -1.158  -5.569  0.00  0.00    +0.229 C 
ATOM     17  C   LIG    1        5.680  -0.511  -6.850  0.00  0.00    +0.048 C 
ENDBRANCH  15  16
ENDBRANCH  13  15
ENDBRANCH   6  13
ENDBRANCH   3   6
ENDBRANCH   1   2
BRANCH   1  18
ATOM     18  N   LIG    1        0.258  -0.012   0.704  0.00  0.00    -0.303 N 
ATOM     19  H   LIG    1       -0.387  -0.776   0.840  0.00  0.00    +0.149 HD
ATOM     20  C   LIG    1       -0.187   1.254   0.812  0.00  0.00    +0.214 C 
ATOM     21  O   LIG    1        0.536   2.232   0.624  0.00  0.00    -0.276 OA
BRANCH  20  22
ATOM     22  C   LIG    1       -1.674   1.480   1.139  0.00  0.00    +0.095 C 
BRANCH  22  23
ATOM     23  C   LIG    1       -2.423   0.324   1.867  0.00  0.00    +0.004 C 
BRANCH  23  24
ATOM     24  C   LIG    1       -3.597  -0.304   1.065  0.00  0.00    +0.036 C 
BRANCH  24  25
ATOM     25  N   LIG    1       -4.502  -1.148   1.926  0.00  0.00    +0.387 N 
ATOM     26  H   LIG    1       -3.967  -1.911   2.316  0.00  0.00    -0.089 HD
ATOM     27  H   LIG    1       -4.882  -0.579   2.669  0.00  0.00    -0.089 HD
ATOM     28  H   LIG    1       -5.252  -1.514   1.356  0.00  0.00    -0.089 HD
ENDBRANCH  24  25
BRANCH  24  29
ATOM     29  C   LIG    1       -3.104  -1.211  -0.072  0.00  0.00    +0.292 C 
ATOM     30  O   LIG    1       -3.136  -2.449  -0.084  0.00  0.00    -0.253 OA
BRANCH  29  31
ATOM     31  O   LIG    1       -2.625  -0.459  -1.093  0.00  0.00    -0.466 OA
BRANCH  31  32
ATOM     32  C   LIG    1       -2.098  -1.042  -2.283  0.00  0.00    +0.228 C 
ATOM     33  C   LIG    1       -3.209  -1.459  -3.258  0.00  0.00    +0.048 C 
ENDBRANCH  31  32
ENDBRANCH  29  31
ENDBRANCH  24  29
ENDBRANCH  23  24
ENDBRANCH  22  23
ENDBRANCH  20  22
ENDBRANCH   1  18
BRANCH   1  34
ATOM     34  C   LIG    1        1.956  -1.824   0.873  0.00  0.00    +0.101 C 
BRANCH  34  35
ATOM     35  S   LIG    1        3.727  -2.013   1.260  0.00  0.00    -0.154 S 
BRANCH  35  36
ATOM     36  C   LIG    1        3.742  -1.712   3.057  0.00  0.00    +0.104 C 
BRANCH  36  37
ATOM     37  C   LIG    1        3.265  -0.308   3.402  0.00  0.00    -0.038 A 
ATOM     38  C   LIG    1        4.109   0.786   3.188  0.00  0.00    +0.004 A 
ATOM     39  C   LIG    1        3.660   2.074   3.463  0.00  0.00    +0.000 A 
ATOM     40  C   LIG    1        2.371   2.265   3.957  0.00  0.00    +0.000 A 
ATOM     41  C   LIG    1        1.529   1.179   4.184  0.00  0.00    +0.000 A 
ATOM     42  C   LIG    1        1.978  -0.110   3.910  0.00  0.00    +0.004 A 
ENDBRANCH  36  37
ENDBRANCH  35  36
ENDBRANCH  34  35
ENDBRANCH   1  34
TORSDOF 18
