REMARK  Name = DB05095
REMARK                            x       y       z     vdW  Elec       q    Type
REMARK                         _______ _______ _______ _____ _____    ______ ____
ROOT
ATOM      1 CL   LIG    1       -3.508   1.331   0.134  0.00  0.00    -0.060 Cl
ATOM      2  C   LIG    1       -1.997   0.509   0.079  0.00  0.00    +0.155 A 
ATOM      3  C   LIG    1       -0.723   1.083   0.049  0.00  0.00    +0.092 A 
ATOM      4  N   LIG    1        0.146   0.005   0.016  0.00  0.00    -0.297 N 
ATOM      5  C   LIG    1       -0.673  -1.098   0.056  0.00  0.00    +0.206 A 
ATOM      6  N   LIG    1       -1.946  -0.810   0.085  0.00  0.00    -0.223 NA
ENDROOT
BRANCH   3   7
ATOM      7  C   LIG    1       -0.319   2.522   0.065  0.00  0.00    +0.005 A 
ATOM      8  C   LIG    1       -0.950   3.437  -0.781  0.00  0.00    +0.014 A 
ATOM      9  C   LIG    1       -0.581   4.782  -0.770  0.00  0.00    +0.049 A 
ATOM     10  C   LIG    1        0.429   5.240   0.093  0.00  0.00    +0.155 A 
ATOM     11  C   LIG    1        1.053   4.320   0.943  0.00  0.00    +0.165 A 
ATOM     12  F   LIG    1        2.029   4.728   1.787  0.00  0.00    -0.202 F 
ATOM     13  C   LIG    1        0.679   2.976   0.932  0.00  0.00    +0.052 A 
BRANCH  10  14
ATOM     14  O   LIG    1        0.856   6.554   0.164  0.00  0.00    -0.492 OA
ATOM     15  C   LIG    1        0.250   7.528  -0.678  0.00  0.00    +0.277 C 
ENDBRANCH  10  14
ENDBRANCH   3   7
BRANCH   4  16
ATOM     16  C   LIG    1        1.555  -0.008  -0.057  0.00  0.00    +0.048 A 
ATOM     17  C   LIG    1        2.214   0.787  -1.000  0.00  0.00    +0.028 A 
ATOM     18  C   LIG    1        3.604   0.780  -1.061  0.00  0.00    +0.030 A 
ATOM     19  C   LIG    1        4.333  -0.024  -0.181  0.00  0.00    +0.105 A 
ATOM     20  C   LIG    1        3.675  -0.828   0.751  0.00  0.00    +0.030 A 
ATOM     21  C   LIG    1        2.285  -0.824   0.813  0.00  0.00    +0.028 A 
BRANCH  19  22
ATOM     22  S   LIG    1        6.121  -0.041  -0.236  0.00  0.00    +0.056 S 
ATOM     23  O   LIG    1        6.524  -1.445  -0.364  0.00  0.00    -0.153 OA
ATOM     24  O   LIG    1        6.556   0.964  -1.213  0.00  0.00    -0.153 OA
BRANCH  22  25
ATOM     25  N   LIG    1        6.620   0.508   1.353  0.00  0.00    -0.204 NA
ATOM     26  H   LIG    1        6.373  -0.123   2.119  0.00  0.00    +0.144 HD
ATOM     27  H   LIG    1        6.404   1.489   1.550  0.00  0.00    +0.144 HD
ENDBRANCH  22  25
ENDBRANCH  19  22
ENDBRANCH   4  16
TORSDOF 5
