REMARK  Name = DB05239
REMARK                            x       y       z     vdW  Elec       q    Type
REMARK                         _______ _______ _______ _____ _____    ______ ____
ROOT
ATOM      1  C   LIG    1        0.069  -0.003   0.042  0.00  0.00    +0.061 A 
ATOM      2  C   LIG    1       -0.726   1.152   0.061  0.00  0.00    +0.018 A 
ATOM      3  C   LIG    1       -2.113   1.065   0.138  0.00  0.00    +0.042 A 
ATOM      4  C   LIG    1       -2.729  -0.180   0.202  0.00  0.00    +0.160 A 
ATOM      5  F   LIG    1       -4.078  -0.258   0.278  0.00  0.00    -0.202 F 
ATOM      6  C   LIG    1       -1.960  -1.343   0.185  0.00  0.00    +0.180 A 
ATOM      7  F   LIG    1       -2.588  -2.544   0.236  0.00  0.00    -0.201 F 
ATOM      8  C   LIG    1       -0.561  -1.272   0.105  0.00  0.00    +0.082 A 
ENDROOT
BRANCH   1  12
ATOM      9  C   LIG    1        2.939   2.033  -2.499  0.00  0.00    +0.112 C 
ATOM     10  C   LIG    1        1.546   1.403  -2.266  0.00  0.00    +0.146 C 
ATOM     11  N   LIG    1        2.104   0.848  -1.009  0.00  0.00    -0.292 N 
ATOM     12  C   LIG    1        1.572   0.154   0.015  0.00  0.00    +0.249 C 
ATOM     13  O   LIG    1        2.264  -0.349   0.900  0.00  0.00    -0.270 OA
ATOM     14  C   LIG    1        3.508   1.172  -1.346  0.00  0.00    +0.146 C 
BRANCH   9  15
ATOM     15  C   LIG    1        2.959   3.562  -2.191  0.00  0.00    +0.088 C 
ATOM     16  N   LIG    1        4.298   4.101  -1.907  0.00  0.00    -0.311 NA
ATOM     17  H   LIG    1        4.709   3.595  -1.135  0.00  0.00    +0.122 HD
ATOM     18  C   LIG    1        4.349   5.533  -1.611  0.00  0.00    +0.081 C 
ATOM     19  C   LIG    1        3.675   6.375  -2.708  0.00  0.00    +0.015 C 
ATOM     20  C   LIG    1        2.232   5.923  -2.951  0.00  0.00    +0.003 C 
ATOM     21  C   LIG    1        2.183   4.414  -3.239  0.00  0.00    +0.021 C 
ENDBRANCH   9  15
BRANCH   9  22
ATOM     22  O   LIG    1        3.500   1.768  -3.772  0.00  0.00    -0.384 OA
ATOM     23  H   LIG    1        4.393   2.120  -3.785  0.00  0.00    +0.210 HD
ENDBRANCH   9  22
ENDBRANCH   1  12
BRANCH   8  24
ATOM     24  N   LIG    1        0.145  -2.490   0.031  0.00  0.00    -0.309 N 
ATOM     25  H   LIG    1       -0.117  -3.186   0.714  0.00  0.00    +0.152 HD
BRANCH  24  26
ATOM     26  C   LIG    1        1.084  -2.909  -0.926  0.00  0.00    +0.067 A 
ATOM     27  C   LIG    1        2.056  -3.834  -0.534  0.00  0.00    +0.027 A 
ATOM     28  C   LIG    1        3.004  -4.296  -1.447  0.00  0.00    +0.016 A 
ATOM     29  C   LIG    1        2.976  -3.850  -2.767  0.00  0.00    +0.016 A 
ATOM     30  I   LIG    1        4.400  -4.537  -4.135  0.00  0.00    -0.044 I 
ATOM     31  C   LIG    1        1.992  -2.951  -3.177  0.00  0.00    +0.054 A 
ATOM     32  C   LIG    1        1.040  -2.488  -2.267  0.00  0.00    +0.145 A 
ATOM     33  F   LIG    1        0.079  -1.641  -2.705  0.00  0.00    -0.204 F 
ENDBRANCH  24  26
ENDBRANCH   8  24
TORSDOF 5
