REMARK  Name = DB05169
REMARK                            x       y       z     vdW  Elec       q    Type
REMARK                         _______ _______ _______ _____ _____    ______ ____
ROOT
ATOM      1  C   LIG    1        6.064  -0.841   0.315  0.00  0.00    +0.007 A 
ATOM      2  C   LIG    1        6.133   0.493  -0.105  0.00  0.00    -0.031 A 
ATOM      3  C   LIG    1        4.966   1.228  -0.340  0.00  0.00    +0.034 A 
ATOM      4  C   LIG    1        3.729   0.600  -0.135  0.00  0.00    +0.090 A 
ATOM      5  N   LIG    1        2.464   1.105  -0.287  0.00  0.00    -0.226 NA
ATOM      6  C   LIG    1        1.659   0.118   0.033  0.00  0.00    +0.161 A 
ATOM      7  N   LIG    1        2.347  -1.025   0.385  0.00  0.00    -0.337 N 
ATOM      8  H   LIG    1        1.892  -1.883   0.659  0.00  0.00    +0.167 HD
ATOM      9  C   LIG    1        3.691  -0.750   0.292  0.00  0.00    +0.067 A 
ATOM     10  C   LIG    1        4.849  -1.496   0.524  0.00  0.00    +0.028 A 
ENDROOT
BRANCH   6  11
ATOM     11  C   LIG    1        0.187   0.199   0.028  0.00  0.00    +0.149 A 
ATOM     12  N   LIG    1       -0.543  -0.857   0.338  0.00  0.00    -0.169 NA
ATOM     13  N   LIG    1       -1.811  -0.454   0.246  0.00  0.00    -0.282 N 
ATOM     14  H   LIG    1       -2.586  -1.073   0.434  0.00  0.00    +0.188 HD
ATOM     15  C   LIG    1       -1.930   0.854  -0.121  0.00  0.00    +0.129 A 
ATOM     16  C   LIG    1       -0.627   1.319  -0.275  0.00  0.00    +0.083 A 
BRANCH  16  17
ATOM     17  N   LIG    1       -0.172   2.580  -0.639  0.00  0.00    -0.266 N 
ATOM     18  H   LIG    1        0.830   2.678  -0.716  0.00  0.00    +0.156 HD
ATOM     19  C   LIG    1       -0.932   3.664  -0.891  0.00  0.00    +0.304 C 
ATOM     20  O   LIG    1       -2.163   3.707  -0.835  0.00  0.00    -0.252 OA
ATOM     21  N   LIG    1       -0.165   4.715  -1.222  0.00  0.00    -0.296 N 
ATOM     22  H   LIG    1        0.825   4.645  -1.040  0.00  0.00    +0.151 HD
BRANCH  21  23
ATOM     23  C   LIG    1       -0.678   6.066  -1.432  0.00  0.00    +0.075 C 
ATOM     24  C   LIG    1       -0.105   6.890  -2.560  0.00  0.00    +0.024 C 
ATOM     25  C   LIG    1       -1.516   6.358  -2.658  0.00  0.00    +0.024 C 
ENDBRANCH  21  23
ENDBRANCH  16  17
ENDBRANCH   6  11
BRANCH   2  26
ATOM     26  C   LIG    1        7.493   1.150  -0.321  0.00  0.00    +0.119 C 
BRANCH  26  27
ATOM     27  N   LIG    1        8.270   1.265   0.917  0.00  0.00    -0.294 NA
ATOM     28  C   LIG    1        9.681   1.542   0.619  0.00  0.00    +0.113 C 
ATOM     29  C   LIG    1       10.505   1.735   1.910  0.00  0.00    +0.175 C 
ATOM     30  O   LIG    1        9.920   2.753   2.714  0.00  0.00    -0.377 OA
ATOM     31  C   LIG    1        8.582   2.444   3.090  0.00  0.00    +0.175 C 
ATOM     32  C   LIG    1        7.705   2.268   1.832  0.00  0.00    +0.113 C 
ENDBRANCH  26  27
ENDBRANCH   2  26
TORSDOF 5
