REMARK  Name = DB05382
REMARK                            x       y       z     vdW  Elec       q    Type
REMARK                         _______ _______ _______ _____ _____    ______ ____
ROOT
ATOM      1  I   LIG    1       -0.101  -0.213   1.362  0.00  0.00    +0.000 I 
ATOM      2  I   LIG    1        0.101   0.213  -1.362  0.00  0.00    +0.000 I 
ENDROOT
TORSDOF 0
