REMARK  Name = DB05018
REMARK                            x       y       z     vdW  Elec       q    Type
REMARK                         _______ _______ _______ _____ _____    ______ ____
ROOT
ATOM      1  N   UNK    1       -0.553   1.333  -0.041  0.00  0.00    -0.306 NA
ATOM      2  H   UNK    1       -0.227   1.802   0.793  0.00  0.00    +0.122 HD
ATOM      3  C   UNK    1        0.029  -0.014  -0.102  0.00  0.00    +0.111 C 
ATOM      4  C   UNK    1       -0.529  -0.836  -1.308  0.00  0.00    +0.165 C 
ATOM      5  C   UNK    1       -2.076  -0.836  -1.333  0.00  0.00    +0.174 C 
ATOM      6  C   UNK    1       -2.619   0.608  -1.262  0.00  0.00    +0.159 C 
ATOM      7  C   UNK    1       -2.016   1.358  -0.054  0.00  0.00    +0.115 C 
ENDROOT
BRANCH   4   8
ATOM      8  O   UNK    1        0.030  -0.406  -2.541  0.00  0.00    -0.388 OA
ATOM      9  H   UNK    1        0.957  -0.652  -2.557  0.00  0.00    +0.210 HD
ENDBRANCH   4   8
BRANCH   5  10
ATOM     10  O   UNK    1       -2.599  -1.564  -2.433  0.00  0.00    -0.387 OA
ATOM     11  H   UNK    1       -3.518  -1.312  -2.551  0.00  0.00    +0.210 HD
ENDBRANCH   5  10
BRANCH   6  12
ATOM     12  O   UNK    1       -4.033   0.645  -1.200  0.00  0.00    -0.388 OA
ATOM     13  H   UNK    1       -4.319   1.554  -1.312  0.00  0.00    +0.210 HD
ENDBRANCH   6  12
BRANCH   3  14
ATOM     14  C   UNK    1        1.573   0.032  -0.030  0.00  0.00    +0.177 C 
BRANCH  14  15
ATOM     15  O   UNK    1        2.125  -1.267   0.050  0.00  0.00    -0.393 OA
ATOM     16  H   UNK    1        3.080  -1.191   0.117  0.00  0.00    +0.209 HD
ENDBRANCH  14  15
ENDBRANCH   3  14
TORSDOF 5
