REMARK  Name = DB05297
REMARK                            x       y       z     vdW  Elec       q    Type
REMARK                         _______ _______ _______ _____ _____    ______ ____
ROOT
ATOM      1  O   LIG    1        5.282   0.821   1.322  0.00  0.00    -0.454 OA
ENDROOT
BRANCH   1   9
ATOM      2  O   LIG    1        2.857  -4.093   4.600  0.00  0.00    -0.368 OA
ATOM      3  C   LIG    1        2.358  -2.739   4.979  0.00  0.00    +0.211 C 
ATOM      4  C   LIG    1        3.426  -2.067   4.080  0.00  0.00    +0.170 C 
ATOM      5  C   LIG    1        4.510  -1.166   4.812  0.00  0.00    +0.097 C 
ATOM      6  C   LIG    1        4.000   0.192   5.491  0.00  0.00    +0.217 C 
ATOM      7  C   LIG    1        4.584   1.611   4.978  0.00  0.00    +0.116 C 
ATOM      8  C   LIG    1        4.389   1.742   3.426  0.00  0.00    +0.088 C 
ATOM      9  C   LIG    1        5.651   1.532   2.511  0.00  0.00    +0.205 C 
ATOM     10  C   LIG    1        6.787   0.782   3.233  0.00  0.00    -0.029 C 
ATOM     11  C   LIG    1        7.728  -0.027   2.341  0.00  0.00    +0.043 C 
ATOM     12  C   LIG    1        6.897   0.811   4.591  0.00  0.00    -0.011 C 
ATOM     13  C   LIG    1        7.696  -0.279   5.314  0.00  0.00    +0.270 C 
ATOM     14  C   LIG    1        6.785  -1.143   6.235  0.00  0.00    +0.187 C 
ATOM     15  O   LIG    1        7.038  -1.167   7.444  0.00  0.00    -0.292 OA
ATOM     16  C   LIG    1        6.075   1.852   5.401  0.00  0.00    +0.023 C 
ATOM     17  C   LIG    1        6.249   1.821   6.957  0.00  0.00    +0.018 C 
ATOM     18  C   LIG    1        6.572   3.273   4.978  0.00  0.00    +0.018 C 
ATOM     19  C   LIG    1        5.599  -2.009   5.634  0.00  0.00    +0.066 C 
ATOM     20  C   LIG    1        4.954  -2.778   6.838  0.00  0.00    +0.022 C 
ATOM     21  C   LIG    1        6.251  -3.049   4.653  0.00  0.00    +0.131 C 
ATOM     22  C   LIG    1        5.265  -4.023   3.970  0.00  0.00    +0.068 C 
ATOM     23  C   LIG    1        3.849  -3.498   3.651  0.00  0.00    +0.167 C 
BRANCH   7  24
ATOM     24  O   LIG    1        3.725   2.559   5.608  0.00  0.00    -0.384 OA
ATOM     25  H   LIG    1        3.937   3.433   5.271  0.00  0.00    +0.210 HD
ENDBRANCH   7  24
BRANCH  21  26
ATOM     26  O   LIG    1        7.301  -3.822   5.220  0.00  0.00    -0.391 OA
ATOM     27  H   LIG    1        6.923  -4.428   5.861  0.00  0.00    +0.210 HD
ENDBRANCH  21  26
BRANCH  13  28
ATOM     28  O   LIG    1        8.806   0.305   6.008  0.00  0.00    -0.449 OA
BRANCH  28  29
ATOM     29  C   LIG    1        9.978  -0.354   6.176  0.00  0.00    +0.305 C 
ATOM     30  C   LIG    1       10.995   0.468   6.958  0.00  0.00    +0.136 C 
ATOM     31  O   LIG    1       10.245  -1.484   5.767  0.00  0.00    -0.251 OA
ENDBRANCH  28  29
ENDBRANCH  13  28
BRANCH   6  32
ATOM     32  O   LIG    1        2.563   0.211   5.383  0.00  0.00    -0.454 OA
BRANCH  32  33
ATOM     33  C   LIG    1        1.725   0.231   6.458  0.00  0.00    +0.340 C 
ATOM     34  O   LIG    1        2.110   0.195   7.629  0.00  0.00    -0.245 OA
BRANCH  33  35
ATOM     35  C   LIG    1        0.279   0.239   6.061  0.00  0.00    +0.059 A 
ATOM     36  C   LIG    1       -0.704   0.041   7.042  0.00  0.00    +0.015 A 
ATOM     37  C   LIG    1       -2.054   0.040   6.699  0.00  0.00    +0.001 A 
ATOM     38  C   LIG    1       -2.430   0.241   5.374  0.00  0.00    +0.000 A 
ATOM     39  C   LIG    1       -1.469   0.446   4.388  0.00  0.00    +0.001 A 
ATOM     40  C   LIG    1       -0.119   0.447   4.730  0.00  0.00    +0.015 A 
ENDBRANCH  33  35
ENDBRANCH  32  33
ENDBRANCH   6  32
BRANCH   4  41
ATOM     41  O   LIG    1        2.858  -1.277   3.006  0.00  0.00    -0.453 OA
BRANCH  41  42
ATOM     42  C   LIG    1        1.839  -1.642   2.170  0.00  0.00    +0.305 C 
ATOM     43  C   LIG    1        1.393  -0.501   1.266  0.00  0.00    +0.136 C 
ATOM     44  O   LIG    1        1.296  -2.743   2.101  0.00  0.00    -0.251 OA
ENDBRANCH  41  42
ENDBRANCH   4  41
ENDBRANCH   1   9
BRANCH   1  45
ATOM     45  C   LIG    1        4.621   1.419   0.299  0.00  0.00    +0.351 C 
ATOM     46  O   LIG    1        4.261   2.599   0.298  0.00  0.00    -0.247 OA
BRANCH  45  47
ATOM     47  C   LIG    1        4.317   0.474  -0.902  0.00  0.00    +0.309 C 
BRANCH  47  48
ATOM     48  C   LIG    1        4.406  -1.069  -0.591  0.00  0.00    +0.155 C 
BRANCH  48  49
ATOM     49  C   LIG    1        5.820  -1.661  -0.427  0.00  0.00    -0.023 A 
ATOM     50  C   LIG    1        6.954  -1.072  -1.004  0.00  0.00    +0.005 A 
ATOM     51  C   LIG    1        8.209  -1.648  -0.829  0.00  0.00    +0.000 A 
ATOM     52  C   LIG    1        8.338  -2.811  -0.073  0.00  0.00    +0.000 A 
ATOM     53  C   LIG    1        7.221  -3.404   0.508  0.00  0.00    +0.000 A 
ATOM     54  C   LIG    1        5.966  -2.829   0.331  0.00  0.00    +0.005 A 
ENDBRANCH  48  49
BRANCH  48  55
ATOM     55  N   LIG    1        3.581  -1.911  -1.472  0.00  0.00    -0.300 N 
ATOM     56  H   LIG    1        2.910  -2.504  -1.007  0.00  0.00    +0.150 HD
ATOM     57  C   LIG    1        3.739  -2.075  -2.801  0.00  0.00    +0.245 C 
ATOM     58  O   LIG    1        4.605  -1.482  -3.447  0.00  0.00    -0.270 OA
BRANCH  57  59
ATOM     59  C   LIG    1        2.756  -3.001  -3.485  0.00  0.00    +0.037 A 
ATOM     60  C   LIG    1        1.993  -3.929  -2.756  0.00  0.00    +0.013 A 
ATOM     61  C   LIG    1        1.096  -4.772  -3.406  0.00  0.00    +0.001 A 
ATOM     62  C   LIG    1        0.956  -4.698  -4.789  0.00  0.00    +0.000 A 
ATOM     63  C   LIG    1        1.706  -3.788  -5.527  0.00  0.00    +0.001 A 
ATOM     64  C   LIG    1        2.603  -2.943  -4.878  0.00  0.00    +0.013 A 
ENDBRANCH  57  59
ENDBRANCH  48  55
ENDBRANCH  47  48
BRANCH  47  65
ATOM     65  O   LIG    1        3.037   0.787  -1.482  0.00  0.00    -0.448 OA
BRANCH  65  66
ATOM     66  C   LIG    1        2.842   1.814  -2.356  0.00  0.00    +0.308 C 
ATOM     67  O   LIG    1        3.716   2.568  -2.784  0.00  0.00    -0.251 OA
BRANCH  66  68
ATOM     68  C   LIG    1        1.383   1.968  -2.807  0.00  0.00    +0.124 C 
BRANCH  68  69
ATOM     69  C   LIG    1        0.308   1.633  -1.747  0.00  0.00    +0.038 C 
BRANCH  69  70
ATOM     70  C   LIG    1        0.356   2.496  -0.493  0.00  0.00    -0.030 C 
ATOM     71  C   LIG    1       -0.484   3.494  -0.156  0.00  0.00    -0.027 C 
BRANCH  71  72
ATOM     72  C   LIG    1       -1.656   4.028  -0.962  0.00  0.00    +0.053 C 
BRANCH  72  73
ATOM     73  C   LIG    1       -3.007   3.605  -0.408  0.00  0.00    -0.027 C 
ATOM     74  C   LIG    1       -3.936   2.825  -0.997  0.00  0.00    -0.027 C 
BRANCH  74  75
ATOM     75  C   LIG    1       -3.867   2.164  -2.363  0.00  0.00    +0.053 C 
BRANCH  75  76
ATOM     76  C   LIG    1       -4.820   2.780  -3.373  0.00  0.00    -0.027 C 
ATOM     77  C   LIG    1       -5.867   2.192  -3.983  0.00  0.00    -0.027 C 
BRANCH  77  78
ATOM     78  C   LIG    1       -6.366   0.768  -3.809  0.00  0.00    +0.053 C 
BRANCH  78  79
ATOM     79  C   LIG    1       -7.817   0.699  -3.361  0.00  0.00    -0.027 C 
ATOM     80  C   LIG    1       -8.887   0.306  -4.081  0.00  0.00    -0.027 C 
BRANCH  80  81
ATOM     81  C   LIG    1       -8.920  -0.166  -5.526  0.00  0.00    +0.053 C 
BRANCH  81  82
ATOM     82  C   LIG    1       -9.642   0.802  -6.448  0.00  0.00    -0.027 C 
ATOM     83  C   LIG    1       -9.089   1.672  -7.317  0.00  0.00    -0.027 C 
BRANCH  83  84
ATOM     84  C   LIG    1       -7.609   1.913  -7.563  0.00  0.00    +0.053 C 
BRANCH  84  85
ATOM     85  C   LIG    1       -7.137   1.396  -8.910  0.00  0.00    -0.027 C 
ATOM     86  C   LIG    1       -6.657   2.111  -9.946  0.00  0.00    -0.031 C 
BRANCH  86  87
ATOM     87  C   LIG    1       -6.453   3.616 -10.022  0.00  0.00    +0.023 C 
ATOM     88  C   LIG    1       -7.422   4.309 -10.988  0.00  0.00    +0.008 C 
ENDBRANCH  86  87
ENDBRANCH  84  85
ENDBRANCH  83  84
ENDBRANCH  81  82
ENDBRANCH  80  81
ENDBRANCH  78  79
ENDBRANCH  77  78
ENDBRANCH  75  76
ENDBRANCH  74  75
ENDBRANCH  72  73
ENDBRANCH  71  72
ENDBRANCH  69  70
ENDBRANCH  68  69
ENDBRANCH  66  68
ENDBRANCH  65  66
ENDBRANCH  47  65
ENDBRANCH  45  47
ENDBRANCH   1  45
TORSDOF 32
