REMARK  Name = DB05003
REMARK                            x       y       z     vdW  Elec       q    Type
REMARK                         _______ _______ _______ _____ _____    ______ ____
ROOT
ATOM      1  O   LIG    1        4.558  -1.507  -0.240  0.00  0.00    -0.224 OA
ATOM      2  C   LIG    1        3.594  -0.748  -0.172  0.00  0.00    +0.395 C 
ATOM      3  N   LIG    1        2.176  -1.099  -0.113  0.00  0.00    -0.161 N 
ATOM      4  H   LIG    1        1.821  -2.044  -0.087  0.00  0.00    +0.302 HD
ATOM      5  C   LIG    1        1.431  -0.004  -0.043  0.00  0.00    +0.259 C 
ATOM      6  C   LIG    1        2.290   1.215  -0.150  0.00  0.00    +0.206 C 
ATOM      7  C   LIG    1        3.263   1.377   0.997  0.00  0.00    +0.147 C 
ATOM      8  N   LIG    1        3.630   0.658  -0.223  0.00  0.00    -0.248 N 
ENDROOT
BRANCH   5   9
ATOM      9  N   LIG    1        0.110   0.061   0.084  0.00  0.00    -0.253 N 
ATOM     10  H   LIG    1       -0.348   0.960   0.119  0.00  0.00    +0.288 HD
ATOM     11  H   LIG    1       -0.434  -0.788   0.148  0.00  0.00    +0.288 HD
ENDBRANCH   5   9
TORSDOF 1
