REMARK  Name = DB05483
REMARK                            x       y       z     vdW  Elec       q    Type
REMARK                         _______ _______ _______ _____ _____    ______ ____
ROOT
ATOM      1  CA  LYS A  1        0.021   0.011   0.000  0.00  0.00    +0.147 A 
ATOM      2  N   LYS A  1       -0.648   1.207   0.000  0.00  0.00    -0.248 NA
ATOM      3  CE  LYS A  1       -2.004   1.219   0.000  0.00  0.00    +0.111 A 
ATOM      4  CD  LYS A  1       -2.767   0.054   0.000  0.00  0.00    +0.020 A 
ATOM      5  CG  LYS A  1       -2.104  -1.171   0.000  0.00  0.00    +0.004 A 
ATOM      6  CB  LYS A  1       -0.708  -1.199   0.000  0.00  0.00    +0.035 A 
ENDROOT
BRANCH   1   7
ATOM      7  C   LYS A  1        1.536   0.012   0.000  0.00  0.00    +0.355 C 
ATOM      8  O   LYS A  1        2.143  -1.086   0.000  0.00  0.00    -0.243 OA
BRANCH   7   9
ATOM      9  OXT LYS A  1        2.141   1.113   0.000  0.00  0.00    -0.476 OA
ATOM     10  HXT LYS A  1        1.655   1.914   0.000  0.00  0.00    +0.295 HD
ENDBRANCH   7   9
ENDBRANCH   1   7
TORSDOF 2
