REMARK  Name = DB05057
REMARK                            x       y       z     vdW  Elec       q    Type
REMARK                         _______ _______ _______ _____ _____    ______ ____
ROOT
ATOM      1  N   LIG    1        2.116  -2.145   1.323  0.00  0.00    -0.304 N 
ATOM      2  H   LIG    1        2.286  -1.481   2.065  0.00  0.00    +0.149 HD
ATOM      3  C   LIG    1        1.714  -1.681   0.126  0.00  0.00    +0.223 C 
ATOM      4  O   LIG    1        1.564  -2.394  -0.867  0.00  0.00    -0.275 OA
ENDROOT
BRANCH   1   7
ATOM      5  S   LIG    1        2.783  -5.321   3.693  0.00  0.00    -0.086 S 
ATOM      6  C   LIG    1        3.209  -3.711   2.934  0.00  0.00    +0.209 C 
ATOM      7  C   LIG    1        2.437  -3.544   1.622  0.00  0.00    +0.151 C 
ATOM      8  C   LIG    1        1.195  -4.448   1.697  0.00  0.00    +0.042 C 
ATOM      9  O   LIG    1        3.975  -2.895   3.446  0.00  0.00    -0.283 OA
ATOM     10  C   LIG    1        1.615  -5.751   2.379  0.00  0.00    +0.079 C 
ENDBRANCH   1   7
BRANCH   3  11
ATOM     11  C   LIG    1        1.458  -0.176   0.031  0.00  0.00    +0.165 C 
BRANCH  11  12
ATOM     12  S   LIG    1       -0.315   0.209   0.006  0.00  0.00    -0.140 S 
BRANCH  12  13
ATOM     13  C   LIG    1       -0.236   2.017  -0.144  0.00  0.00    +0.189 C 
BRANCH  13  14
ATOM     14  C   LIG    1       -1.626   2.648  -0.210  0.00  0.00    +0.315 C 
ATOM     15  O   LIG    1       -2.169   3.183   0.754  0.00  0.00    -0.250 OA
BRANCH  14  16
ATOM     16  O   LIG    1       -2.177   2.530  -1.453  0.00  0.00    -0.480 OA
ATOM     17  H   LIG    1       -3.053   2.918  -1.501  0.00  0.00    +0.295 HD
ENDBRANCH  14  16
ENDBRANCH  13  14
ENDBRANCH  12  13
ENDBRANCH  11  12
ENDBRANCH   3  11
TORSDOF 6
