REMARK  Name = DB05905
REMARK                            x       y       z     vdW  Elec       q    Type
REMARK                         _______ _______ _______ _____ _____    ______ ____
ROOT
ATOM      1  C   LIG    1        1.029   0.402  -0.433  0.00  0.00    +0.070 C 
ATOM      2  C   LIG    1        1.800  -0.743   0.290  0.00  0.00    +0.007 C 
ATOM      3  C   LIG    1        2.087  -1.994  -0.584  0.00  0.00    -0.066 C 
ATOM      4  N   LIG    1        2.872  -1.498  -1.814  0.00  0.00    +0.384 N 
ATOM      5  H   LIG    1        3.514  -0.776  -1.517  0.00  0.00    -0.081 HD
ATOM      6  C   LIG    1        1.728  -0.857  -2.627  0.00  0.00    -0.066 C 
ATOM      7  C   LIG    1        0.592  -1.894  -2.523  0.00  0.00    -0.017 C 
ATOM      8  C   LIG    1        0.831  -2.639  -1.202  0.00  0.00    -0.017 C 
ATOM      9  C   LIG    1        1.412   0.499  -1.944  0.00  0.00    +0.007 C 
ENDROOT
BRANCH   1  11
ATOM     10  C   LIG    1       -1.344   1.217  -0.367  0.00  0.00    +0.265 C 
ATOM     11  N   LIG    1       -0.416   0.246  -0.237  0.00  0.00    -0.307 N 
ATOM     12  H   LIG    1       -0.712  -0.623   0.181  0.00  0.00    +0.149 HD
ATOM     13  O   LIG    1       -1.072   2.374  -0.688  0.00  0.00    -0.268 OA
BRANCH  10  14
ATOM     14  C   LIG    1       -2.714   0.809  -0.128  0.00  0.00    +0.155 A 
ATOM     15  C   LIG    1       -3.908   1.613  -0.176  0.00  0.00    +0.032 A 
ATOM     16  C   LIG    1       -4.199   2.964  -0.443  0.00  0.00    +0.012 A 
ATOM     17  C   LIG    1       -5.525   3.390  -0.413  0.00  0.00    +0.001 A 
ATOM     18  C   LIG    1       -6.559   2.504  -0.123  0.00  0.00    +0.002 A 
ATOM     19  C   LIG    1       -6.317   1.158   0.154  0.00  0.00    +0.028 A 
ATOM     20  C   LIG    1       -4.982   0.734   0.127  0.00  0.00    +0.070 A 
ATOM     21  N   LIG    1       -4.392  -0.492   0.357  0.00  0.00    -0.260 N 
ATOM     22  N   LIG    1       -3.059  -0.431   0.161  0.00  0.00    -0.165 NA
BRANCH  21  23
ATOM     23  C   LIG    1       -5.048  -1.778   0.624  0.00  0.00    +0.102 C 
ATOM     24  C   LIG    1       -5.273  -2.528  -0.702  0.00  0.00    +0.032 C 
ATOM     25  C   LIG    1       -4.258  -2.625   1.647  0.00  0.00    +0.032 C 
ENDBRANCH  21  23
ENDBRANCH  10  14
ENDBRANCH   1  11
BRANCH   4  26
ATOM     26  C   LIG    1        3.691  -2.592  -2.539  0.00  0.00    -0.062 C 
BRANCH  26  27
ATOM     27  C   LIG    1        4.636  -1.951  -3.578  0.00  0.00    +0.066 C 
BRANCH  27  28
ATOM     28  N   LIG    1        5.417  -2.961  -4.300  0.00  0.00    -0.301 NA
ATOM     29  C   LIG    1        5.999  -2.369  -5.508  0.00  0.00    +0.103 C 
ATOM     30  C   LIG    1        6.761  -3.413  -6.357  0.00  0.00    +0.123 C 
ATOM     31  N   LIG    1        7.739  -4.119  -5.503  0.00  0.00    -0.299 N 
ATOM     32  C   LIG    1        8.915  -4.534  -6.048  0.00  0.00    +0.213 C 
ATOM     33  C   LIG    1        9.964  -5.206  -5.155  0.00  0.00    +0.109 C 
ATOM     34  O   LIG    1        9.241  -4.290  -7.211  0.00  0.00    -0.276 OA
ATOM     35  C   LIG    1        7.275  -4.633  -4.197  0.00  0.00    +0.123 C 
ATOM     36  C   LIG    1        6.482  -3.527  -3.464  0.00  0.00    +0.103 C 
ENDBRANCH  27  28
ENDBRANCH  26  27
ENDBRANCH   4  26
TORSDOF 6
