REMARK  Name = DB05476
REMARK                            x       y       z     vdW  Elec       q    Type
REMARK                         _______ _______ _______ _____ _____    ______ ____
ROOT
ATOM      1  C   LIG    1       -0.698   1.298   0.283  0.00  0.00    +0.166 C 
ENDROOT
BRANCH   1   2
ATOM      2  C   LIG    1       -0.250   2.308   1.381  0.00  0.00    +0.235 C 
ATOM      3  N   LIG    1       -0.205   3.643   1.107  0.00  0.00    -0.297 N 
ATOM      4  C   LIG    1       -0.561   4.197  -0.224  0.00  0.00    +0.127 C 
ATOM      5  C   LIG    1       -1.305   5.545  -0.050  0.00  0.00    +0.130 C 
ATOM      6  N   LIG    1       -0.499   6.415   0.819  0.00  0.00    -0.264 N 
ATOM      7  C   LIG    1        0.525   7.222   0.286  0.00  0.00    +0.403 C 
ATOM      8  O   LIG    1        1.496   7.649   0.918  0.00  0.00    -0.226 OA
ATOM      9  C   LIG    1       -0.327   5.886   2.176  0.00  0.00    +0.130 C 
ATOM     10  C   LIG    1        0.456   4.553   2.076  0.00  0.00    +0.127 C 
ATOM     11  O   LIG    1        0.030   1.863   2.498  0.00  0.00    -0.274 OA
BRANCH   7  12
ATOM     12  O   LIG    1        0.307   7.506  -1.028  0.00  0.00    -0.451 OA
BRANCH  12  13
ATOM     13  C   LIG    1        1.208   8.308  -1.790  0.00  0.00    +0.230 C 
ATOM     14  C   LIG    1        2.446   7.517  -2.239  0.00  0.00    +0.048 C 
ENDBRANCH  12  13
ENDBRANCH   7  12
ENDBRANCH   1   2
BRANCH   1  15
ATOM     15  N   LIG    1        0.084   0.030   0.364  0.00  0.00    -0.178 NA
ATOM     16  H   LIG    1       -0.356  -0.727  -0.167  0.00  0.00    +0.149 HD
BRANCH  15  17
ATOM     17  S   LIG    1        1.846   0.043   0.152  0.00  0.00    +0.060 S 
ATOM     18  O   LIG    1        2.253  -1.334  -0.150  0.00  0.00    -0.153 OA
ATOM     19  O   LIG    1        2.430   0.695   1.326  0.00  0.00    -0.153 OA
BRANCH  17  20
ATOM     20  C   LIG    1        2.127   1.027  -1.378  0.00  0.00    +0.112 A 
ATOM     21  C   LIG    1        2.846   2.261  -1.394  0.00  0.00    -0.018 A 
ATOM     22  C   LIG    1        3.112   2.880  -2.624  0.00  0.00    +0.009 A 
ATOM     23  C   LIG    1        2.656   2.360  -3.828  0.00  0.00    -0.044 A 
ATOM     24  C   LIG    1        1.924   1.182  -3.807  0.00  0.00    +0.009 A 
ATOM     25  C   LIG    1        1.643   0.508  -2.614  0.00  0.00    -0.018 A 
BRANCH  21  26
ATOM     26  C   LIG    1        3.391   2.971  -0.135  0.00  0.00    +0.015 C 
ATOM     27  C   LIG    1        4.753   2.390   0.293  0.00  0.00    +0.012 C 
ATOM     28  C   LIG    1        3.470   4.514  -0.220  0.00  0.00    +0.012 C 
ENDBRANCH  21  26
BRANCH  23  29
ATOM     29  C   LIG    1        2.959   3.058  -5.156  0.00  0.00    +0.013 C 
ATOM     30  C   LIG    1        2.515   4.535  -5.163  0.00  0.00    +0.012 C 
ATOM     31  C   LIG    1        4.439   2.904  -5.551  0.00  0.00    +0.012 C 
ENDBRANCH  23  29
BRANCH  25  32
ATOM     32  C   LIG    1        0.793  -0.773  -2.759  0.00  0.00    +0.015 C 
ATOM     33  C   LIG    1       -0.575  -0.501  -3.419  0.00  0.00    +0.012 C 
ATOM     34  C   LIG    1        1.567  -1.896  -3.476  0.00  0.00    +0.012 C 
ENDBRANCH  25  32
ENDBRANCH  17  20
ENDBRANCH  15  17
ENDBRANCH   1  15
BRANCH   1  35
ATOM     35  C   LIG    1       -2.223   1.005   0.336  0.00  0.00    +0.065 C 
BRANCH  35  40
ATOM     36  C   LIG    1       -3.226  -1.972   2.505  0.00  0.00    +0.001 A 
ATOM     37  C   LIG    1       -3.535  -1.346   3.712  0.00  0.00    +0.016 A 
ATOM     38  C   LIG    1       -3.433   0.052   3.860  0.00  0.00    +0.061 A 
ATOM     39  C   LIG    1       -3.018   0.792   2.736  0.00  0.00    +0.019 A 
ATOM     40  C   LIG    1       -2.696   0.171   1.525  0.00  0.00    -0.045 A 
ATOM     41  C   LIG    1       -2.806  -1.216   1.415  0.00  0.00    +0.004 A 
BRANCH  38  42
ATOM     42  C   LIG    1       -3.739   0.714   5.142  0.00  0.00    +0.266 C 
ATOM     43  N   LIG    1       -2.953   1.696   5.576  0.00  0.00    -0.288 N 
ATOM     44  H   LIG    1       -3.151   2.149   6.456  0.00  0.00    +0.301 HD
ATOM     45  H   LIG    1       -2.151   1.972   5.028  0.00  0.00    +0.301 HD
BRANCH  42  46
ATOM     46  N   LIG    1       -4.796   0.322   5.847  0.00  0.00    -0.250 N 
ATOM     47  H   LIG    1       -5.382  -0.423   5.498  0.00  0.00    +0.288 HD
ATOM     48  H   LIG    1       -5.010   0.769   6.726  0.00  0.00    +0.288 HD
ENDBRANCH  42  46
ENDBRANCH  38  42
ENDBRANCH  35  40
ENDBRANCH   1  35
TORSDOF 13
