REMARK  Name = DB05790
REMARK                            x       y       z     vdW  Elec       q    Type
REMARK                         _______ _______ _______ _____ _____    ______ ____
ROOT
ATOM      1  C   LIG    1        0.095  -3.274   1.299  0.00  0.00    +0.010 C 
ATOM      2  C   LIG    1        0.414  -2.823  -0.176  0.00  0.00    +0.119 C 
ATOM      3  N   LIG    1       -0.419  -1.666  -0.568  0.00  0.00    -0.300 N 
ATOM      4  C   LIG    1        0.025  -0.378  -0.575  0.00  0.00    +0.220 C 
ATOM      5  O   LIG    1       -0.747   0.575  -0.721  0.00  0.00    -0.275 OA
ATOM      6  C   LIG    1       -1.860  -1.963  -0.633  0.00  0.00    +0.108 C 
ATOM      7  C   LIG    1       -2.304  -2.354   0.792  0.00  0.00    +0.020 C 
ATOM      8  C   LIG    1       -1.455  -3.521   1.341  0.00  0.00    +0.014 C 
ENDROOT
BRANCH   1  14
ATOM      9 CL   LIG    1        4.821  -5.534   1.453  0.00  0.00    -0.082 Cl
ATOM     10  C   LIG    1        3.109  -5.646   1.674  0.00  0.00    +0.060 A 
ATOM     11  C   LIG    1        2.507  -6.830   2.113  0.00  0.00    +0.059 A 
ATOM     12  C   LIG    1        1.125  -6.876   2.286  0.00  0.00    +0.022 A 
ATOM     13  C   LIG    1        0.343  -5.751   2.024  0.00  0.00    +0.006 A 
ATOM     14  C   LIG    1        0.926  -4.555   1.573  0.00  0.00    -0.038 A 
ATOM     15 CL   LIG    1        3.442  -8.245   2.454  0.00  0.00    -0.082 Cl
ATOM     16  C   LIG    1        2.321  -4.525   1.411  0.00  0.00    +0.025 A 
ENDBRANCH   1  14
BRANCH   4  17
ATOM     17  C   LIG    1        1.549  -0.105  -0.556  0.00  0.00    +0.131 C 
BRANCH  17  18
ATOM     18  C   LIG    1        1.899   1.350  -0.251  0.00  0.00    -0.035 A 
ATOM     19  C   LIG    1        2.082   2.266  -1.291  0.00  0.00    +0.004 A 
ATOM     20  C   LIG    1        2.349   3.603  -1.005  0.00  0.00    +0.004 A 
ATOM     21  C   LIG    1        2.423   4.036   0.318  0.00  0.00    +0.045 A 
ATOM     22  C   LIG    1        2.230   3.132   1.377  0.00  0.00    +0.121 A 
ATOM     23  C   LIG    1        1.979   1.791   1.074  0.00  0.00    +0.049 A 
BRANCH  22  24
ATOM     24  O   LIG    1        2.272   3.465   2.720  0.00  0.00    -0.489 OA
BRANCH  24  25
ATOM     25  C   LIG    1        2.343   4.833   3.131  0.00  0.00    +0.167 C 
ATOM     26  C   LIG    1        0.990   5.543   2.923  0.00  0.00    +0.051 C 
ATOM     27  C   LIG    1        2.759   4.842   4.608  0.00  0.00    +0.051 C 
ENDBRANCH  24  25
ENDBRANCH  22  24
ENDBRANCH  17  18
ENDBRANCH   4  17
BRANCH   1  28
ATOM     28  C   LIG    1        0.511  -2.141   2.293  0.00  0.00    -0.005 C 
BRANCH  28  29
ATOM     29  C   LIG    1        0.302  -2.484   3.791  0.00  0.00    -0.074 C 
BRANCH  29  30
ATOM     30  N   LIG    1        0.895  -1.437   4.784  0.00  0.00    +0.380 N 
ATOM     31  C   LIG    1        2.446  -1.359   4.668  0.00  0.00    -0.074 C 
ATOM     32  C   LIG    1        3.002  -0.419   5.768  0.00  0.00    -0.007 C 
ATOM     33  C   LIG    1        1.867   0.261   6.591  0.00  0.00    -0.009 C 
ATOM     34  C   LIG    1        0.900   0.968   5.596  0.00  0.00    -0.007 C 
ATOM     35  C   LIG    1        1.058  -0.892   7.259  0.00  0.00    -0.007 C 
ATOM     36  C   LIG    1        0.283  -0.021   4.572  0.00  0.00    -0.074 C 
ATOM     37  C   LIG    1        0.536  -1.917   6.222  0.00  0.00    -0.074 C 
BRANCH  33  38
ATOM     38  C   LIG    1        2.446   1.284   7.599  0.00  0.00    -0.041 A 
ATOM     39  C   LIG    1        2.167   1.221   8.975  0.00  0.00    +0.004 A 
ATOM     40  C   LIG    1        2.697   2.165   9.851  0.00  0.00    +0.000 A 
ATOM     41  C   LIG    1        3.509   3.184   9.363  0.00  0.00    +0.000 A 
ATOM     42  C   LIG    1        3.796   3.266   8.004  0.00  0.00    +0.000 A 
ATOM     43  C   LIG    1        3.267   2.321   7.130  0.00  0.00    +0.004 A 
ENDBRANCH  33  38
ENDBRANCH  29  30
ENDBRANCH  28  29
ENDBRANCH   1  28
TORSDOF 9
