REMARK  Name = DB05219
REMARK                            x       y       z     vdW  Elec       q    Type
REMARK                         _______ _______ _______ _____ _____    ______ ____
ROOT
ATOM      1  C   LIG    1        1.982   0.002   1.212  0.00  0.00    +0.000 A 
ATOM      2  C   LIG    1        2.360   1.215   1.799  0.00  0.00    +0.000 A 
ATOM      3  C   LIG    1        3.017   1.226   3.031  0.00  0.00    +0.000 A 
ATOM      4  C   LIG    1        3.295   0.017   3.668  0.00  0.00    +0.000 A 
ATOM      5  B   LIG    1        3.992  -0.368   5.011  0.00  0.00    +0.000 B 
ATOM      6  O   LIG    1        3.992  -1.744   5.126  0.00  0.00    +0.000 OA
ATOM      7  C   LIG    1        3.359  -2.326   3.990  0.00  0.00    +0.000 C 
ATOM      8  C   LIG    1        2.930  -1.188   3.090  0.00  0.00    +0.000 A 
ATOM      9  C   LIG    1        2.272  -1.204   1.859  0.00  0.00    +0.000 A 
ENDROOT
BRANCH   5  10
ATOM     10  O   LIG    1        4.507   0.529   5.897  0.00  0.00    +0.000 OA
ATOM     11  H   LIG    1        4.895   0.091   6.658  0.00  0.00    +0.000 HD
ENDBRANCH   5  10
BRANCH   1  12
ATOM     12  O   LIG    1        1.342  -0.003  -0.002  0.00  0.00    +0.000 OA
BRANCH  12  15
ATOM     13  C   LIG    1       -2.121  -1.207   0.025  0.00  0.00    +0.000 A 
ATOM     14  C   LIG    1       -0.728  -1.208   0.008  0.00  0.00    +0.000 A 
ATOM     15  C   LIG    1       -0.030   0.001   0.019  0.00  0.00    +0.000 A 
ATOM     16  C   LIG    1       -0.723   1.212   0.035  0.00  0.00    +0.000 A 
ATOM     17  C   LIG    1       -2.116   1.217   0.051  0.00  0.00    +0.000 A 
ATOM     18  C   LIG    1       -2.813   0.006   0.047  0.00  0.00    +0.000 A 
BRANCH  18  19
ATOM     19  C   LIG    1       -4.269   0.009   0.064  0.00  0.00    +0.000 C 
ATOM     20  N   LIG    1       -5.426   0.011   0.077  0.00  0.00    +0.000 NA
ENDBRANCH  18  19
ENDBRANCH  12  15
ENDBRANCH   1  12
TORSDOF 4
