REMARK  Name = DB05171
REMARK                            x       y       z     vdW  Elec       q    Type
REMARK                         _______ _______ _______ _____ _____    ______ ____
ROOT
ATOM      1  C   LIG    1        0.122   0.349  -0.366  0.00  0.00    +0.016 C 
ATOM      2  C   LIG    1       -0.630   1.466  -0.170  0.00  0.00    +0.015 C 
ATOM      3  C   LIG    1       -2.093   1.343  -0.297  0.00  0.00    +0.243 C 
ATOM      4  O   LIG    1       -2.635   0.231  -0.331  0.00  0.00    -0.270 OA
ATOM      5  N   LIG    1       -2.861   2.488  -0.327  0.00  0.00    -0.291 N 
ATOM      6  C   LIG    1       -2.287   3.858  -0.394  0.00  0.00    +0.109 C 
ATOM      7  C   LIG    1       -0.794   3.884  -0.729  0.00  0.00    +0.024 C 
ATOM      8  C   LIG    1       -0.054   2.855   0.113  0.00  0.00    +0.042 C 
ENDROOT
BRANCH   1  12
ATOM      9  C   LIG    1        4.371  -0.110  -0.056  0.00  0.00    +0.089 A 
ATOM     10  C   LIG    1        3.674  -0.732  -1.108  0.00  0.00    +0.144 A 
ATOM     11  C   LIG    1        2.279  -0.559  -1.182  0.00  0.00    +0.055 A 
ATOM     12  C   LIG    1        1.587   0.209  -0.240  0.00  0.00    -0.021 A 
ATOM     13  C   LIG    1        2.300   0.799   0.807  0.00  0.00    +0.010 A 
ATOM     14  C   LIG    1        3.680   0.644   0.898  0.00  0.00    +0.030 A 
BRANCH   9  19
ATOM     15  C   LIG    1        9.349  -0.245  -0.885  0.00  0.00    +0.067 C 
ATOM     16  C   LIG    1        7.963  -0.283  -0.285  0.00  0.00    +0.056 A 
ATOM     17  N   LIG    1        7.799  -0.511   1.007  0.00  0.00    -0.241 NA
ATOM     18  C   LIG    1        6.504  -0.472   1.207  0.00  0.00    +0.204 A 
ATOM     19  N   LIG    1        5.772  -0.228   0.069  0.00  0.00    -0.302 N 
ATOM     20  C   LIG    1        6.734  -0.100  -0.904  0.00  0.00    +0.115 A 
ENDBRANCH   9  19
BRANCH  10  21
ATOM     21  O   LIG    1        4.393  -1.497  -2.011  0.00  0.00    -0.493 OA
ATOM     22  C   LIG    1        3.717  -2.148  -3.082  0.00  0.00    +0.277 C 
ENDBRANCH  10  21
ENDBRANCH   1  12
BRANCH   5  23
ATOM     23  C   LIG    1       -4.344   2.355  -0.390  0.00  0.00    +0.103 C 
ATOM     24  C   LIG    1       -5.123   3.535   0.232  0.00  0.00    +0.033 C 
BRANCH  23  25
ATOM     25  C   LIG    1       -4.887   2.017  -1.783  0.00  0.00    -0.027 A 
ATOM     26  C   LIG    1       -5.910   1.071  -1.902  0.00  0.00    +0.008 A 
ATOM     27  C   LIG    1       -6.407   0.732  -3.157  0.00  0.00    +0.038 A 
ATOM     28  C   LIG    1       -5.878   1.334  -4.296  0.00  0.00    +0.123 A 
ATOM     29  F   LIG    1       -6.361   1.004  -5.516  0.00  0.00    -0.205 F 
ATOM     30  C   LIG    1       -4.855   2.273  -4.190  0.00  0.00    +0.038 A 
ATOM     31  C   LIG    1       -4.357   2.612  -2.935  0.00  0.00    +0.008 A 
ENDBRANCH  23  25
ENDBRANCH   5  23
TORSDOF 5
