REMARK  Name = DB05974
REMARK                            x       y       z     vdW  Elec       q    Type
REMARK                         _______ _______ _______ _____ _____    ______ ____
ROOT
ATOM      1  C   LIG    1        1.480  -0.010   0.000  0.00  0.00    +0.000 C 
ATOM      2  C   LIG    1        2.212  -1.139   0.000  0.00  0.00    +0.000 C 
ENDROOT
BRANCH   1   5
ATOM      3  C   LIG    1       -0.763   1.095   0.000  0.00  0.00    -0.050 C 
ATOM      4  C   LIG    1       -0.147   2.490   0.000  0.00  0.00    +0.044 C 
ATOM      5  C   LIG    1        0.025  -0.010   0.000  0.00  0.00    +0.003 C 
BRANCH   3   7
ATOM      6  C   LIG    1       -2.985  -0.111   0.000  0.00  0.00    +0.001 C 
ATOM      7  C   LIG    1       -2.226   1.005   0.000  0.00  0.00    +0.003 C 
BRANCH   6  10
ATOM      8  C   LIG    1       -5.264  -1.152   0.000  0.00  0.00    +0.033 C 
ATOM      9  C   LIG    1       -4.676  -2.572   0.000  0.00  0.00    +0.051 C 
ATOM     10  C   LIG    1       -4.441  -0.069   0.000  0.00  0.00    +0.010 C 
BRANCH   8  11
ATOM     11  C   LIG    1       -6.847  -0.979   0.000  0.00  0.00    +0.332 C 
ATOM     12  O   LIG    1       -7.520  -2.035   0.000  0.00  0.00    -0.245 OA
BRANCH  11  13
ATOM     13  O   LIG    1       -7.287   0.195   0.000  0.00  0.00    -0.477 OA
ATOM     14  H   LIG    1       -6.692   0.919   0.000  0.00  0.00    +0.295 HD
ENDBRANCH  11  13
ENDBRANCH   8  11
ENDBRANCH   6  10
ENDBRANCH   3   7
ENDBRANCH   1   5
BRANCH   2  15
ATOM     15  C   LIG    1        3.667  -1.138   0.000  0.00  0.00    +0.003 C 
ATOM     16  C   LIG    1        4.456  -2.243   0.000  0.00  0.00    -0.050 C 
ATOM     17  C   LIG    1        3.840  -3.638   0.000  0.00  0.00    +0.044 C 
BRANCH  16  18
ATOM     18  C   LIG    1        5.918  -2.154   0.000  0.00  0.00    +0.003 C 
ATOM     19  C   LIG    1        6.677  -1.037   0.000  0.00  0.00    +0.001 C 
BRANCH  19  20
ATOM     20  C   LIG    1        8.133  -1.079   0.000  0.00  0.00    +0.010 C 
ATOM     21  C   LIG    1        8.957   0.004   0.000  0.00  0.00    +0.033 C 
ATOM     22  C   LIG    1        8.368   1.424   0.000  0.00  0.00    +0.051 C 
BRANCH  21  23
ATOM     23  C   LIG    1       10.539  -0.169   0.000  0.00  0.00    +0.332 C 
ATOM     24  O   LIG    1       11.212   0.887   0.000  0.00  0.00    -0.245 OA
BRANCH  23  25
ATOM     25  O   LIG    1       10.980  -1.343   0.000  0.00  0.00    -0.477 OA
ATOM     26  H   LIG    1       10.385  -2.067   0.000  0.00  0.00    +0.295 HD
ENDBRANCH  23  25
ENDBRANCH  21  23
ENDBRANCH  19  20
ENDBRANCH  16  18
ENDBRANCH   2  15
TORSDOF 10
