REMARK  Name = DB05442
REMARK                            x       y       z     vdW  Elec       q    Type
REMARK                         _______ _______ _______ _____ _____    ______ ____
ROOT
ATOM      1  C   LIG    1       -0.312  -1.162   1.186  0.00  0.00    +0.024 C 
ATOM      2  C   LIG    1        0.491  -2.505   1.320  0.00  0.00    +0.016 C 
ATOM      3  C   LIG    1       -0.360  -0.403   2.551  0.00  0.00    +0.043 C 
ATOM      4  C   LIG    1       -1.156  -1.153   3.658  0.00  0.00    +0.120 C 
ATOM      5  C   LIG    1       -2.599  -1.555   3.171  0.00  0.00    +0.035 C 
ATOM      6  C   LIG    1       -2.596  -2.252   1.762  0.00  0.00    -0.000 C 
ATOM      7  C   LIG    1       -4.046  -2.449   1.261  0.00  0.00    +0.008 C 
ATOM      8  C   LIG    1       -4.913  -3.234   2.255  0.00  0.00    +0.032 C 
ATOM      9  C   LIG    1       -4.904  -2.501   3.595  0.00  0.00    -0.056 C 
ATOM     10  C   LIG    1       -6.039  -2.024   4.159  0.00  0.00    +0.051 C 
ATOM     11  C   LIG    1       -6.108  -1.282   5.418  0.00  0.00    +0.179 C 
ATOM     12  O   LIG    1       -7.161  -0.876   5.905  0.00  0.00    -0.288 OA
ATOM     13  C   LIG    1       -4.804  -1.065   6.039  0.00  0.00    +0.047 C 
ATOM     14  C   LIG    1       -3.643  -1.516   5.525  0.00  0.00    -0.012 C 
ATOM     15  C   LIG    1       -3.492  -2.324   4.225  0.00  0.00    +0.013 C 
ATOM     16  C   LIG    1       -2.965  -3.729   4.630  0.00  0.00    +0.020 C 
ATOM     17  C   LIG    1       -1.782  -1.390   0.755  0.00  0.00    +0.003 C 
ATOM     18  C   LIG    1       -1.710  -1.792  -0.727  0.00  0.00    +0.009 C 
ATOM     19  C   LIG    1       -0.438  -1.100  -1.266  0.00  0.00    +0.061 C 
ATOM     20  C   LIG    1        0.187  -0.325  -0.057  0.00  0.00    +0.215 C 
ENDROOT
BRANCH   4  21
ATOM     21  O   LIG    1       -0.391  -2.217   4.186  0.00  0.00    -0.391 OA
ATOM     22  H   LIG    1       -0.871  -2.602   4.923  0.00  0.00    +0.210 HD
ENDBRANCH   4  21
BRANCH  20  23
ATOM     23  C   LIG    1        1.749  -0.194  -0.096  0.00  0.00    +0.352 C 
ATOM     24  O   LIG    1        2.441  -0.900  -0.833  0.00  0.00    -0.246 OA
BRANCH  23  25
ATOM     25  O   LIG    1        2.228   0.768   0.731  0.00  0.00    -0.462 OA
BRANCH  25  26
ATOM     26  C   LIG    1        3.621   1.033   0.812  0.00  0.00    +0.229 C 
ATOM     27  C   LIG    1        3.860   2.153   1.828  0.00  0.00    +0.048 C 
ENDBRANCH  25  26
ENDBRANCH  23  25
ENDBRANCH  20  23
BRANCH  20  28
ATOM     28  O   LIG    1       -0.361   1.021   0.043  0.00  0.00    -0.444 OA
BRANCH  28  29
ATOM     29  C   LIG    1       -0.239   2.021  -0.886  0.00  0.00    +0.341 C 
ATOM     30  O   LIG    1        0.341   1.932  -1.970  0.00  0.00    -0.248 OA
BRANCH  29  31
ATOM     31  C   LIG    1       -0.899   3.318  -0.408  0.00  0.00    +0.279 C 
ATOM     32 CL   LIG    1        0.045   3.993   0.947  0.00  0.00    -0.092 Cl
ATOM     33 CL   LIG    1       -1.045   4.521  -1.722  0.00  0.00    -0.092 Cl
ENDBRANCH  29  31
ENDBRANCH  28  29
ENDBRANCH  20  28
TORSDOF 7
