REMARK  Name = DB05824
REMARK                            x       y       z     vdW  Elec       q    Type
REMARK                         _______ _______ _______ _____ _____    ______ ____
ROOT
ATOM      1  C   LIG    1        1.624  -0.182  -0.120  0.00  0.00    +0.207 C 
ENDROOT
BRANCH   1   2
ATOM      2  N   LIG    1        2.223  -1.384  -0.042  0.00  0.00    -0.290 NA
ATOM      3  H   LIG    1        3.156  -1.458   0.337  0.00  0.00    +0.122 HD
ATOM      4  H   LIG    1        1.740  -2.208  -0.371  0.00  0.00    +0.122 HD
ENDBRANCH   1   2
BRANCH   1   5
ATOM      5  N   LIG    1        2.390   0.934  -0.088  0.00  0.00    -0.306 N 
ATOM      6  H   LIG    1        1.872   1.797  -0.008  0.00  0.00    +0.150 HD
BRANCH   5  13
ATOM      7 CL   LIG    1        4.003   0.129  -2.633  0.00  0.00    -0.082 Cl
ATOM      8  C   LIG    1        4.641   0.713  -1.129  0.00  0.00    +0.062 A 
ATOM      9  C   LIG    1        6.025   0.871  -1.024  0.00  0.00    +0.023 A 
ATOM     10  C   LIG    1        6.595   1.366   0.148  0.00  0.00    +0.016 A 
ATOM     11  C   LIG    1        5.779   1.715   1.223  0.00  0.00    +0.009 A 
ATOM     12  C   LIG    1        4.395   1.561   1.133  0.00  0.00    +0.039 A 
ATOM     13  C   LIG    1        3.819   1.042  -0.033  0.00  0.00    +0.049 A 
BRANCH  11  14
ATOM     14  S   LIG    1        6.498   2.353   2.701  0.00  0.00    -0.129 S 
ATOM     15  C   LIG    1        6.858   0.887   3.702  0.00  0.00    +0.090 C 
ENDBRANCH  11  14
ENDBRANCH   5  13
ENDBRANCH   1   5
BRANCH   1  16
ATOM     16  N   LIG    1        0.264  -0.073  -0.239  0.00  0.00    -0.296 N 
ATOM     17  C   LIG    1       -0.414   1.215  -0.547  0.00  0.00    +0.133 C 
BRANCH  16  18
ATOM     18  C   LIG    1       -0.659  -1.187  -0.159  0.00  0.00    +0.033 A 
ATOM     19  C   LIG    1       -0.675  -2.007   0.977  0.00  0.00    +0.023 A 
ATOM     20  C   LIG    1       -1.569  -3.074   1.064  0.00  0.00    +0.003 A 
ATOM     21  C   LIG    1       -2.457  -3.332   0.021  0.00  0.00    +0.015 A 
ATOM     22  C   LIG    1       -2.457  -2.518  -1.116  0.00  0.00    +0.009 A 
ATOM     23  C   LIG    1       -1.562  -1.449  -1.201  0.00  0.00    +0.038 A 
BRANCH  22  24
ATOM     24  S   LIG    1       -3.570  -2.805  -2.465  0.00  0.00    -0.129 S 
ATOM     25  C   LIG    1       -4.605  -4.244  -2.076  0.00  0.00    +0.090 C 
ENDBRANCH  22  24
ENDBRANCH  16  18
ENDBRANCH   1  16
TORSDOF 7
