REMARK  Name = DB05410
REMARK                            x       y       z     vdW  Elec       q    Type
REMARK                         _______ _______ _______ _____ _____    ______ ____
ROOT
ATOM      1  C   LIG    1        3.519   3.220   1.686  0.00  0.00    +0.016 C 
ATOM      2  C   LIG    1        4.790   2.803   2.477  0.00  0.00    -0.005 C 
ATOM      3  C   LIG    1        4.825   1.256   2.845  0.00  0.00    +0.031 C 
ATOM      4  C   LIG    1        3.541   0.724   3.585  0.00  0.00    +0.119 C 
ATOM      5  C   LIG    1        2.502   0.055   2.636  0.00  0.00    +0.041 C 
ATOM      6  C   LIG    1        3.098  -0.999   1.650  0.00  0.00    +0.009 C 
ATOM      7  C   LIG    1        2.178  -1.511   0.467  0.00  0.00    +0.133 C 
ATOM      8  C   LIG    1        3.218  -1.959  -0.611  0.00  0.00    +0.043 C 
ATOM      9  C   LIG    1        4.533  -1.199  -0.328  0.00  0.00    +0.008 C 
ATOM     10  C   LIG    1        4.210  -0.269   0.850  0.00  0.00    +0.002 C 
ATOM     11  C   LIG    1        3.626  -2.239   2.449  0.00  0.00    +0.015 C 
ATOM     12  C   LIG    1        5.357   0.261   1.750  0.00  0.00    -0.001 C 
ATOM     13  C   LIG    1        6.573   0.830   0.994  0.00  0.00    +0.008 C 
ATOM     14  C   LIG    1        6.302   2.229   0.435  0.00  0.00    +0.032 C 
ATOM     15  C   LIG    1        6.020   3.174   1.599  0.00  0.00    -0.060 C 
ATOM     16  C   LIG    1        6.781   4.275   1.806  0.00  0.00    +0.046 C 
ATOM     17  C   LIG    1        6.564   5.250   2.864  0.00  0.00    +0.156 C 
ATOM     18  O   LIG    1        7.348   6.177   3.057  0.00  0.00    -0.293 OA
ATOM     19  C   LIG    1        5.244   5.124   3.627  0.00  0.00    +0.080 C 
ATOM     20  C   LIG    1        4.841   3.646   3.800  0.00  0.00    +0.019 C 
ENDROOT
BRANCH   4  21
ATOM     21  O   LIG    1        3.874  -0.103   4.684  0.00  0.00    -0.391 OA
ATOM     22  H   LIG    1        3.073  -0.293   5.178  0.00  0.00    +0.210 HD
ENDBRANCH   4  21
BRANCH   7  23
ATOM     23  O   LIG    1        1.314  -2.585   0.817  0.00  0.00    -0.380 OA
ATOM     24  H   LIG    1        1.851  -3.318   1.125  0.00  0.00    +0.211 HD
ENDBRANCH   7  23
BRANCH   7  25
ATOM     25  C   LIG    1        1.249  -0.388  -0.110  0.00  0.00    +0.202 C 
ATOM     26  O   LIG    1        1.625   0.352  -1.023  0.00  0.00    -0.291 OA
BRANCH  25  27
ATOM     27  C   LIG    1       -0.159  -0.214   0.489  0.00  0.00    +0.309 C 
BRANCH  27  28
ATOM     28  O   LIG    1       -0.605   1.127   0.319  0.00  0.00    -0.453 OA
BRANCH  28  29
ATOM     29  C   LIG    1       -1.840   1.521   0.709  0.00  0.00    +0.340 C 
ATOM     30  O   LIG    1       -2.683   0.756   1.186  0.00  0.00    -0.245 OA
BRANCH  29  31
ATOM     31  C   LIG    1       -2.091   2.976   0.453  0.00  0.00    +0.059 A 
ATOM     32  C   LIG    1       -1.054   3.856   0.096  0.00  0.00    +0.022 A 
ATOM     33  C   LIG    1       -1.308   5.209  -0.145  0.00  0.00    -0.007 A 
ATOM     34  C   LIG    1       -2.611   5.698  -0.017  0.00  0.00    +0.007 A 
ATOM     35  C   LIG    1       -3.648   4.841   0.345  0.00  0.00    +0.001 A 
ATOM     36  C   LIG    1       -3.390   3.491   0.581  0.00  0.00    +0.015 A 
BRANCH  33  37
ATOM     37  C   LIG    1       -0.172   6.149  -0.536  0.00  0.00    +0.302 C 
BRANCH  37  38
ATOM     38  O   LIG    1        0.763   5.516  -1.423  0.00  0.00    -0.350 OA
BRANCH  38  39
ATOM     39  N   LIG    1        0.296   5.305  -2.761  0.00  0.00    +0.171 N 
ATOM     40  O   LIG    1        1.103   4.719  -3.441  0.00  0.00    -0.094 OA
BRANCH  39  41
ATOM     41  O   LIG    1       -0.800   5.729  -3.052  0.00  0.00    -0.370 OA
ATOM     42  H   LIG    1       -1.135   5.607  -3.919  0.00  0.00    +0.332 HD
ENDBRANCH  39  41
ENDBRANCH  38  39
ENDBRANCH  37  38
ENDBRANCH  33  37
ENDBRANCH  29  31
ENDBRANCH  28  29
ENDBRANCH  27  28
ENDBRANCH  25  27
ENDBRANCH   7  25
TORSDOF 11
