REMARK  Name = DB05861
REMARK                            x       y       z     vdW  Elec       q    Type
REMARK                         _______ _______ _______ _____ _____    ______ ____
ROOT
ATOM      1  C   LIG    1       -2.211  -1.020  -0.077  0.00  0.00    +0.088 A 
ATOM      2  C   LIG    1       -0.718  -1.120  -0.345  0.00  0.00    +0.209 A 
ATOM      3  O   LIG    1       -0.181  -2.181  -0.677  0.00  0.00    -0.286 OA
ATOM      4  C   LIG    1        0.037   0.131  -0.067  0.00  0.00    +0.144 A 
ATOM      5  C   LIG    1       -0.648   1.312   0.084  0.00  0.00    +0.209 A 
ATOM      6  N   LIG    1       -2.041   1.425  -0.070  0.00  0.00    -0.314 N 
ATOM      7  C   LIG    1       -2.704   2.623  -0.637  0.00  0.00    +0.152 C 
ATOM      8  C   LIG    1       -2.826   0.251   0.070  0.00  0.00    +0.059 A 
ATOM      9  C   LIG    1       -4.197   0.340   0.344  0.00  0.00    +0.027 A 
ATOM     10  C   LIG    1       -4.976  -0.801   0.444  0.00  0.00    +0.006 A 
ATOM     11  C   LIG    1       -4.395  -2.049   0.276  0.00  0.00    +0.046 A 
ATOM     12  C   LIG    1       -3.020  -2.183   0.018  0.00  0.00    +0.133 A 
ENDROOT
BRANCH   4  13
ATOM     13  C   LIG    1        1.490   0.014   0.109  0.00  0.00    +0.259 C 
ATOM     14  O   LIG    1        2.212  -0.056  -0.889  0.00  0.00    -0.269 OA
ATOM     15  N   LIG    1        1.993  -0.014   1.383  0.00  0.00    -0.270 N 
ATOM     16  C   LIG    1        3.447  -0.039   1.581  0.00  0.00    +0.138 C 
BRANCH  15  17
ATOM     17  C   LIG    1        1.198  -0.022   2.547  0.00  0.00    +0.036 A 
ATOM     18  C   LIG    1        1.213   1.089   3.394  0.00  0.00    +0.024 A 
ATOM     19  C   LIG    1        0.434   1.092   4.547  0.00  0.00    +0.014 A 
ATOM     20  C   LIG    1       -0.358  -0.018   4.867  0.00  0.00    +0.055 A 
ATOM     21  C   LIG    1       -0.355  -1.134   4.024  0.00  0.00    +0.014 A 
ATOM     22  C   LIG    1        0.424  -1.142   2.871  0.00  0.00    +0.024 A 
BRANCH  20  23
ATOM     23  C   LIG    1       -1.219  -0.035   6.129  0.00  0.00    +0.417 C 
ATOM     24  F   LIG    1       -0.960  -1.132   6.841  0.00  0.00    -0.166 F 
ATOM     25  F   LIG    1       -2.507  -0.044   5.785  0.00  0.00    -0.166 F 
ATOM     26  F   LIG    1       -1.002   1.025   6.911  0.00  0.00    -0.166 F 
ENDBRANCH  20  23
ENDBRANCH  15  17
ENDBRANCH   4  13
BRANCH   5  27
ATOM     27  O   LIG    1       -0.115   2.451   0.415  0.00  0.00    -0.493 OA
ATOM     28  H   LIG    1        0.810   2.514   0.549  0.00  0.00    +0.294 HD
ENDBRANCH   5  27
BRANCH  12  29
ATOM     29  O   LIG    1       -2.429  -3.430  -0.126  0.00  0.00    -0.494 OA
ATOM     30  C   LIG    1       -3.211  -4.617  -0.031  0.00  0.00    +0.277 C 
ENDBRANCH  12  29
TORSDOF 5
