REMARK  Name = DB05767
REMARK                            x       y       z     vdW  Elec       q    Type
REMARK                         _______ _______ _______ _____ _____    ______ ____
ROOT
ATOM      1  C   LIG    1       -2.577   0.660  -1.431  0.00  0.00    +0.009 C 
ATOM      2  C   LIG    1       -1.940  -0.739  -1.422  0.00  0.00    +0.031 C 
ATOM      3  C   LIG    1       -0.426  -0.600  -1.483  0.00  0.00    -0.073 C 
ATOM      4  C   LIG    1        0.297  -1.125  -2.491  0.00  0.00    +0.008 C 
ATOM      5  C   LIG    1        0.127   0.214  -0.295  0.00  0.00    +0.024 C 
ATOM      6  C   LIG    1       -0.446   1.692  -0.358  0.00  0.00    -0.022 C 
ATOM      7  C   LIG    1        0.008   2.476   0.910  0.00  0.00    +0.010 C 
ATOM      8  C   LIG    1       -0.705   3.821   1.132  0.00  0.00    +0.032 C 
ATOM      9  C   LIG    1       -2.241   3.670   1.156  0.00  0.00    +0.123 C 
ATOM     10  C   LIG    1       -2.834   2.945  -0.108  0.00  0.00    +0.020 C 
ATOM     11  C   LIG    1       -4.308   2.571   0.247  0.00  0.00    +0.016 C 
ATOM     12  C   LIG    1        0.096   2.404  -1.636  0.00  0.00    +0.012 C 
ATOM     13  C   LIG    1       -2.029   1.590  -0.306  0.00  0.00    +0.006 C 
ENDROOT
BRANCH   9  14
ATOM     14  O   LIG    1       -2.829   4.931   1.428  0.00  0.00    -0.391 OA
ATOM     15  H   LIG    1       -2.510   5.239   2.279  0.00  0.00    +0.210 HD
ENDBRANCH   9  14
BRANCH   5  16
ATOM     16  C   LIG    1        1.671   0.078  -0.090  0.00  0.00    +0.036 C 
BRANCH  16  17
ATOM     17  C   LIG    1        2.162  -1.340   0.161  0.00  0.00    -0.013 C 
ATOM     18  C   LIG    1        3.314  -1.864  -0.310  0.00  0.00    +0.064 C 
ATOM     19  C   LIG    1        4.387  -1.218  -1.149  0.00  0.00    +0.188 C 
ATOM     20  C   LIG    1        5.552  -2.177  -0.928  0.00  0.00    +0.268 C 
ATOM     21  O   LIG    1        4.969  -3.401  -0.514  0.00  0.00    -0.458 OA
ATOM     22  C   LIG    1        3.718  -3.237  -0.048  0.00  0.00    +0.338 C 
ATOM     23  O   LIG    1        3.072  -4.119   0.517  0.00  0.00    -0.245 OA
BRANCH  19  24
ATOM     24  O   LIG    1        4.027  -1.135  -2.514  0.00  0.00    -0.384 OA
ATOM     25  H   LIG    1        3.299  -0.515  -2.601  0.00  0.00    +0.210 HD
ENDBRANCH  19  24
ENDBRANCH  16  17
ENDBRANCH   5  16
BRANCH  10  26
ATOM     26  C   LIG    1       -2.734   3.886  -1.360  0.00  0.00    +0.165 C 
BRANCH  26  27
ATOM     27  O   LIG    1       -3.809   4.800  -1.472  0.00  0.00    -0.394 OA
ATOM     28  H   LIG    1       -3.667   5.346  -2.248  0.00  0.00    +0.209 HD
ENDBRANCH  26  27
ENDBRANCH  10  26
TORSDOF 6
