REMARK  Name = DB05817
REMARK                            x       y       z     vdW  Elec       q    Type
REMARK                         _______ _______ _______ _____ _____    ______ ____
ROOT
ATOM      1  N   LIG    1        1.439   0.228   0.089  0.00  0.00    -0.066 N 
ATOM      2  C   LIG    1        1.815  -0.319   1.355  0.00  0.00    +0.337 C 
ATOM      3  N   LIG    1        0.822  -0.888   2.067  0.00  0.00    -0.300 N 
ATOM      4  H   LIG    1       -0.107  -0.900   1.672  0.00  0.00    +0.150 HD
ATOM      5  C   LIG    1        0.970  -1.505   3.380  0.00  0.00    +0.130 C 
ATOM      6  O   LIG    1        2.978  -0.267   1.758  0.00  0.00    -0.250 OA
ENDROOT
BRANCH   1   7
ATOM      7  S   LIG    1        2.571   1.146  -0.945  0.00  0.00    +0.061 S 
ATOM      8  C   LIG    1        3.794  -0.172  -1.519  0.00  0.00    +0.220 C 
ATOM      9  O   LIG    1        3.292   2.095  -0.090  0.00  0.00    -0.154 OA
ATOM     10  O   LIG    1        1.859   1.633  -2.132  0.00  0.00    -0.154 OA
ENDBRANCH   1   7
BRANCH   1  11
ATOM     11  N   LIG    1        0.107   0.240  -0.376  0.00  0.00    -0.074 NA
BRANCH  11  12
ATOM     12  S   LIG    1       -0.758   1.780  -0.204  0.00  0.00    +0.046 S 
ATOM     13  C   LIG    1       -2.366   1.263   0.632  0.00  0.00    +0.216 C 
ATOM     14  O   LIG    1       -1.079   2.272  -1.548  0.00  0.00    -0.157 OA
ATOM     15  O   LIG    1       -0.019   2.628   0.739  0.00  0.00    -0.157 OA
ENDBRANCH  11  12
BRANCH  11  16
ATOM     16  C   LIG    1       -0.237  -0.696  -1.476  0.00  0.00    +0.149 C 
BRANCH  16  18
ATOM     17 CL   LIG    1       -0.658  -3.231  -2.374  0.00  0.00    -0.124 Cl
ATOM     18  C   LIG    1       -0.197  -2.164  -1.025  0.00  0.00    +0.127 C 
ENDBRANCH  16  18
ENDBRANCH  11  16
ENDBRANCH   1  11
TORSDOF 5
