REMARK  Name = DB05016
REMARK                            x       y       z     vdW  Elec       q    Type
REMARK                         _______ _______ _______ _____ _____    ______ ____
ROOT
ATOM      1  C   LIG    1        3.460  -0.472  -0.441  0.00  0.00    +0.262 A 
ATOM      2  N   LIG    1        2.240  -0.942  -0.425  0.00  0.00    -0.187 NA
ATOM      3  C   LIG    1        1.514   0.121  -0.128  0.00  0.00    +0.202 A 
ATOM      4  N   LIG    1        2.192   1.239   0.045  0.00  0.00    -0.056 NA
ATOM      5  O   LIG    1        3.514   0.855  -0.163  0.00  0.00    -0.332 OA
ENDROOT
BRANCH   1  12
ATOM      6  F   LIG    1        3.621  -3.302  -1.089  0.00  0.00    -0.205 F 
ATOM      7  C   LIG    1        4.763  -2.577  -1.028  0.00  0.00    +0.136 A 
ATOM      8  C   LIG    1        5.975  -3.222  -1.281  0.00  0.00    +0.039 A 
ATOM      9  C   LIG    1        7.173  -2.513  -1.229  0.00  0.00    +0.003 A 
ATOM     10  C   LIG    1        7.162  -1.154  -0.925  0.00  0.00    +0.001 A 
ATOM     11  C   LIG    1        5.953  -0.506  -0.672  0.00  0.00    +0.016 A 
ATOM     12  C   LIG    1        4.738  -1.205  -0.720  0.00  0.00    +0.075 A 
ENDBRANCH   1  12
BRANCH   3  13
ATOM     13  C   LIG    1        0.015   0.060   0.004  0.00  0.00    +0.023 A 
ATOM     14  C   LIG    1       -0.725   1.207   0.323  0.00  0.00    +0.012 A 
ATOM     15  C   LIG    1       -2.111   1.151   0.446  0.00  0.00    +0.001 A 
ATOM     16  C   LIG    1       -2.781  -0.054   0.251  0.00  0.00    +0.015 A 
ATOM     17  C   LIG    1       -2.074  -1.221  -0.069  0.00  0.00    +0.060 A 
ATOM     18  C   LIG    1       -0.677  -1.147  -0.189  0.00  0.00    +0.026 A 
BRANCH  17  19
ATOM     19  C   LIG    1       -2.816  -2.521  -0.277  0.00  0.00    +0.337 C 
ATOM     20  O   LIG    1       -4.040  -2.603  -0.175  0.00  0.00    -0.245 OA
BRANCH  19  21
ATOM     21  O   LIG    1       -2.031  -3.595  -0.585  0.00  0.00    -0.477 OA
ATOM     22  H   LIG    1       -2.545  -4.396  -0.707  0.00  0.00    +0.295 HD
ENDBRANCH  19  21
ENDBRANCH  17  19
ENDBRANCH   3  13
TORSDOF 4
