REMARK  Name = DB05792
REMARK                            x       y       z     vdW  Elec       q    Type
REMARK                         _______ _______ _______ _____ _____    ______ ____
ROOT
ATOM      1 CL   LIG    1        5.380   0.752   4.123  0.00  0.00    -0.083 Cl
ATOM      2  C   LIG    1        5.017   0.101   2.560  0.00  0.00    +0.045 A 
ATOM      3  C   LIG    1        4.362   0.933   1.651  0.00  0.00    +0.028 A 
ATOM      4  C   LIG    1        3.993   0.467   0.389  0.00  0.00    -0.024 A 
ATOM      5  C   LIG    1        4.321  -0.842   0.030  0.00  0.00    +0.008 A 
ATOM      6  C   LIG    1        4.979  -1.678   0.929  0.00  0.00    +0.006 A 
ATOM      7  C   LIG    1        5.342  -1.224   2.207  0.00  0.00    -0.026 A 
ENDROOT
BRANCH   7   8
ATOM      8  C   LIG    1        6.043  -2.159   3.214  0.00  0.00    +0.020 C 
ATOM      9  C   LIG    1        5.846  -3.679   2.951  0.00  0.00    +0.008 C 
ATOM     10  C   LIG    1        6.529  -4.544   4.029  0.00  0.00    +0.001 C 
ATOM     11  C   LIG    1        8.022  -4.199   4.176  0.00  0.00    +0.000 C 
ATOM     12  C   LIG    1        8.236  -2.697   4.437  0.00  0.00    +0.001 C 
ATOM     13  C   LIG    1        7.546  -1.813   3.378  0.00  0.00    +0.008 C 
ENDBRANCH   7   8
BRANCH   4  14
ATOM     14  C   LIG    1        3.269   1.363  -0.528  0.00  0.00    +0.002 C 
ATOM     15  C   LIG    1        2.094   1.125  -1.145  0.00  0.00    -0.045 C 
BRANCH  15  16
ATOM     16  C   LIG    1        1.213  -0.110  -1.012  0.00  0.00    -0.051 C 
BRANCH  16  17
ATOM     17  N   LIG    1       -0.035   0.147  -0.122  0.00  0.00    +0.384 N 
ATOM     18  H   LIG    1        0.179   0.981   0.406  0.00  0.00    -0.081 HD
BRANCH  17  19
ATOM     19  C   LIG    1       -0.217  -0.972   0.956  0.00  0.00    -0.068 C 
ATOM     20  C   LIG    1        0.881  -0.798   2.043  0.00  0.00    -0.015 C 
ATOM     21  C   LIG    1        0.739  -1.787   3.215  0.00  0.00    -0.002 C 
ATOM     22  C   LIG    1       -0.669  -1.748   3.835  0.00  0.00    -0.000 C 
ATOM     23  C   LIG    1       -1.765  -1.956   2.774  0.00  0.00    -0.002 C 
ATOM     24  C   LIG    1       -1.634  -0.969   1.597  0.00  0.00    -0.015 C 
ENDBRANCH  17  19
BRANCH  17  25
ATOM     25  C   LIG    1       -1.302   0.487  -0.957  0.00  0.00    -0.081 C 
ATOM     26  C   LIG    1       -1.077   1.653  -1.935  0.00  0.00    -0.017 C 
ENDBRANCH  17  25
ENDBRANCH  16  17
ENDBRANCH  15  16
ENDBRANCH   4  14
TORSDOF 6
