REMARK  Name = DB05562
REMARK                            x       y       z     vdW  Elec       q    Type
REMARK                         _______ _______ _______ _____ _____    ______ ____
ROOT
ATOM      1  N   LIG    1       -4.132   2.026  -2.026  0.00  0.00    -0.333 N 
ATOM      2  C   LIG    1       -3.783   2.603  -0.715  0.00  0.00    +0.086 C 
ATOM      3  C   LIG    1       -2.258   2.724  -0.487  0.00  0.00    -0.060 C 
ATOM      4  N   LIG    1       -1.623   1.320  -0.578  0.00  0.00    +0.382 N 
ATOM      5  H   LIG    1       -2.037   0.744   0.142  0.00  0.00    -0.082 HD
ATOM      6  C   LIG    1       -1.975   0.724  -1.960  0.00  0.00    -0.060 C 
ATOM      7  C   LIG    1       -3.513   0.691  -2.118  0.00  0.00    +0.086 C 
ENDROOT
BRANCH   1  10
ATOM      8  C   LIG    1       -5.162   2.984  -5.463  0.00  0.00    +0.035 A 
ATOM      9  C   LIG    1       -4.961   2.245  -4.292  0.00  0.00    +0.046 A 
ATOM     10  C   LIG    1       -4.320   2.799  -3.173  0.00  0.00    +0.031 A 
ATOM     11  C   LIG    1       -3.894   4.134  -3.250  0.00  0.00    +0.023 A 
ATOM     12  C   LIG    1       -4.096   4.885  -4.406  0.00  0.00    +0.004 A 
ATOM     13  C   LIG    1       -4.728   4.318  -5.509  0.00  0.00    +0.023 A 
BRANCH   8  16
ATOM     14  C   LIG    1       -6.759   1.738  -8.685  0.00  0.00    +0.109 C 
ATOM     15  C   LIG    1       -5.919   2.667  -7.814  0.00  0.00    +0.214 C 
ATOM     16  N   LIG    1       -5.829   2.324  -6.512  0.00  0.00    -0.286 N 
ATOM     17  H   LIG    1       -6.267   1.454  -6.248  0.00  0.00    +0.155 HD
ATOM     18  O   LIG    1       -5.373   3.638  -8.336  0.00  0.00    -0.276 OA
ENDBRANCH   8  16
ENDBRANCH   1  10
BRANCH   4  19
ATOM     19  C   LIG    1       -0.095   1.411  -0.349  0.00  0.00    -0.079 C 
BRANCH  19  20
ATOM     20  C   LIG    1        0.509   0.020  -0.072  0.00  0.00    -0.017 C 
BRANCH  20  21
ATOM     21  C   LIG    1        2.021   0.049   0.224  0.00  0.00    +0.015 C 
BRANCH  21  22
ATOM     22  C   LIG    1        2.392   0.825   1.500  0.00  0.00    +0.105 C 
BRANCH  22  23
ATOM     23  N   LIG    1        3.844   0.772   1.743  0.00  0.00    -0.195 NA
ATOM     24  H   LIG    1        4.348   1.069   0.903  0.00  0.00    +0.148 HD
BRANCH  23  25
ATOM     25  S   LIG    1        4.414   1.639   3.164  0.00  0.00    +0.030 S 
ATOM     26  O   LIG    1        3.583   1.217   4.297  0.00  0.00    -0.158 OA
ATOM     27  O   LIG    1        4.498   3.057   2.800  0.00  0.00    -0.158 OA
BRANCH  25  28
ATOM     28  C   LIG    1        6.171   0.969   3.402  0.00  0.00    +0.188 C 
BRANCH  28  29
ATOM     29  C   LIG    1        6.962   1.780   4.454  0.00  0.00    +0.012 C 
ATOM     30  C   LIG    1        6.465   1.545   5.901  0.00  0.00    +0.005 C 
ATOM     31  C   LIG    1        7.240   2.413   6.913  0.00  0.00    +0.000 C 
ATOM     32  C   LIG    1        8.763   2.177   6.817  0.00  0.00    +0.000 C 
ATOM     33  C   LIG    1        9.287   2.306   5.370  0.00  0.00    +0.000 C 
ATOM     34  C   LIG    1        8.469   1.438   4.393  0.00  0.00    +0.005 C 
ENDBRANCH  28  29
ENDBRANCH  25  28
ENDBRANCH  23  25
ENDBRANCH  22  23
ENDBRANCH  21  22
ENDBRANCH  20  21
ENDBRANCH  19  20
ENDBRANCH   4  19
TORSDOF 10
