REMARK  Name = DB05553
REMARK                            x       y       z     vdW  Elec       q    Type
REMARK                         _______ _______ _______ _____ _____    ______ ____
ROOT
ATOM      1  C   LIG    1        1.436  -0.808  -0.487  0.00  0.00    +0.254 C 
ATOM      2  C   LIG    1        2.144  -0.215  -1.700  0.00  0.00    +0.203 C 
ATOM      3  C   LIG    1        2.925   0.946  -1.107  0.00  0.00    +0.186 C 
ATOM      4  O   LIG    1        4.196   0.847  -1.734  0.00  0.00    -0.339 OA
ATOM      5  C   LIG    1        4.165  -0.166  -2.680  0.00  0.00    +0.276 C 
ATOM      6  C   LIG    1        3.004   0.715   0.405  0.00  0.00    +0.178 C 
ATOM      7  O   LIG    1        3.178  -1.028  -2.218  0.00  0.00    -0.337 OA
ATOM      8  O   LIG    1        2.127  -0.380   0.649  0.00  0.00    -0.346 OA
ENDROOT
BRANCH   1  16
ATOM      9  N   LIG    1       -0.132   1.912  -0.926  0.00  0.00    -0.216 NA
ATOM     10  C   LIG    1       -0.620   0.732  -0.526  0.00  0.00    +0.167 A 
ATOM     11  C   LIG    1       -1.980   0.489  -0.201  0.00  0.00    +0.148 A 
ATOM     12  N   LIG    1       -2.168  -0.815   0.167  0.00  0.00    -0.231 NA
ATOM     13  C   LIG    1       -0.973  -1.341   0.078  0.00  0.00    +0.203 A 
ATOM     14  C   LIG    1       -2.869   1.578  -0.304  0.00  0.00    +0.157 A 
ATOM     15  N   LIG    1       -2.392   2.796  -0.700  0.00  0.00    -0.218 NA
ATOM     16  N   LIG    1        0.025  -0.483  -0.345  0.00  0.00    -0.286 N 
ATOM     17  C   LIG    1       -1.067   2.895  -0.982  0.00  0.00    +0.225 A 
BRANCH  14  18
ATOM     18  N   LIG    1       -4.227   1.372   0.006  0.00  0.00    -0.252 N 
ATOM     19  H   LIG    1       -4.456   0.427   0.277  0.00  0.00    +0.158 HD
ATOM     20  C   LIG    1       -5.240   2.263  -0.013  0.00  0.00    +0.305 C 
ATOM     21  O   LIG    1       -5.140   3.457  -0.303  0.00  0.00    -0.252 OA
ATOM     22  N   LIG    1       -6.399   1.675   0.326  0.00  0.00    -0.299 N 
ATOM     23  H   LIG    1       -6.398   0.687   0.532  0.00  0.00    +0.150 HD
BRANCH  22  24
ATOM     24  C   LIG    1       -7.694   2.349   0.408  0.00  0.00    +0.102 C 
ATOM     25  C   LIG    1       -7.864   3.194   1.680  0.00  0.00    +0.024 C 
ENDBRANCH  22  24
ENDBRANCH  14  18
ENDBRANCH   1  16
BRANCH   5  26
ATOM     26  C   LIG    1        3.885   0.402  -4.063  0.00  0.00    +0.034 C 
ATOM     27  C   LIG    1        2.980  -0.093  -4.933  0.00  0.00    +0.008 C 
BRANCH  27  28
ATOM     28  C   LIG    1        2.669   0.426  -6.282  0.00  0.00    -0.025 A 
ATOM     29  C   LIG    1        3.303   1.556  -6.818  0.00  0.00    +0.008 A 
ATOM     30  C   LIG    1        2.976   2.008  -8.094  0.00  0.00    +0.001 A 
ATOM     31  C   LIG    1        2.013   1.333  -8.840  0.00  0.00    +0.000 A 
ATOM     32  C   LIG    1        1.375   0.210  -8.320  0.00  0.00    +0.001 A 
ATOM     33  C   LIG    1        1.703  -0.240  -7.044  0.00  0.00    +0.008 A 
ENDBRANCH  27  28
ENDBRANCH   5  26
BRANCH   6  34
ATOM     34  C   LIG    1        2.581   1.875   1.331  0.00  0.00    +0.206 C 
BRANCH  34  35
ATOM     35  O   LIG    1        3.509   2.947   1.385  0.00  0.00    -0.284 OA
BRANCH  35  36
ATOM     36  P   LIG    1        3.562   4.233   0.179  0.00  0.00    +0.472 P 
ATOM     37  O   LIG    1        4.194   5.438   0.899  0.00  0.00    -0.228 OA
BRANCH  36  38
ATOM     38  O   LIG    1        2.104   4.490  -0.245  0.00  0.00    -0.303 OA
ATOM     39  H   LIG    1        1.754   3.704  -0.693  0.00  0.00    +0.222 HD
ENDBRANCH  36  38
BRANCH  36  40
ATOM     40  O   LIG    1        4.438   3.707  -0.972  0.00  0.00    -0.303 OA
ATOM     41  H   LIG    1        3.999   2.951  -1.393  0.00  0.00    +0.222 HD
ENDBRANCH  36  40
ENDBRANCH  35  36
ENDBRANCH  34  35
ENDBRANCH   6  34
TORSDOF 10
