REMARK  Name = DB05273
REMARK                            x       y       z     vdW  Elec       q    Type
REMARK                         _______ _______ _______ _____ _____    ______ ____
ROOT
ATOM      1  C   LIG    1        0.213  -0.148  -0.719  0.00  0.00    +0.101 C 
ENDROOT
BRANCH   1   2
ATOM      2  N   LIG    1       -0.314   1.196  -0.449  0.00  0.00    -0.280 NA
BRANCH   2   3
ATOM      3  C   LIG    1       -0.643   1.373   0.972  0.00  0.00    +0.212 C 
BRANCH   3   4
ATOM      4  P   LIG    1       -0.370   3.181   1.425  0.00  0.00    +0.342 P 
ATOM      5  O   LIG    1       -1.382   4.051   0.710  0.00  0.00    -0.257 OA
BRANCH   4   6
ATOM      6  O   LIG    1        1.112   3.479   1.414  0.00  0.00    -0.323 OA
ATOM      7  H   LIG    1        1.419   3.563   0.497  0.00  0.00    +0.220 HD
ENDBRANCH   4   6
BRANCH   4   8
ATOM      8  O   LIG    1       -0.860   3.043   3.061  0.00  0.00    -0.323 OA
ATOM      9  H   LIG    1       -0.268   2.742   3.776  0.00  0.00    +0.220 HD
ENDBRANCH   4   8
ENDBRANCH   3   4
ENDBRANCH   2   3
BRANCH   2  10
ATOM     10  C   LIG    1       -1.499   1.459  -1.275  0.00  0.00    +0.212 C 
BRANCH  10  11
ATOM     11  P   LIG    1       -0.903   2.149  -2.880  0.00  0.00    +0.342 P 
ATOM     12  O   LIG    1       -0.191   1.262  -3.839  0.00  0.00    -0.257 OA
BRANCH  11  13
ATOM     13  O   LIG    1       -0.055   3.449  -2.398  0.00  0.00    -0.323 OA
ATOM     14  H   LIG    1       -0.469   3.999  -1.705  0.00  0.00    +0.220 HD
ENDBRANCH  11  13
BRANCH  11  15
ATOM     15  O   LIG    1       -2.264   2.812  -3.467  0.00  0.00    -0.323 OA
ATOM     16  H   LIG    1       -2.707   3.459  -2.885  0.00  0.00    +0.220 HD
ENDBRANCH  11  15
ENDBRANCH  10  11
ENDBRANCH   2  10
ENDBRANCH   1   2
BRANCH   1  17
ATOM     17  C   LIG    1        1.660  -0.326  -0.193  0.00  0.00    +0.101 C 
BRANCH  17  18
ATOM     18  N   LIG    1        1.962  -1.725   0.136  0.00  0.00    -0.280 NA
BRANCH  18  19
ATOM     19  C   LIG    1        1.229  -2.176   1.331  0.00  0.00    +0.212 C 
BRANCH  19  20
ATOM     20  P   LIG    1        0.419  -3.840   0.970  0.00  0.00    +0.342 P 
ATOM     21  O   LIG    1       -0.373  -3.752  -0.315  0.00  0.00    -0.257 OA
BRANCH  20  22
ATOM     22  O   LIG    1       -0.173  -4.374   2.256  0.00  0.00    -0.323 OA
ATOM     23  H   LIG    1       -0.987  -3.890   2.462  0.00  0.00    +0.220 HD
ENDBRANCH  20  22
BRANCH  20  24
ATOM     24  O   LIG    1        1.851  -4.728   0.656  0.00  0.00    -0.323 OA
ATOM     25  H   LIG    1        2.432  -5.082   1.355  0.00  0.00    +0.220 HD
ENDBRANCH  20  24
ENDBRANCH  19  20
ENDBRANCH  18  19
BRANCH  18  26
ATOM     26  C   LIG    1        3.405  -1.935   0.321  0.00  0.00    +0.212 C 
BRANCH  26  27
ATOM     27  P   LIG    1        4.280  -2.082  -1.344  0.00  0.00    +0.342 P 
ATOM     28  O   LIG    1        4.486  -0.710  -1.947  0.00  0.00    -0.257 OA
BRANCH  27  29
ATOM     29  O   LIG    1        3.700  -3.241  -2.123  0.00  0.00    -0.323 OA
ATOM     30  H   LIG    1        2.841  -2.984  -2.493  0.00  0.00    +0.220 HD
ENDBRANCH  27  29
BRANCH  27  31
ATOM     31  O   LIG    1        5.793  -2.585  -0.712  0.00  0.00    -0.323 OA
ATOM     32  H   LIG    1        6.474  -1.963  -0.395  0.00  0.00    +0.220 HD
ENDBRANCH  27  31
ENDBRANCH  26  27
ENDBRANCH  18  26
ENDBRANCH  17  18
ENDBRANCH   1  17
TORSDOF 19
