REMARK  Name = DB05626
REMARK                            x       y       z     vdW  Elec       q    Type
REMARK                         _______ _______ _______ _____ _____    ______ ____
ROOT
ATOM      1  C   LIG    1        1.248   4.353   1.169  0.00  0.00    +0.008 C 
ATOM      2  C   LIG    1        0.276   3.167   1.337  0.00  0.00    -0.007 C 
ATOM      3  C   LIG    1       -1.017   3.564   2.102  0.00  0.00    +0.037 C 
ATOM      4  C   LIG    1       -0.860   4.244   3.484  0.00  0.00    +0.147 C 
ATOM      5  C   LIG    1       -2.245   4.648   4.083  0.00  0.00    +0.150 C 
ATOM      6  C   LIG    1       -3.154   3.488   4.606  0.00  0.00    +0.040 C 
ATOM      7  C   LIG    1       -2.844   3.045   6.052  0.00  0.00    +0.014 C 
ATOM      8  C   LIG    1       -4.639   3.807   4.441  0.00  0.00    -0.019 C 
ATOM      9  C   LIG    1       -5.615   2.969   4.028  0.00  0.00    -0.033 C 
ATOM     10  C   LIG    1       -5.376   1.487   3.764  0.00  0.00    +0.042 C 
ATOM     11  C   LIG    1       -7.067   3.460   3.901  0.00  0.00    +0.236 C 
ATOM     12  C   LIG    1       -7.663   3.451   2.458  0.00  0.00    +0.186 C 
ATOM     13  C   LIG    1       -8.526   2.228   2.100  0.00  0.00    +0.008 C 
ATOM     14  C   LIG    1       -8.238   1.119   1.383  0.00  0.00    -0.001 C 
ATOM     15  C   LIG    1       -6.962   0.792   0.766  0.00  0.00    +0.008 C 
ATOM     16  C   LIG    1       -6.599  -0.418   0.261  0.00  0.00    +0.012 C 
ATOM     17  C   LIG    1       -7.487  -1.664   0.223  0.00  0.00    +0.049 C 
ATOM     18  C   LIG    1       -5.254  -0.644  -0.259  0.00  0.00    +0.244 C 
ATOM     19  O   LIG    1       -5.022  -1.421  -1.188  0.00  0.00    -0.270 OA
ATOM     20  N   LIG    1       -4.289   0.036   0.397  0.00  0.00    -0.279 N 
ATOM     21  H   LIG    1       -4.595   0.730   1.063  0.00  0.00    +0.155 HD
ATOM     22  C   LIG    1       -2.907  -0.006   0.177  0.00  0.00    +0.079 A 
ATOM     23  C   LIG    1       -2.202   1.194   0.037  0.00  0.00    +0.143 A 
ATOM     24  C   LIG    1       -0.794   1.192   0.019  0.00  0.00    +0.020 A 
ATOM     25  C   LIG    1       -0.088  -0.034   0.092  0.00  0.00    +0.076 A 
ATOM     26  C   LIG    1       -0.826  -1.240   0.180  0.00  0.00    +0.140 A 
ATOM     27  C   LIG    1       -2.217  -1.215   0.230  0.00  0.00    +0.074 A 
ATOM     28  C   LIG    1       -0.046   2.542  -0.051  0.00  0.00    +0.044 C 
ENDROOT
BRANCH   4  29
ATOM     29  O   LIG    1       -0.117   3.358   4.321  0.00  0.00    -0.377 OA
ATOM     30  C   LIG    1        0.639   3.981   5.351  0.00  0.00    +0.194 C 
ENDBRANCH   4  29
BRANCH   5  31
ATOM     31  O   LIG    1       -2.107   5.680   5.044  0.00  0.00    -0.389 OA
ATOM     32  H   LIG    1       -2.981   5.927   5.354  0.00  0.00    +0.210 HD
ENDBRANCH   5  31
BRANCH  12  33
ATOM     33  O   LIG    1       -6.635   3.740   1.508  0.00  0.00    -0.372 OA
ATOM     34  C   LIG    1       -7.080   4.243   0.253  0.00  0.00    +0.195 C 
ENDBRANCH  12  33
BRANCH  23  35
ATOM     35  O   LIG    1       -2.903   2.376  -0.068  0.00  0.00    -0.505 OA
ATOM     36  H   LIG    1       -3.854   2.248  -0.070  0.00  0.00    +0.292 HD
ENDBRANCH  23  35
BRANCH  25  37
ATOM     37  N   LIG    1        1.327   0.031   0.085  0.00  0.00    -0.337 N 
ATOM     38  H   LIG    1        1.701   0.917  -0.222  0.00  0.00    +0.146 HD
BRANCH  37  39
ATOM     39  C   LIG    1        2.219  -1.104  -0.100  0.00  0.00    +0.128 C 
BRANCH  39  40
ATOM     40  C   LIG    1        3.695  -0.767  -0.085  0.00  0.00    -0.016 C 
ATOM     41  C   LIG    1        4.549  -1.036  -1.085  0.00  0.00    +0.005 C 
ENDBRANCH  39  40
ENDBRANCH  37  39
ENDBRANCH  25  37
BRANCH  26  42
ATOM     42  O   LIG    1       -0.247  -2.482   0.249  0.00  0.00    -0.505 OA
ATOM     43  H   LIG    1       -0.890  -3.192   0.308  0.00  0.00    +0.292 HD
ENDBRANCH  26  42
BRANCH  11  44
ATOM     44  O   LIG    1       -7.935   2.771   4.811  0.00  0.00    -0.440 OA
BRANCH  44  45
ATOM     45  C   LIG    1       -7.935   3.023   6.140  0.00  0.00    +0.398 C 
ATOM     46  N   LIG    1       -8.837   2.190   6.762  0.00  0.00    -0.295 N 
ATOM     47  H   LIG    1       -8.957   2.252   7.763  0.00  0.00    +0.148 HD
ATOM     48  H   LIG    1       -9.364   1.529   6.212  0.00  0.00    +0.148 HD
ATOM     49  O   LIG    1       -7.238   3.863   6.708  0.00  0.00    -0.227 OA
ENDBRANCH  44  45
ENDBRANCH  11  44
TORSDOF 10
