REMARK  Name = DB05220
REMARK                            x       y       z     vdW  Elec       q    Type
REMARK                         _______ _______ _______ _____ _____    ______ ____
ROOT
ATOM      1  C   LIG    1        2.018  -1.321  -0.953  0.00  0.00    +0.220 A 
ATOM      2  N   LIG    1        3.212  -1.801  -0.525  0.00  0.00    -0.222 NA
ATOM      3  C   LIG    1        3.997  -2.396  -1.458  0.00  0.00    +0.122 A 
ATOM      4  C   LIG    1        3.623  -2.523  -2.801  0.00  0.00    +0.018 A 
ATOM      5  C   LIG    1        2.377  -1.980  -3.163  0.00  0.00    +0.082 A 
ATOM      6  C   LIG    1        1.855  -2.023  -4.572  0.00  0.00    +0.010 A 
ATOM      7  C   LIG    1        1.120  -0.914  -5.031  0.00  0.00    +0.012 A 
ATOM      8  C   LIG    1        0.620  -0.863  -6.327  0.00  0.00    +0.020 A 
ATOM      9  C   LIG    1        0.849  -1.920  -7.197  0.00  0.00    +0.042 A 
ATOM     10 CL   LIG    1        0.234  -1.863  -8.808  0.00  0.00    -0.084 Cl
ATOM     11  C   LIG    1        1.574  -3.027  -6.765  0.00  0.00    +0.030 A 
ATOM     12  C   LIG    1        2.087  -3.108  -5.457  0.00  0.00    +0.011 A 
ATOM     13  C   LIG    1        2.809  -4.351  -5.054  0.00  0.00    +0.080 C 
ATOM     14  N   LIG    1        3.873  -4.423  -4.341  0.00  0.00    -0.278 NA
ATOM     15  C   LIG    1        4.490  -3.204  -3.854  0.00  0.00    +0.181 C 
ATOM     16  N   LIG    1        1.581  -1.371  -2.239  0.00  0.00    -0.214 NA
ENDROOT
BRANCH  13  17
ATOM     17  C   LIG    1        2.202  -5.619  -5.503  0.00  0.00    +0.077 A 
ATOM     18  C   LIG    1        0.986  -6.062  -4.940  0.00  0.00    +0.132 A 
ATOM     19  C   LIG    1        0.424  -7.264  -5.407  0.00  0.00    +0.046 A 
ATOM     20  C   LIG    1        1.050  -8.005  -6.407  0.00  0.00    +0.006 A 
ATOM     21  C   LIG    1        2.246  -7.558  -6.960  0.00  0.00    +0.039 A 
ATOM     22  C   LIG    1        2.822  -6.371  -6.516  0.00  0.00    +0.136 A 
ATOM     23  F   LIG    1        3.982  -5.958  -7.085  0.00  0.00    -0.205 F 
BRANCH  18  24
ATOM     24  O   LIG    1        0.399  -5.291  -3.947  0.00  0.00    -0.494 OA
ATOM     25  C   LIG    1       -0.837  -5.696  -3.372  0.00  0.00    +0.277 C 
ENDBRANCH  18  24
ENDBRANCH  13  17
BRANCH   1  26
ATOM     26  N   LIG    1        1.214  -0.716   0.025  0.00  0.00    -0.283 N 
ATOM     27  H   LIG    1        1.647  -0.638   0.934  0.00  0.00    +0.155 HD
BRANCH  26  31
ATOM     28  C   LIG    1       -2.805   0.572  -0.041  0.00  0.00    +0.100 A 
ATOM     29  C   LIG    1       -1.839   1.222   0.740  0.00  0.00    +0.020 A 
ATOM     30  C   LIG    1       -0.517   0.787   0.752  0.00  0.00    +0.024 A 
ATOM     31  C   LIG    1       -0.130  -0.305  -0.020  0.00  0.00    +0.037 A 
ATOM     32  C   LIG    1       -1.091  -0.974  -0.785  0.00  0.00    +0.069 A 
ATOM     33  C   LIG    1       -2.431  -0.547  -0.816  0.00  0.00    +0.136 A 
BRANCH  28  34
ATOM     34  C   LIG    1       -4.212   1.083  -0.031  0.00  0.00    +0.340 C 
ATOM     35  O   LIG    1       -4.672   1.533  -1.106  0.00  0.00    -0.245 OA
BRANCH  34  36
ATOM     36  O   LIG    1       -4.832   1.043   1.057  0.00  0.00    -0.477 OA
ATOM     37  H   LIG    1       -4.417   0.690   1.819  0.00  0.00    +0.295 HD
ENDBRANCH  34  36
ENDBRANCH  28  34
BRANCH  33  38
ATOM     38  O   LIG    1       -3.406  -1.188  -1.567  0.00  0.00    -0.494 OA
ATOM     39  C   LIG    1       -3.057  -2.304  -2.379  0.00  0.00    +0.277 C 
ENDBRANCH  33  38
ENDBRANCH  26  31
ENDBRANCH   1  26
TORSDOF 7
