REMARK  Name = DB05013
REMARK                            x       y       z     vdW  Elec       q    Type
REMARK                         _______ _______ _______ _____ _____    ______ ____
ROOT
ATOM      1  C   LIG    1       -1.401   1.463   1.297  0.00  0.00    +0.086 C 
ATOM      2  C   LIG    1       -1.565  -0.025   1.648  0.00  0.00    -0.007 C 
ATOM      3  C   LIG    1       -0.983  -0.868   0.780  0.00  0.00    -0.033 C 
ATOM      4  C   LIG    1       -0.889  -2.378   0.816  0.00  0.00    +0.042 C 
ATOM      5  C   LIG    1       -0.313  -0.071  -0.308  0.00  0.00    +0.238 C 
ATOM      6  C   LIG    1       -0.281   2.092   2.229  0.00  0.00    +0.006 C 
ATOM      7  C   LIG    1       -0.517   1.863   3.748  0.00  0.00    +0.009 C 
ATOM      8  C   LIG    1        0.111   3.584   2.002  0.00  0.00    +0.009 C 
ATOM      9  C   LIG    1       -0.907   4.681   2.402  0.00  0.00    -0.000 C 
ATOM     10  C   LIG    1       -1.303   5.775   1.429  0.00  0.00    -0.028 C 
ATOM     11  C   LIG    1       -1.437   7.195   2.011  0.00  0.00    +0.011 C 
ATOM     12  C   LIG    1       -0.753   5.815  -0.014  0.00  0.00    +0.011 C 
ATOM     13  C   LIG    1       -2.351   4.767   1.861  0.00  0.00    +0.013 C 
ATOM     14  C   LIG    1       -2.984   3.629   1.010  0.00  0.00    +0.083 C 
ATOM     15  C   LIG    1       -3.053   3.767  -0.510  0.00  0.00    -0.012 C 
ATOM     16  C   LIG    1       -2.787   2.865  -1.486  0.00  0.00    -0.017 C 
ATOM     17  C   LIG    1       -2.264   1.430  -1.221  0.00  0.00    +0.179 C 
ATOM     18  C   LIG    1       -2.746   2.215   1.556  0.00  0.00    +0.153 C 
ATOM     19  O   LIG    1       -3.652   1.690   2.210  0.00  0.00    -0.296 OA
ATOM     20  C   LIG    1       -1.024   1.317  -0.239  0.00  0.00    +0.152 C 
ENDROOT
BRANCH  17  21
ATOM     21  O   LIG    1       -2.022   0.768  -2.456  0.00  0.00    -0.384 OA
ATOM     22  H   LIG    1       -1.336   1.249  -2.926  0.00  0.00    +0.210 HD
ENDBRANCH  17  21
BRANCH  20  23
ATOM     23  O   LIG    1       -0.148   2.306  -0.763  0.00  0.00    -0.380 OA
ATOM     24  H   LIG    1        0.226   1.976  -1.584  0.00  0.00    +0.211 HD
ENDBRANCH  20  23
BRANCH   5  25
ATOM     25  O   LIG    1        1.093  -0.023  -0.030  0.00  0.00    -0.451 OA
BRANCH  25  26
ATOM     26  C   LIG    1        2.032   0.035  -1.012  0.00  0.00    +0.335 C 
ATOM     27  O   LIG    1        1.765   0.044  -2.216  0.00  0.00    -0.245 OA
BRANCH  26  28
ATOM     28  C   LIG    1        3.406   0.132  -0.485  0.00  0.00    +0.029 C 
ATOM     29  C   LIG    1        3.560   0.924   0.813  0.00  0.00    +0.051 C 
ATOM     30  C   LIG    1        4.481  -0.398  -1.118  0.00  0.00    -0.020 C 
ATOM     31  C   LIG    1        4.536  -1.234  -2.389  0.00  0.00    +0.036 C 
ENDBRANCH  26  28
ENDBRANCH  25  26
ENDBRANCH   5  25
BRANCH  16  32
ATOM     32  C   LIG    1       -3.028   3.340  -2.924  0.00  0.00    +0.189 C 
BRANCH  32  33
ATOM     33  O   LIG    1       -1.788   3.469  -3.590  0.00  0.00    -0.391 OA
ATOM     34  H   LIG    1       -1.952   3.772  -4.486  0.00  0.00    +0.210 HD
ENDBRANCH  32  33
ENDBRANCH  16  32
TORSDOF 7
