REMARK  Name = DB05327
REMARK                            x       y       z     vdW  Elec       q    Type
REMARK                         _______ _______ _______ _____ _____    ______ ____
ROOT
ATOM      1  N   LIG    1       -0.074   0.033  -0.026  0.00  0.00    -0.230 N 
ATOM      2  C   LIG    1       -0.650  -1.223  -0.029  0.00  0.00    +0.270 C 
ATOM      3  C   LIG    1       -2.093  -1.198   0.086  0.00  0.00    +0.106 A 
ATOM      4  C   LIG    1       -3.002  -2.252   0.157  0.00  0.00    +0.032 A 
ATOM      5  C   LIG    1       -4.288  -1.728   0.245  0.00  0.00    +0.020 A 
ATOM      6  C   LIG    1       -4.154  -0.356   0.210  0.00  0.00    +0.088 A 
ATOM      7  N   LIG    1       -2.817  -0.021   0.098  0.00  0.00    -0.321 N 
ATOM      8  C   LIG    1       -2.220   1.322   0.019  0.00  0.00    +0.207 C 
ATOM      9  C   LIG    1       -2.585   1.927  -1.345  0.00  0.00    +0.255 C 
ATOM     10  N   LIG    1       -3.356   3.012  -1.124  0.00  0.00    -0.254 N 
ATOM     11  H   LIG    1       -3.736   3.563  -1.879  0.00  0.00    +0.158 HD
ATOM     12  C   LIG    1       -3.577   3.320   0.170  0.00  0.00    +0.222 C 
ATOM     13  O   LIG    1       -4.254   4.251   0.601  0.00  0.00    -0.275 OA
ATOM     14  O   LIG    1       -2.250   1.486  -2.446  0.00  0.00    -0.272 OA
ATOM     15  C   LIG    1       -2.835   2.305   1.021  0.00  0.00    +0.144 C 
ATOM     16  O   LIG    1        0.001  -2.268  -0.113  0.00  0.00    -0.268 OA
ATOM     17  C   LIG    1       -0.657   1.274   0.134  0.00  0.00    +0.258 C 
ATOM     18  O   LIG    1       -0.010   2.307   0.343  0.00  0.00    -0.272 OA
ENDROOT
BRANCH   1  19
ATOM     19  C   LIG    1        1.421   0.054  -0.087  0.00  0.00    +0.154 C 
BRANCH  19  24
ATOM     20 BR   LIG    1        3.878   2.818  -5.105  0.00  0.00    -0.050 Br
ATOM     21  C   LIG    1        3.129   1.965  -3.577  0.00  0.00    +0.021 A 
ATOM     22  C   LIG    1        3.466   2.405  -2.297  0.00  0.00    +0.016 A 
ATOM     23  C   LIG    1        2.916   1.781  -1.178  0.00  0.00    +0.009 A 
ATOM     24  C   LIG    1        2.020   0.717  -1.330  0.00  0.00    +0.006 A 
ATOM     25  C   LIG    1        1.691   0.275  -2.619  0.00  0.00    +0.129 A 
ATOM     26  F   LIG    1        0.838  -0.760  -2.796  0.00  0.00    -0.205 F 
ATOM     27  C   LIG    1        2.244   0.900  -3.737  0.00  0.00    +0.054 A 
ENDBRANCH  19  24
ENDBRANCH   1  19
TORSDOF 2
