REMARK  Name = DB05513
REMARK                            x       y       z     vdW  Elec       q    Type
REMARK                         _______ _______ _______ _____ _____    ______ ____
ROOT
ATOM      1  C   LIG    1       -4.107   3.043   0.475  0.00  0.00    -0.029 C 
ATOM      2  C   LIG    1       -3.089   3.575  -0.596  0.00  0.00    +0.007 C 
ATOM      3  C   LIG    1       -2.740   2.514  -1.673  0.00  0.00    +0.005 C 
ATOM      4  C   LIG    1       -2.087   1.268  -1.019  0.00  0.00    -0.046 C 
ATOM      5  C   LIG    1       -0.719   1.561  -0.366  0.00  0.00    -0.072 C 
ATOM      6  N   LIG    1       -0.039   0.184  -0.253  0.00  0.00    +0.380 N 
ATOM      7  H   LIG    1       -0.429  -0.265   0.564  0.00  0.00    -0.082 HD
ATOM      8  C   LIG    1       -0.510  -0.597  -1.498  0.00  0.00    -0.078 C 
ATOM      9  C   LIG    1       -1.706   0.192  -2.051  0.00  0.00    -0.014 C 
ATOM     10  C   LIG    1       -3.139   0.693  -0.019  0.00  0.00    +0.005 C 
ATOM     11  C   LIG    1       -3.504   1.727   1.077  0.00  0.00    +0.007 C 
ENDROOT
BRANCH   1  12
ATOM     12  C   LIG    1       -5.484   2.767  -0.222  0.00  0.00    +0.006 C 
BRANCH  12  14
ATOM     13  C   LIG    1       -7.935   2.020  -0.091  0.00  0.00    +0.004 C 
ATOM     14  C   LIG    1       -6.622   2.229   0.676  0.00  0.00    -0.003 C 
ENDBRANCH  12  14
ENDBRANCH   1  12
BRANCH   1  15
ATOM     15  C   LIG    1       -4.258   4.104   1.617  0.00  0.00    +0.006 C 
BRANCH  15  16
ATOM     16  C   LIG    1       -2.983   4.673   2.288  0.00  0.00    -0.003 C 
ATOM     17  C   LIG    1       -3.303   5.596   3.472  0.00  0.00    +0.004 C 
ENDBRANCH  15  16
ENDBRANCH   1  15
BRANCH   6  18
ATOM     18  C   LIG    1        1.496   0.237  -0.101  0.00  0.00    -0.081 C 
BRANCH  18  19
ATOM     19  C   LIG    1        1.886   0.876   1.246  0.00  0.00    -0.037 C 
BRANCH  19  20
ATOM     20  C   LIG    1        3.399   0.826   1.539  0.00  0.00    -0.081 C 
BRANCH  20  21
ATOM     21  N   LIG    1        4.234   1.505   0.421  0.00  0.00    +0.379 N 
ATOM     22  H   LIG    1        3.849   1.199  -0.461  0.00  0.00    -0.082 HD
BRANCH  21  23
ATOM     23  C   LIG    1        4.109   3.051   0.448  0.00  0.00    -0.082 C 
ATOM     24  C   LIG    1        4.462   3.659  -0.920  0.00  0.00    -0.017 C 
ENDBRANCH  21  23
BRANCH  21  25
ATOM     25  C   LIG    1        5.714   1.043   0.443  0.00  0.00    -0.082 C 
ATOM     26  C   LIG    1        5.860  -0.380  -0.125  0.00  0.00    -0.017 C 
ENDBRANCH  21  25
ENDBRANCH  20  21
ENDBRANCH  19  20
ENDBRANCH  18  19
ENDBRANCH   6  18
TORSDOF 10
