REMARK  Name = DB06248
REMARK                            x       y       z     vdW  Elec       q    Type
REMARK                         _______ _______ _______ _____ _____    ______ ____
ROOT
ATOM      1  C   LIG    1        1.582  -0.049   0.213  0.00  0.00    -0.010 A 
ATOM      2  C   LIG    1        2.259  -0.477  -0.934  0.00  0.00    +0.014 A 
ATOM      3  C   LIG    1        3.650  -0.357  -1.020  0.00  0.00    -0.010 A 
ATOM      4  C   LIG    1        4.363   0.193   0.050  0.00  0.00    +0.007 A 
ATOM      5  C   LIG    1        3.691   0.625   1.193  0.00  0.00    +0.001 A 
ATOM      6  C   LIG    1        2.304   0.507   1.274  0.00  0.00    +0.007 A 
ENDROOT
BRANCH   1   7
ATOM      7  C   LIG    1        0.071  -0.174   0.305  0.00  0.00    +0.264 C 
BRANCH   7   8
ATOM      8  O   LIG    1       -0.524   1.000  -0.243  0.00  0.00    -0.487 OA
BRANCH   8  12
ATOM      9  C   LIG    1       -4.647   1.795   0.121  0.00  0.00    +0.060 A 
ATOM     10  C   LIG    1       -4.120   0.574   0.588  0.00  0.00    +0.019 A 
ATOM     11  C   LIG    1       -2.765   0.277   0.476  0.00  0.00    +0.046 A 
ATOM     12  C   LIG    1       -1.885   1.198  -0.106  0.00  0.00    +0.121 A 
ATOM     13  C   LIG    1       -2.390   2.404  -0.585  0.00  0.00    +0.046 A 
ATOM     14  C   LIG    1       -3.746   2.699  -0.474  0.00  0.00    +0.019 A 
BRANCH   9  18
ATOM     15  C   LIG    1       -8.408   1.118   0.100  0.00  0.00    +0.499 C 
ATOM     16  N   LIG    1       -6.962   1.108   0.018  0.00  0.00    -0.138 N 
ATOM     17  H   LIG    1       -6.545   0.226  -0.240  0.00  0.00    +0.305 HD
ATOM     18  C   LIG    1       -6.088   2.114   0.255  0.00  0.00    +0.270 C 
ATOM     19  O   LIG    1       -9.103   2.094   0.396  0.00  0.00    -0.201 OA
BRANCH  18  20
ATOM     20  N   LIG    1       -6.404   3.370   0.603  0.00  0.00    -0.251 N 
ATOM     21  H   LIG    1       -5.673   4.048   0.764  0.00  0.00    +0.288 HD
ATOM     22  H   LIG    1       -7.376   3.627   0.705  0.00  0.00    +0.288 HD
ENDBRANCH  18  20
BRANCH  15  23
ATOM     23  O   LIG    1       -8.833  -0.123  -0.198  0.00  0.00    -0.432 OA
BRANCH  23  25
ATOM     24  C   LIG    1      -10.418  -1.904  -0.563  0.00  0.00    +0.048 C 
ATOM     25  C   LIG    1      -10.220  -0.434  -0.178  0.00  0.00    +0.233 C 
ENDBRANCH  23  25
ENDBRANCH  15  23
ENDBRANCH   9  18
ENDBRANCH   8  12
ENDBRANCH   7   8
ENDBRANCH   1   7
BRANCH   3  26
ATOM     26  C   LIG    1        4.393  -0.823  -2.260  0.00  0.00    +0.264 C 
BRANCH  26  27
ATOM     27  O   LIG    1        5.087  -2.030  -1.957  0.00  0.00    -0.487 OA
BRANCH  27  28
ATOM     28  C   LIG    1        5.926  -2.586  -2.903  0.00  0.00    +0.121 A 
ATOM     29  C   LIG    1        6.154  -2.047  -4.177  0.00  0.00    +0.046 A 
ATOM     30  C   LIG    1        7.030  -2.673  -5.060  0.00  0.00    +0.008 A 
ATOM     31  C   LIG    1        7.696  -3.853  -4.693  0.00  0.00    -0.037 A 
ATOM     32  C   LIG    1        7.452  -4.389  -3.421  0.00  0.00    +0.008 A 
ATOM     33  C   LIG    1        6.580  -3.761  -2.538  0.00  0.00    +0.046 A 
BRANCH  31  34
ATOM     34  C   LIG    1        8.687  -4.580  -5.638  0.00  0.00    +0.015 C 
ATOM     35  C   LIG    1        8.963  -3.800  -6.956  0.00  0.00    +0.021 C 
ATOM     36  C   LIG    1        8.020  -5.918  -6.067  0.00  0.00    +0.021 C 
BRANCH  34  37
ATOM     37  C   LIG    1       10.050  -4.777  -4.923  0.00  0.00    -0.037 A 
ATOM     38  C   LIG    1       10.721  -3.652  -4.419  0.00  0.00    +0.008 A 
ATOM     39  C   LIG    1       11.942  -3.783  -3.763  0.00  0.00    +0.046 A 
ATOM     40  C   LIG    1       12.507  -5.045  -3.603  0.00  0.00    +0.117 A 
ATOM     41  C   LIG    1       11.860  -6.174  -4.099  0.00  0.00    +0.046 A 
ATOM     42  C   LIG    1       10.639  -6.042  -4.755  0.00  0.00    +0.008 A 
BRANCH  40  43
ATOM     43  O   LIG    1       13.706  -5.177  -2.955  0.00  0.00    -0.507 OA
ATOM     44  H   LIG    1       14.062  -4.339  -2.652  0.00  0.00    +0.292 HD
ENDBRANCH  40  43
ENDBRANCH  34  37
ENDBRANCH  31  34
ENDBRANCH  27  28
ENDBRANCH  26  27
ENDBRANCH   3  26
TORSDOF 13
