REMARK  Name = DB06292
REMARK                            x       y       z     vdW  Elec       q    Type
REMARK                         _______ _______ _______ _____ _____    ______ ____
ROOT
ATOM      1  C   LIG    1        1.618   0.034   0.295  0.00  0.00    -0.016 A 
ATOM      2  C   LIG    1        2.378  -0.953  -0.340  0.00  0.00    +0.011 A 
ATOM      3  C   LIG    1        3.768  -1.009  -0.182  0.00  0.00    -0.024 A 
ATOM      4  C   LIG    1        4.402  -0.063   0.641  0.00  0.00    +0.044 A 
ATOM      5 CL   LIG    1        6.112  -0.084   0.903  0.00  0.00    -0.083 Cl
ATOM      6  C   LIG    1        3.646   0.923   1.277  0.00  0.00    +0.020 A 
ATOM      7  C   LIG    1        2.264   0.973   1.107  0.00  0.00    +0.008 A 
ENDROOT
BRANCH   1  10
ATOM      8  C   LIG    1       -1.758   1.583  -0.177  0.00  0.00    +0.175 C 
ATOM      9  O   LIG    1       -0.380   1.417   0.164  0.00  0.00    -0.361 OA
ATOM     10  C   LIG    1        0.100   0.072   0.100  0.00  0.00    +0.180 C 
ATOM     11  C   LIG    1       -0.656  -0.781   1.156  0.00  0.00    +0.179 C 
ATOM     12  C   LIG    1       -2.191  -0.634   1.008  0.00  0.00    +0.177 C 
ATOM     13  C   LIG    1       -2.614   0.852   0.890  0.00  0.00    +0.176 C 
BRANCH  11  14
ATOM     14  O   LIG    1       -0.269  -2.145   1.112  0.00  0.00    -0.386 OA
ATOM     15  H   LIG    1       -0.278  -2.437   0.198  0.00  0.00    +0.210 HD
ENDBRANCH  11  14
BRANCH  12  16
ATOM     16  O   LIG    1       -2.882  -1.287   2.062  0.00  0.00    -0.386 OA
ATOM     17  H   LIG    1       -2.622  -0.885   2.894  0.00  0.00    +0.210 HD
ENDBRANCH  12  16
BRANCH  13  18
ATOM     18  O   LIG    1       -3.999   0.959   0.605  0.00  0.00    -0.386 OA
ATOM     19  H   LIG    1       -4.490   0.551   1.322  0.00  0.00    +0.210 HD
ENDBRANCH  13  18
BRANCH   8  20
ATOM     20  C   LIG    1       -2.054   3.098  -0.222  0.00  0.00    +0.190 C 
BRANCH  20  21
ATOM     21  O   LIG    1       -1.342   3.720  -1.273  0.00  0.00    -0.392 OA
ATOM     22  H   LIG    1       -1.550   4.657  -1.271  0.00  0.00    +0.210 HD
ENDBRANCH  20  21
ENDBRANCH   8  20
ENDBRANCH   1  10
BRANCH   3  23
ATOM     23  C   LIG    1        4.548  -2.111  -0.896  0.00  0.00    +0.071 C 
BRANCH  23  24
ATOM     24  C   LIG    1        5.325  -1.631  -2.116  0.00  0.00    -0.043 A 
ATOM     25  C   LIG    1        4.637  -1.177  -3.243  0.00  0.00    +0.007 A 
ATOM     26  C   LIG    1        5.343  -0.748  -4.364  0.00  0.00    +0.046 A 
ATOM     27  C   LIG    1        6.738  -0.773  -4.376  0.00  0.00    +0.121 A 
ATOM     28  C   LIG    1        7.425  -1.242  -3.245  0.00  0.00    +0.046 A 
ATOM     29  C   LIG    1        6.721  -1.671  -2.124  0.00  0.00    +0.007 A 
BRANCH  27  30
ATOM     30  O   LIG    1        7.352  -0.325  -5.531  0.00  0.00    -0.492 OA
BRANCH  30  31
ATOM     31  C   LIG    1        8.775  -0.308  -5.604  0.00  0.00    +0.225 C 
ATOM     32  C   LIG    1        9.191   0.243  -6.971  0.00  0.00    +0.048 C 
ENDBRANCH  30  31
ENDBRANCH  27  30
ENDBRANCH  23  24
ENDBRANCH   3  23
TORSDOF 10
