REMARK  Name = DB06408
REMARK                            x       y       z     vdW  Elec       q    Type
REMARK                         _______ _______ _______ _____ _____    ______ ____
ROOT
ATOM      1  C   LIG    1       -0.801  -0.951   0.644  0.00  0.00    +0.223 A 
ATOM      2  N   LIG    1       -0.009   0.013   0.084  0.00  0.00    -0.220 N 
ATOM      3  N   LIG    1       -0.793   1.044  -0.251  0.00  0.00    -0.140 NA
ATOM      4  C   LIG    1       -2.004   0.651   0.125  0.00  0.00    +0.261 A 
ATOM      5  N   LIG    1       -2.048  -0.565   0.671  0.00  0.00    -0.209 NA
ENDROOT
BRANCH   2   6
ATOM      6  C1* LIG    1        1.427   0.020  -0.133  0.00  0.00    +0.270 C 
ATOM      7  O4* LIG    1        2.005   1.083   0.568  0.00  0.00    -0.344 OA
ATOM      8  C4* LIG    1        2.448   2.131  -0.292  0.00  0.00    +0.177 C 
ATOM      9  C3* LIG    1        2.011   1.687  -1.696  0.00  0.00    +0.178 C 
ATOM     10  C2* LIG    1        1.877   0.165  -1.590  0.00  0.00    +0.196 C 
BRANCH   9  11
ATOM     11  O3* LIG    1        2.889   2.124  -2.718  0.00  0.00    -0.386 OA
ATOM     12  H3* LIG    1        2.628   1.714  -3.545  0.00  0.00    +0.210 HD
ENDBRANCH   9  11
BRANCH  10  13
ATOM     13  O2* LIG    1        3.087  -0.555  -1.765  0.00  0.00    -0.385 OA
ATOM     14  H2* LIG    1        3.342  -0.512  -2.690  0.00  0.00    +0.210 HD
ENDBRANCH  10  13
BRANCH   8  15
ATOM     15  C5* LIG    1        1.854   3.478   0.164  0.00  0.00    +0.190 C 
BRANCH  15  16
ATOM     16  O5* LIG    1        2.336   3.834   1.444  0.00  0.00    -0.392 OA
ATOM     17  H5* LIG    1        1.981   4.694   1.679  0.00  0.00    +0.210 HD
ENDBRANCH  15  16
ENDBRANCH   8  15
ENDBRANCH   2   6
BRANCH   4  18
ATOM     18  C   LIG    1       -3.137   1.448  -0.036  0.00  0.00    +0.306 C 
ATOM     19  N   LIG    1       -3.114   2.711   0.387  0.00  0.00    -0.286 N 
ATOM     20  H   LIG    1       -2.277   3.078   0.816  0.00  0.00    +0.301 HD
ATOM     21  H   LIG    1       -3.931   3.293   0.282  0.00  0.00    +0.301 HD
BRANCH  18  22
ATOM     22  N   LIG    1       -4.224   0.932  -0.607  0.00  0.00    -0.247 N 
ATOM     23  H   LIG    1       -4.221  -0.033  -0.904  0.00  0.00    +0.288 HD
ATOM     24  H   LIG    1       -5.050   1.500  -0.725  0.00  0.00    +0.288 HD
ENDBRANCH  18  22
ENDBRANCH   4  18
TORSDOF 7
