REMARK  Name = DB06597
REMARK                            x       y       z     vdW  Elec       q    Type
REMARK                         _______ _______ _______ _____ _____    ______ ____
ROOT
ATOM      1  C   LIG    1       -0.727   1.224   0.032  0.00  0.00    +0.049 A 
ATOM      2  C   LIG    1       -2.119   1.204   0.068  0.00  0.00    +0.008 A 
ATOM      3  C   LIG    1       -2.829  -0.006   0.038  0.00  0.00    -0.041 A 
ATOM      4  C   LIG    1       -2.103  -1.215  -0.009  0.00  0.00    -0.040 A 
ATOM      5  C   LIG    1       -2.870  -2.533   0.018  0.00  0.00    +0.036 C 
ATOM      6  C   LIG    1       -4.087  -2.522  -0.939  0.00  0.00    +0.009 C 
ATOM      7  C   LIG    1       -4.806  -1.149  -1.043  0.00  0.00    +0.000 C 
ATOM      8  C   LIG    1       -6.346  -1.223  -1.185  0.00  0.00    +0.001 C 
ATOM      9  C   LIG    1       -6.994  -2.199  -2.174  0.00  0.00    +0.007 C 
ATOM     10  C   LIG    1       -8.417  -1.636  -2.371  0.00  0.00    +0.032 C 
ATOM     11  C   LIG    1       -8.450  -0.262  -1.661  0.00  0.00    +0.121 C 
ATOM     12  C   LIG    1       -6.968   0.157  -1.503  0.00  0.00    -0.003 C 
ATOM     13  C   LIG    1       -6.473   0.813  -2.831  0.00  0.00    +0.014 C 
ATOM     14  C   LIG    1       -6.662   1.068  -0.284  0.00  0.00    +0.010 C 
ATOM     15  C   LIG    1       -5.135   1.263  -0.086  0.00  0.00    +0.009 C 
ATOM     16  C   LIG    1       -0.705  -1.181  -0.054  0.00  0.00    +0.052 A 
ATOM     17  C   LIG    1       -4.363  -0.092   0.022  0.00  0.00    +0.023 C 
ATOM     18  C   LIG    1       -0.016   0.030  -0.039  0.00  0.00    +0.158 A 
ENDROOT
BRANCH  11  19
ATOM     19  O   LIG    1       -9.357   0.677  -2.207  0.00  0.00    -0.391 OA
ATOM     20  H   LIG    1       -9.510   1.366  -1.557  0.00  0.00    +0.210 HD
ENDBRANCH  11  19
BRANCH  18  21
ATOM     21  O   LIG    1        1.351   0.044  -0.076  0.00  0.00    -0.334 OA
BRANCH  21  22
ATOM     22  S   LIG    1        2.068   0.116  -1.580  0.00  0.00    +0.189 S 
ATOM     23  O   LIG    1        1.754   1.420  -2.173  0.00  0.00    -0.119 OA
ATOM     24  O   LIG    1        1.785  -1.142  -2.281  0.00  0.00    -0.119 OA
BRANCH  22  25
ATOM     25  N   LIG    1        3.760   0.118  -1.128  0.00  0.00    -0.174 NA
ATOM     26  H   LIG    1        4.291  -0.747  -1.257  0.00  0.00    +0.147 HD
ATOM     27  H   LIG    1        4.269   1.004  -1.179  0.00  0.00    +0.147 HD
ENDBRANCH  22  25
ENDBRANCH  21  22
ENDBRANCH  18  21
TORSDOF 4
