REMARK  Name = DB06826
REMARK                            x       y       z     vdW  Elec       q    Type
REMARK                         _______ _______ _______ _____ _____    ______ ____
ROOT
ATOM      1  C   LIG    1        2.073   1.080   1.169  0.00  0.00    +0.024 C 
ATOM      2  C   LIG    1        3.540   0.738   0.826  0.00  0.00    +0.027 C 
ATOM      3  C   LIG    1        4.333   1.178   2.075  0.00  0.00    +0.121 C 
ATOM      4  C   LIG    1        3.405   0.755   3.220  0.00  0.00    +0.063 C 
ATOM      5  C   LIG    1        1.960   0.923   2.710  0.00  0.00    +0.120 C 
ENDROOT
BRANCH   3   6
ATOM      6  O   LIG    1        4.526   2.582   2.125  0.00  0.00    -0.391 OA
ATOM      7  H   LIG    1        3.668   3.008   2.064  0.00  0.00    +0.210 HD
ENDBRANCH   3   6
BRANCH   5   8
ATOM      8  O   LIG    1        1.306   2.051   3.262  0.00  0.00    -0.391 OA
ATOM      9  H   LIG    1        0.386   2.035   2.989  0.00  0.00    +0.210 HD
ENDBRANCH   5   8
BRANCH   1  10
ATOM     10  C   LIG    1        1.025   0.261   0.370  0.00  0.00    +0.014 C 
BRANCH  10  11
ATOM     11  C   LIG    1       -0.453   0.643   0.614  0.00  0.00    +0.074 C 
BRANCH  11  12
ATOM     12  C   LIG    1       -0.800   2.099   0.278  0.00  0.00    +0.133 C 
ATOM     13  O   LIG    1       -1.214   2.865   1.147  0.00  0.00    -0.297 OA
BRANCH  12  14
ATOM     14  C   LIG    1       -0.617   2.574  -1.169  0.00  0.00    +0.074 C 
BRANCH  14  15
ATOM     15  C   LIG    1       -1.643   1.986  -2.162  0.00  0.00    +0.007 C 
BRANCH  15  16
ATOM     16  C   LIG    1       -3.098   2.431  -1.913  0.00  0.00    +0.000 C 
BRANCH  16  17
ATOM     17  C   LIG    1       -4.078   1.900  -2.974  0.00  0.00    +0.000 C 
BRANCH  17  18
ATOM     18  C   LIG    1       -5.524   2.377  -2.745  0.00  0.00    -0.000 C 
BRANCH  18  20
ATOM     19  C   LIG    1       -7.941   2.350  -3.591  0.00  0.00    +0.004 C 
ATOM     20  C   LIG    1       -6.503   1.862  -3.814  0.00  0.00    -0.003 C 
ENDBRANCH  18  20
ENDBRANCH  17  18
ENDBRANCH  16  17
ENDBRANCH  15  16
ENDBRANCH  14  15
ENDBRANCH  12  14
ENDBRANCH  11  12
ENDBRANCH  10  11
ENDBRANCH   1  10
BRANCH   2  21
ATOM     21  C   LIG    1        4.029   1.321  -0.523  0.00  0.00    +0.033 C 
BRANCH  21  22
ATOM     22  C   LIG    1        5.458   0.939  -0.881  0.00  0.00    -0.031 C 
ATOM     23  C   LIG    1        6.526   1.755  -0.974  0.00  0.00    -0.031 C 
BRANCH  23  24
ATOM     24  C   LIG    1        6.570   3.253  -0.718  0.00  0.00    +0.027 C 
BRANCH  24  25
ATOM     25  C   LIG    1        6.765   4.079  -2.005  0.00  0.00    +0.015 C 
BRANCH  25  26
ATOM     26  C   LIG    1        6.727   5.611  -1.800  0.00  0.00    +0.121 C 
BRANCH  26  27
ATOM     27  C   LIG    1        7.830   6.152  -0.884  0.00  0.00    +0.305 C 
ATOM     28  O   LIG    1        7.607   6.649   0.218  0.00  0.00    -0.251 OA
BRANCH  27  29
ATOM     29  O   LIG    1        9.067   6.016  -1.443  0.00  0.00    -0.481 OA
ATOM     30  H   LIG    1        9.762   6.356  -0.875  0.00  0.00    +0.295 HD
ENDBRANCH  27  29
ENDBRANCH  26  27
ENDBRANCH  25  26
ENDBRANCH  24  25
ENDBRANCH  23  24
ENDBRANCH  21  22
ENDBRANCH   2  21
TORSDOF 18
