REMARK  Name = DB06815
REMARK                            x       y       z     vdW  Elec       q    Type
REMARK                         _______ _______ _______ _____ _____    ______ ____
ROOT
ATOM      1  N   LIG    1       -0.581   1.257   0.000  0.00  0.00    -0.167 NA
ATOM      2  C   LIG    1       -1.925   1.403   0.000  0.00  0.00    +0.109 C 
ATOM      3  C   LIG    1       -2.750   0.277   0.000  0.00  0.00    +0.019 C 
ATOM      4  C   LIG    1       -2.169  -0.992   0.000  0.00  0.00    +0.004 C 
ATOM      5  C   LIG    1       -0.779  -1.118   0.000  0.00  0.00    +0.034 C 
ATOM      6  C   LIG    1        0.013   0.033   0.000  0.00  0.00    +0.123 C 
ENDROOT
BRANCH   1   7
ATOM      7  O   LIG    1        0.119   2.307   0.000  0.00  0.00    -0.311 OA
ATOM      8  H   LIG    1        1.060   2.069   0.000  0.00  0.00    +0.237 HD
ENDBRANCH   1   7
BRANCH   6   9
ATOM      9  S   LIG    1        1.782  -0.097   0.000  0.00  0.00    -0.151 S 
ATOM     10  H   LIG    1        1.826  -1.452   0.000  0.00  0.00    +0.104 HD
ENDBRANCH   6   9
TORSDOF 2
