REMARK  Name = DB06235
REMARK                            x       y       z     vdW  Elec       q    Type
REMARK                         _______ _______ _______ _____ _____    ______ ____
ROOT
ATOM      1  C   LIG    1        0.847   0.413  -7.096  0.00  0.00    +0.044 C 
ATOM      2  C   LIG    1        1.725   0.121  -5.886  0.00  0.00    -0.044 A 
ATOM      3  C   LIG    1        1.173  -0.091  -4.609  0.00  0.00    -0.005 A 
ATOM      4  C   LIG    1        2.034  -0.345  -3.529  0.00  0.00    +0.142 A 
ATOM      5  O   LIG    1        1.472  -0.547  -2.281  0.00  0.00    -0.454 OA
ATOM      6  C   LIG    1        2.221  -0.287  -1.148  0.00  0.00    +0.143 A 
ATOM      7  C   LIG    1        3.626  -0.295  -1.193  0.00  0.00    +0.065 A 
ATOM      8  C   LIG    1        4.304  -0.529  -2.500  0.00  0.00    +0.200 A 
ATOM      9  O   LIG    1        5.524  -0.683  -2.593  0.00  0.00    -0.286 OA
ATOM     10  C   LIG    1        4.342  -0.027  -0.019  0.00  0.00    +0.015 A 
ATOM     11  C   LIG    1        3.668   0.259   1.168  0.00  0.00    +0.001 A 
ATOM     12  C   LIG    1        2.274   0.291   1.194  0.00  0.00    +0.008 A 
ATOM     13  C   LIG    1        1.536   0.024   0.036  0.00  0.00    +0.006 A 
ATOM     14  C   LIG    1        3.430  -0.357  -3.697  0.00  0.00    +0.065 A 
ATOM     15  C   LIG    1        3.958  -0.148  -4.975  0.00  0.00    +0.015 A 
ATOM     16  C   LIG    1       -0.341  -0.068  -4.397  0.00  0.00    +0.048 C 
ATOM     17  C   LIG    1        3.112   0.084  -6.057  0.00  0.00    +0.004 A 
ENDROOT
BRANCH  13  18
ATOM     18  C   LIG    1        0.003   0.065   0.083  0.00  0.00    +0.159 C 
BRANCH  18  19
ATOM     19  C   LIG    1       -0.596   1.333  -0.573  0.00  0.00    +0.309 C 
ATOM     20  O   LIG    1       -1.665   1.186  -1.208  0.00  0.00    -0.251 OA
BRANCH  19  21
ATOM     21  O   LIG    1       -0.020   2.434  -0.414  0.00  0.00    -0.480 OA
ATOM     22  H   LIG    1        0.780   2.479   0.072  0.00  0.00    +0.295 HD
ENDBRANCH  19  21
ENDBRANCH  18  19
ENDBRANCH  13  18
TORSDOF 3
