REMARK  Name = DB06358
REMARK                            x       y       z     vdW  Elec       q    Type
REMARK                         _______ _______ _______ _____ _____    ______ ____
ROOT
ATOM      1  C   LIG    1       -2.261   1.144   0.014  0.00  0.00    +0.165 A 
ATOM      2  C   LIG    1       -2.905  -0.084   0.196  0.00  0.00    +0.204 A 
ATOM      3  C   LIG    1       -2.150  -1.248   0.365  0.00  0.00    +0.174 A 
ATOM      4  O   LIG    1       -2.840  -2.426   0.614  0.00  0.00    -0.480 OA
ATOM      5  C   LIG    1       -2.227  -3.671   0.209  0.00  0.00    +0.200 C 
ATOM      6  C   LIG    1       -0.711  -3.656   0.394  0.00  0.00    +0.018 C 
ATOM      7  C   LIG    1       -0.047  -2.495   0.474  0.00  0.00    +0.011 C 
ATOM      8  C   LIG    1       -0.748  -1.208   0.355  0.00  0.00    +0.024 A 
ATOM      9  C   LIG    1       -0.086   0.017   0.158  0.00  0.00    -0.032 A 
ATOM     10  C   LIG    1       -0.856   1.180  -0.003  0.00  0.00    +0.054 A 
ENDROOT
BRANCH   5  11
ATOM     11  C   LIG    1       -2.598  -4.008  -1.247  0.00  0.00    +0.034 C 
ATOM     12  C   LIG    1       -2.755  -5.445  -1.678  0.00  0.00    +0.008 C 
ATOM     13  C   LIG    1       -3.971  -4.545  -1.560  0.00  0.00    +0.008 C 
ENDBRANCH   5  11
BRANCH   1  15
ATOM     14  C   LIG    1       -2.465   3.535  -0.340  0.00  0.00    +0.277 C 
ATOM     15  O   LIG    1       -3.064   2.259  -0.143  0.00  0.00    -0.491 OA
ENDBRANCH   1  15
BRANCH   2  16
ATOM     16  O   LIG    1       -4.278  -0.129   0.233  0.00  0.00    -0.488 OA
ATOM     17  C   LIG    1       -4.883  -0.582  -0.971  0.00  0.00    +0.277 C 
ENDBRANCH   2  16
BRANCH   9  18
ATOM     18  C   LIG    1        1.449   0.075   0.132  0.00  0.00    +0.048 C 
BRANCH  18  19
ATOM     19  C   LIG    1        2.098   1.458   0.029  0.00  0.00    +0.036 C 
ATOM     20  C   LIG    1        2.327   2.109  -1.202  0.00  0.00    +0.111 C 
ATOM     21  N   LIG    1        2.918   3.333  -1.273  0.00  0.00    -0.262 NA
ATOM     22  H   LIG    1        3.755   3.236  -1.848  0.00  0.00    +0.127 HD
ATOM     23  C   LIG    1        3.291   3.909  -0.103  0.00  0.00    +0.171 C 
ATOM     24  N   LIG    1        3.103   3.326   1.094  0.00  0.00    -0.278 NA
ATOM     25  H   LIG    1        3.405   3.803   1.931  0.00  0.00    +0.125 HD
ATOM     26  C   LIG    1        2.521   2.114   1.195  0.00  0.00    +0.085 C 
BRANCH  20  27
ATOM     27  N   LIG    1        1.945   1.538  -2.416  0.00  0.00    -0.310 NA
ATOM     28  H   LIG    1        2.122   2.040  -3.274  0.00  0.00    +0.120 HD
ATOM     29  H   LIG    1        1.494   0.635  -2.423  0.00  0.00    +0.120 HD
ENDBRANCH  20  27
BRANCH  23  30
ATOM     30  N   LIG    1        3.896   5.176  -0.204  0.00  0.00    -0.297 NA
ATOM     31  H   LIG    1        4.199   5.665   0.625  0.00  0.00    +0.121 HD
ATOM     32  H   LIG    1        4.027   5.597  -1.113  0.00  0.00    +0.121 HD
ENDBRANCH  23  30
ENDBRANCH  18  19
ENDBRANCH   9  18
TORSDOF 7
