REMARK  Name = DB06725
REMARK                            x       y       z     vdW  Elec       q    Type
REMARK                         _______ _______ _______ _____ _____    ______ ____
ROOT
ATOM      1 CL   LIG    1       -6.358  -1.942  -0.753  0.00  0.00    -0.076 Cl
ATOM      2  C   LIG    1       -4.749  -1.393  -0.509  0.00  0.00    +0.081 A 
ATOM      3  C   LIG    1       -4.333  -0.252   0.155  0.00  0.00    +0.057 A 
ATOM      4  C   LIG    1       -2.942  -0.121   0.163  0.00  0.00    +0.128 A 
ATOM      5  C   LIG    1       -2.262  -1.145  -0.494  0.00  0.00    +0.084 A 
ATOM      6  C   LIG    1       -0.802  -1.194  -0.633  0.00  0.00    +0.160 C 
ATOM      7  C   LIG    1       -0.003  -0.119  -0.351  0.00  0.00    +0.155 C 
ATOM      8  N   LIG    1       -0.495   1.111   0.206  0.00  0.00    -0.197 N 
ATOM      9  C   LIG    1        0.365   2.298   0.497  0.00  0.00    +0.158 C 
ATOM     10  S   LIG    1       -2.082   1.224   0.986  0.00  0.00    +0.076 S 
ATOM     11  O   LIG    1       -2.724   2.495   0.634  0.00  0.00    -0.150 OA
ATOM     12  O   LIG    1       -1.939   0.891   2.408  0.00  0.00    -0.150 OA
ATOM     13  S   LIG    1       -3.408  -2.306  -1.121  0.00  0.00    -0.072 S 
ENDROOT
BRANCH   7  14
ATOM     14  C   LIG    1        1.429  -0.155  -0.644  0.00  0.00    +0.268 C 
ATOM     15  N   LIG    1        2.098  -1.108   0.047  0.00  0.00    -0.265 N 
ATOM     16  H   LIG    1        1.539  -1.730   0.612  0.00  0.00    +0.157 HD
ATOM     17  O   LIG    1        1.955   0.646  -1.420  0.00  0.00    -0.268 OA
BRANCH  15  18
ATOM     18  C   LIG    1        3.471  -1.411   0.023  0.00  0.00    +0.125 A 
ATOM     19  C   LIG    1        3.860  -2.582   0.684  0.00  0.00    +0.044 A 
ATOM     20  C   LIG    1        5.211  -2.934   0.703  0.00  0.00    +0.005 A 
ATOM     21  C   LIG    1        6.145  -2.114   0.069  0.00  0.00    +0.020 A 
ATOM     22  C   LIG    1        5.690  -0.959  -0.567  0.00  0.00    +0.113 A 
ATOM     23  N   LIG    1        4.381  -0.601  -0.594  0.00  0.00    -0.240 NA
ENDBRANCH  15  18
ENDBRANCH   7  14
BRANCH   6  24
ATOM     24  O   LIG    1       -0.300  -2.350  -1.163  0.00  0.00    -0.504 OA
ATOM     25  H   LIG    1       -1.013  -2.980  -1.291  0.00  0.00    +0.292 HD
ENDBRANCH   6  24
TORSDOF 3
