REMARK  Name = DB06263
REMARK                            x       y       z     vdW  Elec       q    Type
REMARK                         _______ _______ _______ _____ _____    ______ ____
ROOT
ATOM      1  C   LIG    1       -0.530   1.537  -0.038  0.00  0.00    +0.066 C 
ATOM      2  C   LIG    1       -0.026   0.072   0.008  0.00  0.00    +0.157 C 
ATOM      3  C   LIG    1       -0.583  -0.830  -1.122  0.00  0.00    +0.030 A 
ATOM      4  C   LIG    1       -0.131  -2.155  -1.265  0.00  0.00    +0.134 A 
ATOM      5  C   LIG    1       -0.639  -3.027  -2.258  0.00  0.00    +0.078 A 
ATOM      6  C   LIG    1       -0.111  -4.447  -2.406  0.00  0.00    +0.198 C 
ATOM      7  O   LIG    1        0.626  -4.981  -1.573  0.00  0.00    -0.286 OA
ATOM      8  C   LIG    1       -0.397  -5.138  -3.704  0.00  0.00    +0.033 A 
ATOM      9  C   LIG    1        0.343  -6.274  -4.073  0.00  0.00    +0.012 A 
ATOM     10  C   LIG    1        0.100  -6.928  -5.277  0.00  0.00    +0.001 A 
ATOM     11  C   LIG    1       -0.887  -6.457  -6.135  0.00  0.00    +0.001 A 
ATOM     12  C   LIG    1       -1.630  -5.332  -5.786  0.00  0.00    +0.012 A 
ATOM     13  C   LIG    1       -1.399  -4.660  -4.574  0.00  0.00    +0.033 A 
ATOM     14  C   LIG    1       -2.206  -3.447  -4.226  0.00  0.00    +0.198 C 
ATOM     15  O   LIG    1       -3.201  -3.155  -4.894  0.00  0.00    -0.286 OA
ATOM     16  C   LIG    1       -1.647  -2.547  -3.134  0.00  0.00    +0.078 A 
ATOM     17  C   LIG    1       -2.105  -1.219  -2.978  0.00  0.00    +0.132 A 
ATOM     18  C   LIG    1       -1.602  -0.366  -1.981  0.00  0.00    +0.006 A 
ATOM     19  C   LIG    1       -2.152   1.069  -1.841  0.00  0.00    +0.069 C 
ATOM     20  C   LIG    1       -2.017   1.683  -0.421  0.00  0.00    +0.082 C 
ENDROOT
BRANCH  20  21
ATOM     21  C   LIG    1       -2.934   0.976   0.624  0.00  0.00    +0.150 C 
ATOM     22  C   LIG    1       -2.915   1.483   2.068  0.00  0.00    +0.088 C 
ATOM     23  O   LIG    1       -3.652   0.019   0.329  0.00  0.00    -0.296 OA
ENDBRANCH  20  21
BRANCH  20  24
ATOM     24  N   LIG    1       -2.397   3.089  -0.452  0.00  0.00    -0.318 NA
ATOM     25  H   LIG    1       -2.291   3.499   0.465  0.00  0.00    +0.119 HD
ATOM     26  H   LIG    1       -3.369   3.180  -0.711  0.00  0.00    +0.119 HD
ENDBRANCH  20  24
BRANCH   4  27
ATOM     27  O   LIG    1        0.831  -2.588  -0.379  0.00  0.00    -0.506 OA
ATOM     28  H   LIG    1        1.115  -1.899   0.227  0.00  0.00    +0.292 HD
ENDBRANCH   4  27
BRANCH  17  29
ATOM     29  O   LIG    1       -3.059  -0.695  -3.822  0.00  0.00    -0.506 OA
ATOM     30  H   LIG    1       -3.280   0.216  -3.616  0.00  0.00    +0.292 HD
ENDBRANCH  17  29
BRANCH   2  31
ATOM     31  O   LIG    1        1.405   0.018   0.044  0.00  0.00    -0.343 OA
BRANCH  31  32
ATOM     32  C   LIG    1        2.047   0.454   1.206  0.00  0.00    +0.253 C 
ATOM     33  O   LIG    1        2.149   1.859   1.225  0.00  0.00    -0.349 OA
ATOM     34  C   LIG    1        2.796   2.353   2.404  0.00  0.00    +0.196 C 
ATOM     35  C   LIG    1        4.244   1.826   2.500  0.00  0.00    +0.169 C 
ATOM     36  C   LIG    1        4.261   0.286   2.419  0.00  0.00    +0.150 C 
ATOM     37  C   LIG    1        3.455  -0.161   1.182  0.00  0.00    +0.095 C 
BRANCH  35  38
ATOM     38  O   LIG    1        4.905   2.322   3.649  0.00  0.00    -0.387 OA
ATOM     39  H   LIG    1        4.350   2.163   4.416  0.00  0.00    +0.210 HD
ENDBRANCH  35  38
BRANCH  36  40
ATOM     40  O   LIG    1        3.782  -0.341   3.597  0.00  0.00    -0.389 OA
ATOM     41  H   LIG    1        2.868  -0.080   3.734  0.00  0.00    +0.210 HD
ENDBRANCH  36  40
ENDBRANCH  31  32
ENDBRANCH   2  31
TORSDOF 8
