REMARK  Name = DB06011
REMARK                            x       y       z     vdW  Elec       q    Type
REMARK                         _______ _______ _______ _____ _____    ______ ____
ROOT
ATOM      1  C   LIG    1        1.703   0.517   0.163  0.00  0.00    +0.080 C 
ATOM      2  C   LIG    1        2.164  -0.485   1.305  0.00  0.00    -0.026 A 
ATOM      3  C   LIG    1        2.126  -0.148   2.684  0.00  0.00    -0.042 A 
ATOM      4  C   LIG    1        2.398  -1.111   3.668  0.00  0.00    +0.017 A 
ATOM      5  C   LIG    1        2.739  -2.426   3.347  0.00  0.00    +0.037 A 
ATOM      6  C   LIG    1        2.769  -2.778   2.003  0.00  0.00    +0.013 A 
ATOM      7  C   LIG    1        1.932   1.279   3.149  0.00  0.00    +0.040 C 
ATOM      8  C   LIG    1        3.045   2.170   2.644  0.00  0.00    +0.040 C 
ATOM      9  C   LIG    1        2.934   2.684   1.221  0.00  0.00    -0.042 A 
ATOM     10  C   LIG    1        3.483   3.961   1.016  0.00  0.00    +0.017 A 
ATOM     11  C   LIG    1        3.500   4.584  -0.231  0.00  0.00    +0.037 A 
ATOM     12  C   LIG    1        2.924   3.908  -1.297  0.00  0.00    +0.013 A 
ATOM     13  C   LIG    1        2.377   2.647  -1.110  0.00  0.00    +0.006 A 
ATOM     14  C   LIG    1        2.492  -1.834   1.022  0.00  0.00    +0.006 A 
ATOM     15  C   LIG    1        2.367   1.963   0.128  0.00  0.00    -0.026 A 
ENDROOT
BRANCH   1  16
ATOM     16  C   LIG    1        2.005  -0.179  -1.221  0.00  0.00    +0.163 A 
ATOM     17  N   LIG    1        1.129  -0.876  -1.920  0.00  0.00    -0.112 NA
ATOM     18  N   LIG    1        1.809  -1.369  -3.007  0.00  0.00    -0.023 NA
ATOM     19  N   LIG    1        3.113  -0.974  -2.891  0.00  0.00    -0.047 NA
ATOM     20  N   LIG    1        3.222  -0.241  -1.735  0.00  0.00    -0.242 N 
ATOM     21  H   LIG    1        4.041   0.159  -1.364  0.00  0.00    +0.192 HD
ENDBRANCH   1  16
BRANCH   5  22
ATOM     22  C   LIG    1        3.015  -3.468   4.411  0.00  0.00    +0.246 C 
ATOM     23  O   LIG    1        2.556  -4.602   4.251  0.00  0.00    -0.270 OA
ATOM     24  N   LIG    1        3.728  -3.126   5.519  0.00  0.00    -0.304 N 
ATOM     25  C   LIG    1        4.627  -1.972   5.622  0.00  0.00    +0.132 C 
ATOM     26  C   LIG    1        3.720  -3.955   6.726  0.00  0.00    +0.132 C 
ENDBRANCH   5  22
BRANCH  11  27
ATOM     27  C   LIG    1        4.055   5.980  -0.427  0.00  0.00    +0.246 C 
ATOM     28  O   LIG    1        3.431   6.759  -1.153  0.00  0.00    -0.270 OA
ATOM     29  N   LIG    1        5.193   6.347   0.221  0.00  0.00    -0.304 N 
ATOM     30  C   LIG    1        5.572   7.754   0.374  0.00  0.00    +0.132 C 
ATOM     31  C   LIG    1        6.188   5.423   0.772  0.00  0.00    +0.132 C 
ENDBRANCH  11  27
BRANCH   1  32
ATOM     32  C   LIG    1        0.132   0.670   0.360  0.00  0.00    +0.008 C 
BRANCH  32  34
ATOM     33  C   LIG    1       -2.099   1.905   0.310  0.00  0.00    -0.014 C 
ATOM     34  C   LIG    1       -0.690   1.810  -0.325  0.00  0.00    -0.073 C 
BRANCH  34  35
ATOM     35  N   LIG    1       -0.819   1.537  -1.844  0.00  0.00    +0.386 N 
ATOM     36  H   LIG    1        0.104   1.349  -2.210  0.00  0.00    -0.085 HD
ATOM     37  H   LIG    1       -1.334   0.672  -1.936  0.00  0.00    -0.085 HD
BRANCH  35  38
ATOM     38  C   LIG    1       -1.481   2.590  -2.679  0.00  0.00    +0.015 C 
BRANCH  38  39
ATOM     39  C   LIG    1       -0.448   3.678  -3.029  0.00  0.00    +0.200 C 
ATOM     40  O   LIG    1        0.455   3.389  -3.817  0.00  0.00    -0.278 OA
ATOM     41  N   LIG    1       -0.573   4.919  -2.497  0.00  0.00    -0.287 N 
ATOM     42  C   LIG    1       -1.620   5.345  -1.557  0.00  0.00    +0.179 C 
ATOM     43  C   LIG    1       -1.091   6.689  -1.052  0.00  0.00    +0.039 C 
ATOM     44  C   LIG    1       -0.325   7.245  -2.238  0.00  0.00    +0.022 C 
ATOM     45  C   LIG    1        0.334   6.017  -2.863  0.00  0.00    +0.109 C 
BRANCH  42  46
ATOM     46  C   LIG    1       -2.927   5.487  -2.227  0.00  0.00    +0.085 C 
ATOM     47  N   LIG    1       -3.952   5.596  -2.752  0.00  0.00    -0.195 NA
ENDBRANCH  42  46
ENDBRANCH  38  39
ENDBRANCH  35  38
ENDBRANCH  34  35
ENDBRANCH  32  34
ENDBRANCH   1  32
TORSDOF 9
