REMARK  Name = DB06610
REMARK                            x       y       z     vdW  Elec       q    Type
REMARK                         _______ _______ _______ _____ _____    ______ ____
ROOT
ATOM      1  C   LIG    1        2.277  -0.480   0.191  0.00  0.00    +0.163 C 
ENDROOT
BRANCH   1   3
ATOM      2  O   LIG    1        2.884  -2.557  -0.821  0.00  0.00    -0.274 OA
ATOM      3  C   LIG    1        2.805  -1.338  -0.979  0.00  0.00    +0.237 C 
ATOM      4  N   LIG    1        3.122  -0.732  -2.153  0.00  0.00    -0.288 N 
ATOM      5  C   LIG    1        3.573  -1.513  -3.308  0.00  0.00    +0.109 C 
ATOM      6  C   LIG    1        3.504  -0.560  -4.493  0.00  0.00    +0.021 C 
ATOM      7  C   LIG    1        3.774   0.789  -3.851  0.00  0.00    +0.033 C 
ATOM      8  C   LIG    1        3.091   0.713  -2.475  0.00  0.00    +0.162 C 
BRANCH   8   9
ATOM      9  C   LIG    1        1.675   1.317  -2.519  0.00  0.00    +0.234 C 
ATOM     10  N   LIG    1        1.575   2.566  -2.030  0.00  0.00    -0.302 N 
ATOM     11  H   LIG    1        2.414   3.018  -1.698  0.00  0.00    +0.150 HD
ATOM     12  O   LIG    1        0.734   0.655  -2.957  0.00  0.00    -0.274 OA
BRANCH  10  13
ATOM     13  C   LIG    1        0.353   3.367  -1.901  0.00  0.00    +0.163 C 
BRANCH  13  14
ATOM     14  C   LIG    1       -0.417   3.550  -3.224  0.00  0.00    +0.234 C 
ATOM     15  N   LIG    1       -1.757   3.564  -3.114  0.00  0.00    -0.302 N 
ATOM     16  H   LIG    1       -2.168   3.474  -2.196  0.00  0.00    +0.150 HD
ATOM     17  O   LIG    1        0.200   3.664  -4.284  0.00  0.00    -0.274 OA
BRANCH  15  18
ATOM     18  C   LIG    1       -2.710   3.624  -4.228  0.00  0.00    +0.159 C 
BRANCH  18  19
ATOM     19  C   LIG    1       -2.615   4.911  -5.066  0.00  0.00    +0.234 C 
ATOM     20  N   LIG    1       -3.142   4.846  -6.301  0.00  0.00    -0.302 N 
ATOM     21  H   LIG    1       -3.502   3.967  -6.645  0.00  0.00    +0.150 HD
ATOM     22  O   LIG    1       -2.155   5.936  -4.565  0.00  0.00    -0.274 OA
BRANCH  20  23
ATOM     23  C   LIG    1       -3.370   6.014  -7.151  0.00  0.00    +0.159 C 
BRANCH  23  24
ATOM     24  C   LIG    1       -4.521   6.865  -6.583  0.00  0.00    +0.234 C 
ATOM     25  N   LIG    1       -4.166   8.050  -6.066  0.00  0.00    -0.302 N 
ATOM     26  H   LIG    1       -3.194   8.324  -6.087  0.00  0.00    +0.150 HD
ATOM     27  O   LIG    1       -5.673   6.428  -6.608  0.00  0.00    -0.274 OA
BRANCH  25  28
ATOM     28  C   LIG    1       -5.086   9.023  -5.473  0.00  0.00    +0.159 C 
BRANCH  28  29
ATOM     29  C   LIG    1       -5.652  10.000  -6.527  0.00  0.00    +0.231 C 
ATOM     30  N   LIG    1       -6.825  10.571  -6.240  0.00  0.00    -0.328 N 
ATOM     31  H   LIG    1       -7.301  10.364  -5.375  0.00  0.00    +0.145 HD
ATOM     32  H   LIG    1       -7.237  11.227  -6.887  0.00  0.00    +0.145 HD
ATOM     33  O   LIG    1       -5.032  10.243  -7.563  0.00  0.00    -0.274 OA
ENDBRANCH  28  29
BRANCH  28  34
ATOM     34  C   LIG    1       -4.338   9.772  -4.349  0.00  0.00    +0.032 C 
BRANCH  34  35
ATOM     35  C   LIG    1       -4.018   8.878  -3.137  0.00  0.00    +0.000 C 
BRANCH  35  36
ATOM     36  C   LIG    1       -3.185   9.598  -2.067  0.00  0.00    -0.019 C 
BRANCH  36  37
ATOM     37  C   LIG    1       -2.917   8.708  -0.844  0.00  0.00    -0.086 C 
BRANCH  37  38
ATOM     38  N   LIG    1       -2.013   9.358   0.121  0.00  0.00    +0.378 N 
ATOM     39  H   LIG    1       -1.127   9.548  -0.324  0.00  0.00    -0.090 HD
ATOM     40  H   LIG    1       -2.423  10.224   0.439  0.00  0.00    -0.090 HD
ATOM     41  H   LIG    1       -1.866   8.746   0.912  0.00  0.00    -0.090 HD
ENDBRANCH  37  38
ENDBRANCH  36  37
ENDBRANCH  35  36
ENDBRANCH  34  35
ENDBRANCH  28  34
ENDBRANCH  25  28
ENDBRANCH  23  24
BRANCH  23  42
ATOM     42  C   LIG    1       -3.627   5.554  -8.602  0.00  0.00    +0.033 C 
BRANCH  42  43
ATOM     43  C   LIG    1       -3.853   6.710  -9.595  0.00  0.00    +0.017 C 
BRANCH  43  44
ATOM     44  C   LIG    1       -3.992   6.229 -11.047  0.00  0.00    +0.084 C 
BRANCH  44  45
ATOM     45  N   LIG    1       -4.387   7.320 -11.955  0.00  0.00    -0.283 NA
ATOM     46  H   LIG    1       -3.622   7.843 -12.359  0.00  0.00    +0.125 HD
BRANCH  45  47
ATOM     47  C   LIG    1       -5.639   7.721 -12.254  0.00  0.00    +0.167 C 
BRANCH  47  48
ATOM     48  N   LIG    1       -5.803   8.752 -13.093  0.00  0.00    -0.297 NA
ATOM     49  H   LIG    1       -4.999   9.217 -13.490  0.00  0.00    +0.121 HD
ATOM     50  H   LIG    1       -6.731   9.070 -13.333  0.00  0.00    +0.121 HD
ENDBRANCH  47  48
BRANCH  47  51
ATOM     51  N   LIG    1       -6.728   7.125 -11.741  0.00  0.00    -0.297 NA
ATOM     52  H   LIG    1       -6.626   6.345 -11.108  0.00  0.00    +0.121 HD
ATOM     53  H   LIG    1       -7.652   7.449 -11.990  0.00  0.00    +0.121 HD
ENDBRANCH  47  51
ENDBRANCH  45  47
ENDBRANCH  44  45
ENDBRANCH  43  44
ENDBRANCH  42  43
ENDBRANCH  23  42
ENDBRANCH  20  23
ENDBRANCH  18  19
BRANCH  18  54
ATOM     54  C   LIG    1       -4.136   3.431  -3.659  0.00  0.00    +0.033 C 
BRANCH  54  55
ATOM     55  C   LIG    1       -4.761   4.666  -2.969  0.00  0.00    +0.017 C 
BRANCH  55  56
ATOM     56  C   LIG    1       -6.118   4.386  -2.300  0.00  0.00    +0.084 C 
BRANCH  56  57
ATOM     57  N   LIG    1       -7.191   4.115  -3.274  0.00  0.00    -0.283 NA
ATOM     58  H   LIG    1       -7.317   3.142  -3.512  0.00  0.00    +0.125 HD
BRANCH  57  59
ATOM     59  C   LIG    1       -7.959   5.017  -3.915  0.00  0.00    +0.167 C 
BRANCH  59  60
ATOM     60  N   LIG    1       -8.858   4.577  -4.805  0.00  0.00    -0.297 NA
ATOM     61  H   LIG    1       -8.953   3.587  -4.984  0.00  0.00    +0.121 HD
ATOM     62  H   LIG    1       -9.435   5.233  -5.312  0.00  0.00    +0.121 HD
ENDBRANCH  59  60
BRANCH  59  63
ATOM     63  N   LIG    1       -7.856   6.339  -3.699  0.00  0.00    -0.297 NA
ATOM     64  H   LIG    1       -7.184   6.688  -3.030  0.00  0.00    +0.121 HD
ATOM     65  H   LIG    1       -8.443   6.987  -4.204  0.00  0.00    +0.121 HD
ENDBRANCH  59  63
ENDBRANCH  57  59
ENDBRANCH  56  57
ENDBRANCH  55  56
ENDBRANCH  54  55
ENDBRANCH  18  54
ENDBRANCH  15  18
ENDBRANCH  13  14
BRANCH  13  66
ATOM     66  C   LIG    1        0.714   4.719  -1.244  0.00  0.00    +0.069 C 
BRANCH  66  67
ATOM     67  C   LIG    1        1.648   5.630  -1.992  0.00  0.00    -0.020 A 
ATOM     68  C   LIG    1        2.990   5.479  -2.081  0.00  0.00    +0.087 A 
ATOM     69  N   LIG    1        3.517   6.471  -2.881  0.00  0.00    -0.360 N 
ATOM     70  H   LIG    1        4.504   6.540  -3.085  0.00  0.00    +0.165 HD
ATOM     71  C   LIG    1        2.537   7.317  -3.357  0.00  0.00    +0.047 A 
ATOM     72  C   LIG    1        2.562   8.447  -4.194  0.00  0.00    +0.026 A 
ATOM     73  C   LIG    1        1.354   9.099  -4.503  0.00  0.00    +0.002 A 
ATOM     74  C   LIG    1        0.142   8.620  -3.968  0.00  0.00    +0.001 A 
ATOM     75  C   LIG    1        0.133   7.493  -3.121  0.00  0.00    +0.010 A 
ATOM     76  C   LIG    1        1.326   6.805  -2.799  0.00  0.00    +0.003 A 
ENDBRANCH  66  67
ENDBRANCH  13  66
ENDBRANCH  10  13
ENDBRANCH   8   9
ENDBRANCH   1   3
BRANCH   1  77
ATOM     77  N   LIG    1        0.819  -0.544   0.157  0.00  0.00    -0.302 N 
ATOM     78  H   LIG    1        0.433  -1.394  -0.229  0.00  0.00    +0.150 HD
ATOM     79  C   LIG    1       -0.016   0.431   0.547  0.00  0.00    +0.234 C 
ATOM     80  O   LIG    1        0.367   1.492   1.041  0.00  0.00    -0.274 OA
BRANCH  79  81
ATOM     81  C   LIG    1       -1.526   0.160   0.355  0.00  0.00    +0.163 C 
BRANCH  81  82
ATOM     82  N   LIG    1       -2.281   1.375   0.038  0.00  0.00    -0.302 N 
ATOM     83  H   LIG    1       -2.557   1.470  -0.928  0.00  0.00    +0.150 HD
ATOM     84  C   LIG    1       -2.675   2.302   0.924  0.00  0.00    +0.234 C 
ATOM     85  O   LIG    1       -2.408   2.282   2.126  0.00  0.00    -0.274 OA
BRANCH  84  86
ATOM     86  C   LIG    1       -3.553   3.433   0.360  0.00  0.00    +0.162 C 
ATOM     87  C   LIG    1       -2.879   4.811   0.507  0.00  0.00    +0.033 C 
ATOM     88  C   LIG    1       -3.999   5.768   0.867  0.00  0.00    +0.021 C 
ATOM     89  C   LIG    1       -4.948   4.903   1.677  0.00  0.00    +0.109 C 
ATOM     90  N   LIG    1       -4.839   3.575   1.074  0.00  0.00    -0.288 N 
ATOM     91  C   LIG    1       -5.753   2.575   1.152  0.00  0.00    +0.237 C 
ATOM     92  O   LIG    1       -5.684   1.536   0.493  0.00  0.00    -0.274 OA
BRANCH  91  93
ATOM     93  C   LIG    1       -6.936   2.735   2.139  0.00  0.00    +0.163 C 
BRANCH  93  94
ATOM     94  N   LIG    1       -8.228   2.671   1.458  0.00  0.00    -0.302 N 
ATOM     95  H   LIG    1       -8.796   1.868   1.687  0.00  0.00    +0.150 HD
ATOM     96  C   LIG    1       -8.726   3.603   0.628  0.00  0.00    +0.234 C 
ATOM     97  O   LIG    1       -8.131   4.624   0.283  0.00  0.00    -0.274 OA
BRANCH  96  98
ATOM     98  C   LIG    1      -10.174   3.367   0.180  0.00  0.00    +0.159 C 
BRANCH  98  99
ATOM     99  N   LIG    1      -11.021   3.678   1.328  0.00  0.00    -0.302 N 
ATOM    100  H   LIG    1      -10.789   4.528   1.821  0.00  0.00    +0.150 HD
ATOM    101  C   LIG    1      -11.998   2.896   1.807  0.00  0.00    +0.234 C 
ATOM    102  O   LIG    1      -12.366   1.838   1.294  0.00  0.00    -0.274 OA
BRANCH 101 103
ATOM    103  C   LIG    1      -12.656   3.386   3.108  0.00  0.00    +0.159 C 
BRANCH 103 104
ATOM    104  N   LIG    1      -14.114   3.297   3.028  0.00  0.00    -0.305 N 
ATOM    105  H   LIG    1      -14.531   2.549   3.564  0.00  0.00    +0.149 HD
ATOM    106  C   LIG    1      -14.898   4.058   2.244  0.00  0.00    +0.199 C 
ATOM    107  O   LIG    1      -14.457   4.993   1.564  0.00  0.00    -0.278 OA
BRANCH 106 108
ATOM    108  C   LIG    1      -16.409   3.665   2.250  0.00  0.00    +0.016 C 
BRANCH 108 109
ATOM    109  N   LIG    1      -17.211   4.865   1.812  0.00  0.00    +0.386 N 
ATOM    110  H   LIG    1      -16.947   5.111   0.868  0.00  0.00    -0.089 HD
ATOM    111  H   LIG    1      -18.192   4.629   1.840  0.00  0.00    -0.089 HD
ATOM    112  H   LIG    1      -17.027   5.633   2.441  0.00  0.00    -0.089 HD
ENDBRANCH 108 109
BRANCH 108 113
ATOM    113  C   LIG    1      -16.664   2.393   1.361  0.00  0.00    -0.020 C 
ATOM    114  C   LIG    1      -16.182   2.519  -0.105  0.00  0.00    +0.006 C 
BRANCH 113 115
ATOM    115  C   LIG    1      -16.134   1.067   1.962  0.00  0.00    -0.001 C 
ATOM    116  C   LIG    1      -16.603   0.787   3.397  0.00  0.00    +0.004 C 
ENDBRANCH 113 115
ENDBRANCH 108 113
ENDBRANCH 106 108
ENDBRANCH 103 104
BRANCH 103 117
ATOM    117  C   LIG    1      -12.179   2.585   4.345  0.00  0.00    +0.034 C 
BRANCH 117 118
ATOM    118  C   LIG    1      -10.647   2.510   4.572  0.00  0.00    -0.015 C 
ATOM    119  C   LIG    1       -9.990   3.901   4.706  0.00  0.00    +0.007 C 
ATOM    120  C   LIG    1      -10.312   1.590   5.766  0.00  0.00    +0.007 C 
ENDBRANCH 117 118
ENDBRANCH 103 117
ENDBRANCH 101 103
ENDBRANCH  98  99
BRANCH  98 121
ATOM    121  C   LIG    1      -10.592   4.228  -1.035  0.00  0.00    +0.033 C 
BRANCH 121 122
ATOM    122  C   LIG    1      -12.017   3.926  -1.548  0.00  0.00    +0.017 C 
BRANCH 122 123
ATOM    123  C   LIG    1      -12.444   4.760  -2.769  0.00  0.00    +0.084 C 
BRANCH 123 124
ATOM    124  N   LIG    1      -12.680   6.177  -2.432  0.00  0.00    -0.283 NA
ATOM    125  H   LIG    1      -12.461   6.437  -1.481  0.00  0.00    +0.125 HD
BRANCH 124 126
ATOM    126  C   LIG    1      -13.150   7.140  -3.249  0.00  0.00    +0.167 C 
BRANCH 126 127
ATOM    127  N   LIG    1      -13.307   8.378  -2.763  0.00  0.00    -0.297 NA
ATOM    128  H   LIG    1      -13.078   8.581  -1.800  0.00  0.00    +0.121 HD
ATOM    129  H   LIG    1      -13.666   9.115  -3.353  0.00  0.00    +0.121 HD
ENDBRANCH 126 127
BRANCH 126 130
ATOM    130  N   LIG    1      -13.465   6.903  -4.533  0.00  0.00    -0.297 NA
ATOM    131  H   LIG    1      -13.362   5.975  -4.916  0.00  0.00    +0.121 HD
ATOM    132  H   LIG    1      -13.819   7.647  -5.118  0.00  0.00    +0.121 HD
ENDBRANCH 126 130
ENDBRANCH 124 126
ENDBRANCH 123 124
ENDBRANCH 122 123
ENDBRANCH 121 122
ENDBRANCH  98 121
ENDBRANCH  96  98
ENDBRANCH  93  94
BRANCH  93 133
ATOM    133  C   LIG    1       -6.918   1.622   3.207  0.00  0.00    +0.069 C 
BRANCH 133 134
ATOM    134  C   LIG    1       -5.672   1.543   4.040  0.00  0.00    -0.020 A 
ATOM    135  C   LIG    1       -5.290   2.460   4.957  0.00  0.00    +0.087 A 
ATOM    136  N   LIG    1       -4.074   2.098   5.496  0.00  0.00    -0.360 N 
ATOM    137  H   LIG    1       -3.605   2.647   6.201  0.00  0.00    +0.165 HD
ATOM    138  C   LIG    1       -3.603   0.922   4.949  0.00  0.00    +0.047 A 
ATOM    139  C   LIG    1       -2.439   0.160   5.156  0.00  0.00    +0.026 A 
ATOM    140  C   LIG    1       -2.252  -1.022   4.417  0.00  0.00    +0.002 A 
ATOM    141  C   LIG    1       -3.224  -1.425   3.481  0.00  0.00    +0.001 A 
ATOM    142  C   LIG    1       -4.384  -0.648   3.277  0.00  0.00    +0.010 A 
ATOM    143  C   LIG    1       -4.608   0.542   4.007  0.00  0.00    +0.003 A 
ENDBRANCH 133 134
ENDBRANCH  93 133
ENDBRANCH  91  93
ENDBRANCH  84  86
ENDBRANCH  81  82
BRANCH  81 144
ATOM    144  C   LIG    1       -1.830  -0.908  -0.726  0.00  0.00    +0.069 C 
BRANCH 144 145
ATOM    145  C   LIG    1       -3.275  -1.087  -1.093  0.00  0.00    -0.020 A 
ATOM    146  C   LIG    1       -4.227  -1.624  -0.297  0.00  0.00    +0.087 A 
ATOM    147  N   LIG    1       -5.448  -1.572  -0.937  0.00  0.00    -0.360 N 
ATOM    148  H   LIG    1       -6.299  -1.916  -0.515  0.00  0.00    +0.165 HD
ATOM    149  C   LIG    1       -5.344  -1.004  -2.190  0.00  0.00    +0.047 A 
ATOM    150  C   LIG    1       -6.277  -0.732  -3.206  0.00  0.00    +0.026 A 
ATOM    151  C   LIG    1       -5.835  -0.140  -4.403  0.00  0.00    +0.002 A 
ATOM    152  C   LIG    1       -4.472   0.172  -4.569  0.00  0.00    +0.001 A 
ATOM    153  C   LIG    1       -3.547  -0.094  -3.538  0.00  0.00    +0.010 A 
ATOM    154  C   LIG    1       -3.957  -0.690  -2.322  0.00  0.00    +0.003 A 
ENDBRANCH 144 145
ENDBRANCH  81 144
ENDBRANCH  79  81
ENDBRANCH   1  77
BRANCH   1 155
ATOM    155  C   LIG    1        2.802  -0.903   1.587  0.00  0.00    +0.069 C 
BRANCH 155 156
ATOM    156  C   LIG    1        2.295  -2.184   2.195  0.00  0.00    -0.020 A 
ATOM    157  C   LIG    1        1.092  -2.341   2.795  0.00  0.00    +0.087 A 
ATOM    158  N   LIG    1        0.944  -3.646   3.212  0.00  0.00    -0.360 N 
ATOM    159  H   LIG    1        0.115  -3.976   3.684  0.00  0.00    +0.165 HD
ATOM    160  C   LIG    1        2.049  -4.409   2.898  0.00  0.00    +0.047 A 
ATOM    161  C   LIG    1        2.377  -5.761   3.103  0.00  0.00    +0.026 A 
ATOM    162  C   LIG    1        3.618  -6.244   2.648  0.00  0.00    +0.002 A 
ATOM    163  C   LIG    1        4.512  -5.373   1.996  0.00  0.00    +0.001 A 
ATOM    164  C   LIG    1        4.173  -4.019   1.796  0.00  0.00    +0.010 A 
ATOM    165  C   LIG    1        2.934  -3.499   2.241  0.00  0.00    +0.003 A 
ENDBRANCH 155 156
ENDBRANCH   1 155
TORSDOF 60
