REMARK  Name = DB06335
REMARK                            x       y       z     vdW  Elec       q    Type
REMARK                         _______ _______ _______ _____ _____    ______ ____
ROOT
ATOM      1  C   LIG    1       -0.076   0.183  -0.028  0.00  0.00    +0.144 C 
ENDROOT
BRANCH   1   2
ATOM      2  C   LIG    1        1.500   0.122   0.010  0.00  0.00    -0.002 C 
ATOM      3  C   LIG    1        2.013  -1.351  -0.081  0.00  0.00    +0.012 C 
ATOM      4  C   LIG    1        3.561  -1.438  -0.110  0.00  0.00    -0.007 C 
ATOM      5  C   LIG    1        4.070  -0.638  -1.337  0.00  0.00    +0.038 C 
ATOM      6  C   LIG    1        3.637   0.851  -1.278  0.00  0.00    +0.067 C 
ATOM      7  C   LIG    1        4.168   1.483   0.037  0.00  0.00    +0.038 C 
ATOM      8  C   LIG    1        3.662   0.725   1.292  0.00  0.00    -0.007 C 
ATOM      9  C   LIG    1        4.109  -0.759   1.175  0.00  0.00    +0.007 C 
ATOM     10  C   LIG    1        2.083   0.889  -1.221  0.00  0.00    +0.043 C 
ATOM     11  C   LIG    1        2.112   0.764   1.297  0.00  0.00    +0.012 C 
BRANCH   6  12
ATOM     12  O   LIG    1        4.091   1.563  -2.412  0.00  0.00    -0.389 OA
ATOM     13  H   LIG    1        5.049   1.511  -2.441  0.00  0.00    +0.210 HD
ENDBRANCH   6  12
ENDBRANCH   1   2
BRANCH   1  14
ATOM     14  C   LIG    1       -0.780  -0.626   1.106  0.00  0.00    +0.234 C 
ATOM     15  O   LIG    1       -0.784  -0.156   2.248  0.00  0.00    -0.274 OA
ATOM     16  N   LIG    1       -1.344  -1.832   0.830  0.00  0.00    -0.281 N 
ATOM     17  C   LIG    1       -1.930  -2.674   1.890  0.00  0.00    +0.179 C 
ATOM     18  C   LIG    1       -2.548  -3.865   1.140  0.00  0.00    +0.043 C 
ATOM     19  C   LIG    1       -2.103  -3.764  -0.313  0.00  0.00    +0.014 C 
ATOM     20  C   LIG    1       -0.605  -3.708  -0.532  0.00  0.00    +0.028 C 
ATOM     21  C   LIG    1       -1.443  -2.436  -0.506  0.00  0.00    +0.081 C 
BRANCH  17  22
ATOM     22  C   LIG    1       -0.917  -3.114   2.871  0.00  0.00    +0.085 C 
ATOM     23  N   LIG    1       -0.124  -3.460   3.638  0.00  0.00    -0.195 NA
ENDBRANCH  17  22
ENDBRANCH   1  14
BRANCH   1  24
ATOM     24  N   LIG    1       -0.620   1.556   0.029  0.00  0.00    -0.319 NA
ATOM     25  H   LIG    1       -1.609   1.567  -0.175  0.00  0.00    +0.119 HD
ATOM     26  H   LIG    1       -0.172   2.154  -0.650  0.00  0.00    +0.119 HD
ENDBRANCH   1  24
TORSDOF 5
