REMARK  Name = DB06445
REMARK                            x       y       z     vdW  Elec       q    Type
REMARK                         _______ _______ _______ _____ _____    ______ ____
ROOT
ATOM      1  C   LIG    1        1.216  -0.261  -0.092  0.00  0.00    -0.038 C 
ENDROOT
BRANCH   1   2
ATOM      2  C   LIG    1       -0.322  -0.241  -0.058  0.00  0.00    -0.084 C 
BRANCH   2   3
ATOM      3  N   LIG    1       -0.842   1.207  -0.055  0.00  0.00    +0.379 N 
ATOM      4  H   LIG    1       -0.477   1.684   0.758  0.00  0.00    -0.086 HD
ATOM      5  H   LIG    1       -0.494   1.680  -0.878  0.00  0.00    -0.086 HD
BRANCH   3   6
ATOM      6  C   LIG    1       -2.375   1.308  -0.039  0.00  0.00    -0.084 C 
BRANCH   6   7
ATOM      7  C   LIG    1       -2.792   2.787  -0.011  0.00  0.00    -0.038 C 
BRANCH   7   8
ATOM      8  C   LIG    1       -4.318   2.953  -0.005  0.00  0.00    -0.084 C 
BRANCH   8   9
ATOM      9  N   LIG    1       -4.671   4.449   0.009  0.00  0.00    +0.379 N 
ATOM     10  H   LIG    1       -4.271   4.873   0.835  0.00  0.00    -0.086 HD
ATOM     11  H   LIG    1       -4.258   4.891  -0.800  0.00  0.00    -0.086 HD
BRANCH   9  13
ATOM     12  C   LIG    1       -6.431   6.238   0.013  0.00  0.00    -0.017 C 
ATOM     13  C   LIG    1       -6.184   4.724  -0.001  0.00  0.00    -0.086 C 
ENDBRANCH   9  13
ENDBRANCH   8   9
ENDBRANCH   7   8
ENDBRANCH   6   7
ENDBRANCH   3   6
ENDBRANCH   2   3
ENDBRANCH   1   2
BRANCH   1  14
ATOM     14  C   LIG    1        1.870   0.284   1.194  0.00  0.00    -0.084 C 
BRANCH  14  15
ATOM     15  N   LIG    1        3.407   0.272   1.088  0.00  0.00    +0.379 N 
ATOM     16  H   LIG    1        3.772   0.808   1.864  0.00  0.00    -0.086 HD
ATOM     17  H   LIG    1        3.684   0.744   0.239  0.00  0.00    -0.086 HD
BRANCH  15  18
ATOM     18  C   LIG    1        4.058  -1.121   1.135  0.00  0.00    -0.084 C 
BRANCH  18  19
ATOM     19  C   LIG    1        5.585  -0.970   1.181  0.00  0.00    -0.038 C 
BRANCH  19  20
ATOM     20  C   LIG    1        6.295  -2.330   1.256  0.00  0.00    -0.084 C 
BRANCH  20  21
ATOM     21  N   LIG    1        7.816  -2.113   1.306  0.00  0.00    +0.379 N 
ATOM     22  H   LIG    1        8.040  -1.548   2.113  0.00  0.00    -0.086 HD
ATOM     23  H   LIG    1        8.102  -1.605   0.480  0.00  0.00    -0.086 HD
BRANCH  21  24
ATOM     24  C   LIG    1        8.620  -3.421   1.382  0.00  0.00    -0.086 C 
ATOM     25  C   LIG    1       10.120  -3.099   1.424  0.00  0.00    -0.017 C 
ENDBRANCH  21  24
ENDBRANCH  20  21
ENDBRANCH  19  20
ENDBRANCH  18  19
ENDBRANCH  15  18
ENDBRANCH  14  15
ENDBRANCH   1  14
TORSDOF 14
