REMARK  Name = DB06638
REMARK                            x       y       z     vdW  Elec       q    Type
REMARK                         _______ _______ _______ _____ _____    ______ ____
ROOT
ATOM      1  C   LIG    1       -7.586   0.506   0.511  0.00  0.00    +0.110 A 
ATOM      2  C   LIG    1       -6.523  -0.408   0.551  0.00  0.00    +0.177 A 
ATOM      3  O   LIG    1       -6.822  -1.749   0.637  0.00  0.00    -0.450 OA
ATOM      4  C   LIG    1       -5.813  -2.670   0.480  0.00  0.00    +0.153 A 
ATOM      5  C   LIG    1       -6.219  -3.997   0.413  0.00  0.00    +0.057 A 
ATOM      6  C   LIG    1       -5.268  -5.028   0.257  0.00  0.00    -0.014 A 
ATOM      7  C   LIG    1       -5.649  -6.391   0.186  0.00  0.00    +0.008 A 
ATOM      8  C   LIG    1       -4.684  -7.382   0.026  0.00  0.00    +0.001 A 
ATOM      9  C   LIG    1       -3.337  -7.048  -0.066  0.00  0.00    +0.001 A 
ATOM     10  C   LIG    1       -2.931  -5.718   0.000  0.00  0.00    +0.008 A 
ATOM     11  C   LIG    1       -3.887  -4.684   0.165  0.00  0.00    -0.016 A 
ATOM     12  C   LIG    1       -3.505  -3.320   0.237  0.00  0.00    +0.038 A 
ATOM     13  C   LIG    1       -4.459  -2.302   0.404  0.00  0.00    +0.090 A 
ATOM     14  N   LIG    1       -4.132  -0.914   0.481  0.00  0.00    -0.309 N 
ATOM     15  C   LIG    1       -2.824  -0.444   0.543  0.00  0.00    +0.109 A 
ATOM     16  C   LIG    1       -2.447   0.863   0.502  0.00  0.00    +0.100 A 
ATOM     17  C   LIG    1       -3.481   1.927   0.385  0.00  0.00    +0.202 A 
ATOM     18  O   LIG    1       -3.243   3.134   0.282  0.00  0.00    -0.286 OA
ATOM     19  C   LIG    1       -4.899   1.412   0.418  0.00  0.00    +0.053 A 
ATOM     20  C   LIG    1       -5.972   2.314   0.378  0.00  0.00    +0.054 A 
ATOM     21  C   LIG    1       -5.191   0.033   0.487  0.00  0.00    +0.102 A 
ATOM     22  C   LIG    1       -7.294   1.872   0.421  0.00  0.00    +0.149 A 
ATOM     23  F   LIG    1       -8.291   2.788   0.381  0.00  0.00    -0.203 F 
ENDROOT
BRANCH   1  27
ATOM     24  C   LIG    1      -10.548  -1.528   1.415  0.00  0.00    +0.058 C 
ATOM     25  C   LIG    1      -10.924  -1.075   0.004  0.00  0.00    +0.030 C 
ATOM     26  C   LIG    1       -9.603  -0.551  -0.540  0.00  0.00    +0.106 C 
ATOM     27  N   LIG    1       -8.922   0.096   0.577  0.00  0.00    -0.324 N 
ATOM     28  C   LIG    1       -9.530  -0.433   1.802  0.00  0.00    +0.115 C 
BRANCH  24  29
ATOM     29  C   LIG    1      -10.056  -2.978   1.564  0.00  0.00    +0.064 A 
ATOM     30  C   LIG    1       -9.532  -3.437   2.781  0.00  0.00    +0.134 A 
ATOM     31  N   LIG    1       -9.140  -4.728   2.952  0.00  0.00    -0.260 NA
ATOM     32  C   LIG    1       -9.289  -5.568   1.895  0.00  0.00    +0.130 A 
ATOM     33  C   LIG    1       -9.814  -5.123   0.680  0.00  0.00    +0.130 A 
ATOM     34  N   LIG    1      -10.193  -3.829   0.507  0.00  0.00    -0.257 NA
ENDBRANCH  24  29
ENDBRANCH   1  27
BRANCH  16  35
ATOM     35  C   LIG    1       -1.034   1.206   0.589  0.00  0.00    +0.249 C 
ATOM     36  O   LIG    1       -0.628   2.150   1.271  0.00  0.00    -0.270 OA
ATOM     37  N   LIG    1       -0.209   0.438  -0.152  0.00  0.00    -0.311 N 
ATOM     38  H   LIG    1       -0.622  -0.297  -0.708  0.00  0.00    +0.149 HD
BRANCH  37  39
ATOM     39  C   LIG    1        1.246   0.575  -0.254  0.00  0.00    +0.103 C 
BRANCH  39  40
ATOM     40  C   LIG    1        2.019  -0.341   0.719  0.00  0.00    +0.003 C 
BRANCH  40  41
ATOM     41  C   LIG    1        1.875   0.005   2.220  0.00  0.00    -0.068 C 
ATOM     42  N   LIG    1        2.550  -0.952   3.221  0.00  0.00    +0.380 N 
ATOM     43  H   LIG    1        3.485  -1.139   2.887  0.00  0.00    -0.082 HD
ATOM     44  C   LIG    1        1.812  -2.294   3.399  0.00  0.00    -0.096 C 
ATOM     45  C   LIG    1        2.662  -0.155   4.535  0.00  0.00    -0.079 C 
ATOM     46  C   LIG    1        2.717   1.319   4.121  0.00  0.00    -0.020 C 
ATOM     47  C   LIG    1        2.469   1.364   2.615  0.00  0.00    -0.017 C 
ENDBRANCH  40  41
ENDBRANCH  39  40
ENDBRANCH  37  39
ENDBRANCH  16  35
TORSDOF 6
