REMARK  Name = DB06641
REMARK                            x       y       z     vdW  Elec       q    Type
REMARK                         _______ _______ _______ _____ _____    ______ ____
ROOT
ATOM      1  C   LIG    1        2.541  -3.395  -1.230  0.00  0.00    +0.002 C 
ENDROOT
BRANCH   1   2
ATOM      2  C   LIG    1        1.766  -2.066  -1.182  0.00  0.00    +0.000 C 
BRANCH   2   3
ATOM      3  C   LIG    1        2.123  -1.199   0.041  0.00  0.00    +0.000 C 
BRANCH   3   4
ATOM      4  C   LIG    1        1.490   0.207   0.026  0.00  0.00    +0.000 C 
BRANCH   4   5
ATOM      5  C   LIG    1       -0.049   0.216   0.100  0.00  0.00    -0.000 C 
BRANCH   5   6
ATOM      6  C   LIG    1       -0.639   1.638   0.124  0.00  0.00    -0.000 C 
BRANCH   6   7
ATOM      7  C   LIG    1       -2.177   1.649   0.163  0.00  0.00    -0.000 C 
BRANCH   7   8
ATOM      8  C   LIG    1       -2.768   3.071   0.142  0.00  0.00    -0.000 C 
BRANCH   8   9
ATOM      9  C   LIG    1       -4.307   3.083   0.149  0.00  0.00    -0.000 C 
BRANCH   9  10
ATOM     10  C   LIG    1       -4.892   4.508   0.089  0.00  0.00    -0.000 C 
BRANCH  10  11
ATOM     11  C   LIG    1       -6.431   4.572   0.145  0.00  0.00    -0.000 C 
BRANCH  11  12
ATOM     12  C   LIG    1       -7.138   3.968  -1.087  0.00  0.00    -0.000 C 
BRANCH  12  13
ATOM     13  C   LIG    1       -8.676   4.068  -1.052  0.00  0.00    -0.000 C 
BRANCH  13  14
ATOM     14  C   LIG    1       -9.223   5.505  -1.160  0.00  0.00    -0.000 C 
BRANCH  14  16
ATOM     15  C   LIG    1      -11.304   6.988  -1.347  0.00  0.00    +0.004 C 
ATOM     16  C   LIG    1      -10.759   5.557  -1.244  0.00  0.00    -0.003 C 
ENDBRANCH  14  16
ENDBRANCH  13  14
ENDBRANCH  12  13
ENDBRANCH  11  12
ENDBRANCH  10  11
ENDBRANCH   9  10
ENDBRANCH   8   9
ENDBRANCH   7   8
ENDBRANCH   6   7
ENDBRANCH   5   6
ENDBRANCH   4   5
ENDBRANCH   3   4
ENDBRANCH   2   3
ENDBRANCH   1   2
BRANCH   1  17
ATOM     17  C   LIG    1        2.143  -4.270  -2.432  0.00  0.00    +0.029 C 
BRANCH  17  18
ATOM     18  C   LIG    1        2.947  -5.577  -2.519  0.00  0.00    +0.172 C 
BRANCH  18  19
ATOM     19  O   LIG    1        2.542  -6.321  -3.658  0.00  0.00    -0.287 OA
BRANCH  19  20
ATOM     20  P   LIG    1        1.334  -7.541  -3.441  0.00  0.00    +0.475 P 
ATOM     21  O   LIG    1        0.291  -7.046  -2.463  0.00  0.00    -0.227 OA
BRANCH  20  22
ATOM     22  O   LIG    1        0.986  -8.104  -4.802  0.00  0.00    -0.302 OA
ATOM     23  H   LIG    1        0.423  -7.475  -5.279  0.00  0.00    +0.222 HD
ENDBRANCH  20  22
BRANCH  20  24
ATOM     24  O   LIG    1        2.337  -8.682  -2.617  0.00  0.00    -0.283 OA
BRANCH  24  25
ATOM     25  C   LIG    1        3.406  -9.269  -3.343  0.00  0.00    +0.127 C 
ATOM     26  C   LIG    1        4.698  -9.175  -2.519  0.00  0.00    +0.014 C 
ATOM     27  C   LIG    1        5.887  -9.775  -3.300  0.00  0.00    -0.073 C 
ATOM     28  N   LIG    1        5.591 -11.236  -3.754  0.00  0.00    +0.376 N 
ATOM     29  C   LIG    1        6.702 -11.652  -4.751  0.00  0.00    -0.092 C 
ATOM     30  C   LIG    1        5.644 -12.195  -2.538  0.00  0.00    -0.092 C 
ATOM     31  C   LIG    1        4.224 -11.373  -4.490  0.00  0.00    -0.073 C 
ATOM     32  C   LIG    1        3.080 -10.732  -3.676  0.00  0.00    +0.014 C 
ENDBRANCH  24  25
ENDBRANCH  20  24
ENDBRANCH  19  20
ENDBRANCH  18  19
ENDBRANCH  17  18
ENDBRANCH   1  17
TORSDOF 21
