REMARK  Name = DB06756
REMARK                            x       y       z     vdW  Elec       q    Type
REMARK                         _______ _______ _______ _____ _____    ______ ____
ROOT
ATOM      1  C   LIG    1       -0.100   0.013   0.003  0.00  0.00    +0.046 C 
ENDROOT
BRANCH   1   2
ATOM      2  N   LIG    1        1.465   0.045   0.000  0.00  0.00    +0.381 N 
ATOM      3  C   LIG    1        2.051   0.728   1.262  0.00  0.00    -0.092 C 
ATOM      4  C   LIG    1        2.047   0.730  -1.263  0.00  0.00    -0.092 C 
ATOM      5  C   LIG    1        1.950  -1.427  -0.002  0.00  0.00    -0.092 C 
ENDBRANCH   1   2
BRANCH   1   6
ATOM      6  C   LIG    1       -0.709   1.432   0.011  0.00  0.00    +0.288 C 
ATOM      7  O   LIG    1       -0.929   1.974  -1.095  0.00  0.00    -0.253 OA
BRANCH   6   8
ATOM      8  O   LIG    1       -0.946   1.952   1.125  0.00  0.00    -0.482 OA
ATOM      9  H   LIG    1       -1.285   1.428   1.823  0.00  0.00    +0.295 HD
ENDBRANCH   6   8
ENDBRANCH   1   6
TORSDOF 3
