REMARK  Name = DB06519
REMARK                            x       y       z     vdW  Elec       q    Type
REMARK                         _______ _______ _______ _____ _____    ______ ____
ROOT
ATOM      1  C   LIG    1        6.020   0.600  -1.665  0.00  0.00    -0.031 A 
ATOM      2  C   LIG    1        5.638   0.108  -0.416  0.00  0.00    +0.008 A 
ATOM      3  C   LIG    1        4.306  -0.101  -0.084  0.00  0.00    +0.046 A 
ATOM      4  C   LIG    1        3.283   0.178  -0.997  0.00  0.00    +0.129 A 
ATOM      5  C   LIG    1        3.615   0.654  -2.280  0.00  0.00    +0.031 A 
ATOM      6  C   LIG    1        2.762   0.991  -3.372  0.00  0.00    +0.020 A 
ATOM      7  C   LIG    1        3.454   1.431  -4.476  0.00  0.00    +0.046 A 
ATOM      8  S   LIG    1        5.180   1.460  -4.249  0.00  0.00    -0.096 S 
ATOM      9  C   LIG    1        4.995   0.861  -2.599  0.00  0.00    +0.026 A 
ENDROOT
BRANCH   1  10
ATOM     10  C   LIG    1        7.505   0.835  -1.941  0.00  0.00    +0.060 C 
BRANCH  10  11
ATOM     11  C   LIG    1        7.936   2.326  -1.959  0.00  0.00    +0.146 C 
ATOM     12  C   LIG    1        7.797   3.011  -0.594  0.00  0.00    +0.234 C 
ATOM     13  O   LIG    1        6.737   3.139   0.016  0.00  0.00    -0.274 OA
ATOM     14  N   LIG    1        8.983   3.460  -0.167  0.00  0.00    -0.246 N 
ATOM     15  H   LIG    1        9.043   3.924   0.727  0.00  0.00    +0.158 HD
ATOM     16  C   LIG    1       10.089   3.314  -0.904  0.00  0.00    +0.279 C 
ATOM     17  O   LIG    1       11.223   3.686  -0.610  0.00  0.00    -0.263 OA
ATOM     18  S   LIG    1        9.667   2.483  -2.445  0.00  0.00    -0.054 S 
ENDBRANCH  10  11
ENDBRANCH   1  10
BRANCH   4  19
ATOM     19  O   LIG    1        1.931   0.022  -0.761  0.00  0.00    -0.491 OA
BRANCH  19  20
ATOM     20  C   LIG    1        1.482  -0.245   0.566  0.00  0.00    +0.235 C 
BRANCH  20  21
ATOM     21  C   LIG    1       -0.019   0.087   0.651  0.00  0.00    +0.100 C 
BRANCH  21  22
ATOM     22  C   LIG    1       -0.331   1.523   0.268  0.00  0.00    +0.086 A 
ATOM     23  N   LIG    1        0.266   2.535   0.878  0.00  0.00    -0.214 NA
ATOM     24  C   LIG    1       -0.192   3.617   0.288  0.00  0.00    +0.228 A 
ATOM     25  O   LIG    1       -1.099   3.361  -0.689  0.00  0.00    -0.440 OA
ATOM     26  C   LIG    1       -1.192   2.011  -0.707  0.00  0.00    +0.126 A 
ATOM     27  C   LIG    1       -2.126   1.397  -1.722  0.00  0.00    +0.088 C 
BRANCH  24  28
ATOM     28  C   LIG    1        0.188   5.037   0.565  0.00  0.00    +0.037 A 
ATOM     29  C   LIG    1       -0.425   6.084  -0.133  0.00  0.00    +0.013 A 
ATOM     30  C   LIG    1       -0.063   7.404   0.122  0.00  0.00    +0.001 A 
ATOM     31  C   LIG    1        0.914   7.680   1.075  0.00  0.00    +0.000 A 
ATOM     32  C   LIG    1        1.531   6.648   1.777  0.00  0.00    +0.001 A 
ATOM     33  C   LIG    1        1.168   5.328   1.523  0.00  0.00    +0.013 A 
ENDBRANCH  24  28
ENDBRANCH  21  22
ENDBRANCH  20  21
ENDBRANCH  19  20
ENDBRANCH   4  19
TORSDOF 7
