REMARK  Name = DB06532
REMARK                            x       y       z     vdW  Elec       q    Type
REMARK                         _______ _______ _______ _____ _____    ______ ____
ROOT
ATOM      1  C   LIG    1        1.479   0.132   0.162  0.00  0.00    +0.136 A 
ATOM      2  O   LIG    1        2.116   1.325   0.013  0.00  0.00    -0.455 OA
ATOM      3  C   LIG    1        3.452   1.127   0.188  0.00  0.00    +0.136 A 
ATOM      4  C   LIG    1        3.671  -0.219   0.452  0.00  0.00    +0.050 A 
ATOM      5  C   LIG    1        2.425  -0.846   0.439  0.00  0.00    +0.050 A 
ENDROOT
BRANCH   1   8
ATOM      6  C   LIG    1       -2.104  -1.079   0.133  0.00  0.00    +0.017 A 
ATOM      7  C   LIG    1       -0.719  -1.053   0.272  0.00  0.00    +0.012 A 
ATOM      8  C   LIG    1       -0.006   0.118   0.010  0.00  0.00    +0.017 A 
ATOM      9  C   LIG    1       -0.698   1.261  -0.396  0.00  0.00    +0.012 A 
ATOM     10  C   LIG    1       -2.083   1.232  -0.534  0.00  0.00    +0.017 A 
ATOM     11  C   LIG    1       -2.818   0.066  -0.264  0.00  0.00    +0.069 A 
BRANCH  11  12
ATOM     12  C   LIG    1       -4.303   0.033  -0.425  0.00  0.00    +0.363 C 
ATOM     13  N   LIG    1       -5.109   0.966  -0.090  0.00  0.00    +0.153 NA
BRANCH  12  14
ATOM     14  N   LIG    1       -4.710  -1.145  -1.017  0.00  0.00    -0.243 N 
ATOM     15  H   LIG    1       -4.036  -1.850  -1.279  0.00  0.00    +0.289 HD
ATOM     16  H   LIG    1       -5.688  -1.309  -1.205  0.00  0.00    +0.289 HD
ENDBRANCH  12  14
BRANCH  13  17
ATOM     17  O   LIG    1       -4.504   2.010   0.635  0.00  0.00    -0.300 OA
ATOM     18  C   LIG    1       -5.484   2.992   0.931  0.00  0.00    +0.347 C 
ENDBRANCH  13  17
ENDBRANCH  11  12
ENDBRANCH   1   8
BRANCH   3  19
ATOM     19  C   LIG    1        4.349   2.313   0.061  0.00  0.00    +0.017 A 
ATOM     20  C   LIG    1        3.826   3.603  -0.025  0.00  0.00    +0.012 A 
ATOM     21  C   LIG    1        4.675   4.699  -0.146  0.00  0.00    +0.017 A 
ATOM     22  C   LIG    1        6.076   4.549  -0.186  0.00  0.00    +0.069 A 
ATOM     23  C   LIG    1        6.577   3.235  -0.096  0.00  0.00    +0.017 A 
ATOM     24  C   LIG    1        5.731   2.136   0.025  0.00  0.00    +0.012 A 
BRANCH  22  25
ATOM     25  C   LIG    1        7.010   5.715  -0.316  0.00  0.00    +0.363 C 
ATOM     26  N   LIG    1        8.271   5.510  -0.321  0.00  0.00    +0.153 NA
BRANCH  25  27
ATOM     27  N   LIG    1        6.355   6.933  -0.421  0.00  0.00    -0.243 N 
ATOM     28  H   LIG    1        5.347   6.979  -0.410  0.00  0.00    +0.289 HD
ATOM     29  H   LIG    1        6.884   7.788  -0.515  0.00  0.00    +0.289 HD
ENDBRANCH  25  27
BRANCH  26  30
ATOM     30  O   LIG    1        8.996   6.710  -0.452  0.00  0.00    -0.300 OA
ATOM     31  C   LIG    1       10.383   6.411  -0.438  0.00  0.00    +0.347 C 
ENDBRANCH  26  30
ENDBRANCH  22  25
ENDBRANCH   3  19
TORSDOF 8
