REMARK  Name = DB06517
REMARK                            x       y       z     vdW  Elec       q    Type
REMARK                         _______ _______ _______ _____ _____    ______ ____
ROOT
ATOM      1  C   LIG    1       -2.547   0.589   0.208  0.00  0.00    +0.064 A 
ATOM      2  C   LIG    1       -3.386   0.465   1.323  0.00  0.00    +0.015 A 
ATOM      3  C   LIG    1       -4.743   0.192   1.193  0.00  0.00    +0.003 A 
ATOM      4  C   LIG    1       -5.318   0.038  -0.062  0.00  0.00    +0.030 A 
ATOM      5  C   LIG    1       -4.523   0.167  -1.221  0.00  0.00    +0.091 A 
ATOM      6  N   LIG    1       -5.107   0.026  -2.441  0.00  0.00    -0.244 NA
ATOM      7  C   LIG    1       -4.356   0.167  -3.564  0.00  0.00    +0.091 A 
ATOM      8  C   LIG    1       -2.970   0.464  -3.473  0.00  0.00    +0.098 A 
ATOM      9  N   LIG    1       -2.392   0.596  -2.244  0.00  0.00    -0.242 NA
ATOM     10  C   LIG    1       -2.191   0.620  -4.653  0.00  0.00    +0.013 A 
ATOM     11  C   LIG    1       -0.802   0.926  -4.598  0.00  0.00    +0.011 A 
ATOM     12  C   LIG    1       -0.065   1.073  -5.764  0.00  0.00    +0.004 A 
ATOM     13  C   LIG    1       -0.669   0.928  -7.005  0.00  0.00    +0.046 A 
ATOM     14  C   LIG    1       -2.035   0.629  -7.123  0.00  0.00    +0.128 A 
ATOM     15  C   LIG    1       -2.812   0.471  -5.934  0.00  0.00    +0.026 A 
ATOM     16  C   LIG    1       -4.199   0.169  -5.986  0.00  0.00    +0.014 A 
ATOM     17  C   LIG    1       -4.955   0.021  -4.829  0.00  0.00    +0.030 A 
ATOM     18  C   LIG    1       -3.128   0.450  -1.103  0.00  0.00    +0.102 A 
ENDROOT
BRANCH   1  20
ATOM     19  O   LIG    1       -0.730   1.643   1.347  0.00  0.00    -0.270 OA
ATOM     20  C   LIG    1       -1.079   0.875   0.448  0.00  0.00    +0.246 C 
ATOM     21  N   LIG    1       -0.208   0.203  -0.329  0.00  0.00    -0.310 N 
ATOM     22  H   LIG    1       -0.585  -0.342  -1.091  0.00  0.00    +0.149 HD
BRANCH  21  23
ATOM     23  C   LIG    1        1.255   0.257  -0.240  0.00  0.00    +0.054 C 
ATOM     24  C   LIG    1        1.863  -0.208  -1.573  0.00  0.00    +0.026 C 
BRANCH  23  25
ATOM     25  C   LIG    1        1.810  -0.586   0.943  0.00  0.00    -0.057 C 
BRANCH  25  26
ATOM     26  N   LIG    1        1.812   0.199   2.278  0.00  0.00    +0.377 N 
ATOM     27  H   LIG    1        0.918   0.668   2.341  0.00  0.00    -0.083 HD
ATOM     28  C   LIG    1        1.901  -0.746   3.491  0.00  0.00    -0.097 C 
ATOM     29  C   LIG    1        2.909   1.282   2.351  0.00  0.00    -0.097 C 
ENDBRANCH  25  26
ENDBRANCH  23  25
ENDBRANCH  21  23
ENDBRANCH   1  20
BRANCH  14  30
ATOM     30  O   LIG    1       -2.679   0.479  -8.340  0.00  0.00    -0.495 OA
ATOM     31  C   LIG    1       -1.944   0.632  -9.550  0.00  0.00    +0.277 C 
ENDBRANCH  14  30
TORSDOF 5
