REMARK  Name = DB06203
REMARK                            x       y       z     vdW  Elec       q    Type
REMARK                         _______ _______ _______ _____ _____    ______ ____
ROOT
ATOM      1  N   LIG    1       -0.229  -0.012   0.219  0.00  0.00    -0.277 N 
ATOM      2  C   LIG    1       -0.953  -1.107  -0.242  0.00  0.00    +0.111 A 
ATOM      3  C   LIG    1       -2.225  -0.966  -0.677  0.00  0.00    +0.112 A 
ATOM      4  C   LIG    1       -2.884   0.321  -0.658  0.00  0.00    +0.258 A 
ATOM      5  O   LIG    1       -3.971   0.487  -1.215  0.00  0.00    -0.267 OA
ATOM      6  N   LIG    1       -2.147   1.289  -0.012  0.00  0.00    -0.264 N 
ATOM      7  C   LIG    1       -2.814   2.597   0.164  0.00  0.00    +0.157 C 
ATOM      8  C   LIG    1       -0.882   1.164   0.543  0.00  0.00    +0.333 A 
ATOM      9  O   LIG    1       -0.405   1.992   1.328  0.00  0.00    -0.246 OA
ENDROOT
BRANCH   2  10
ATOM     10  N   LIG    1       -0.291  -2.336  -0.219  0.00  0.00    -0.315 N 
ATOM     11  C   LIG    1       -0.707  -3.433  -1.116  0.00  0.00    +0.125 C 
ATOM     12  C   LIG    1        0.430  -4.447  -1.375  0.00  0.00    +0.068 C 
ATOM     13  C   LIG    1        0.949  -5.020  -0.050  0.00  0.00    +0.021 C 
ATOM     14  C   LIG    1        1.342  -3.878   0.892  0.00  0.00    +0.020 C 
ATOM     15  C   LIG    1        0.205  -2.852   1.075  0.00  0.00    +0.106 C 
BRANCH  12  16
ATOM     16  N   LIG    1        0.053  -5.484  -2.317  0.00  0.00    -0.326 NA
ATOM     17  H   LIG    1       -0.437  -5.099  -3.111  0.00  0.00    +0.119 HD
ATOM     18  H   LIG    1       -0.532  -6.181  -1.879  0.00  0.00    +0.119 HD
ENDBRANCH  12  16
ENDBRANCH   2  10
BRANCH   1  19
ATOM     19  C   LIG    1        1.256   0.083   0.216  0.00  0.00    +0.164 C 
BRANCH  19  22
ATOM     20  C   LIG    1        3.852   1.584  -2.203  0.00  0.00    +0.019 A 
ATOM     21  C   LIG    1        3.273   1.049  -1.047  0.00  0.00    +0.057 A 
ATOM     22  C   LIG    1        1.915   0.662  -1.051  0.00  0.00    -0.010 A 
ATOM     23  C   LIG    1        1.173   0.829  -2.232  0.00  0.00    +0.006 A 
ATOM     24  C   LIG    1        1.759   1.363  -3.378  0.00  0.00    +0.000 A 
ATOM     25  C   LIG    1        3.098   1.741  -3.364  0.00  0.00    +0.001 A 
BRANCH  21  26
ATOM     26  C   LIG    1        4.119   0.906   0.135  0.00  0.00    +0.099 C 
ATOM     27  N   LIG    1        4.788   0.792   1.072  0.00  0.00    -0.191 NA
ENDBRANCH  21  26
ENDBRANCH  19  22
ENDBRANCH   1  19
TORSDOF 5
