REMARK  Name = DB06535
REMARK                            x       y       z     vdW  Elec       q    Type
REMARK                         _______ _______ _______ _____ _____    ______ ____
ROOT
ATOM      1  C   LIG    1        1.584  -0.012   0.245  0.00  0.00    +0.065 C 
ENDROOT
BRANCH   1   2
ATOM      2  C   LIG    1        2.127  -1.441   0.167  0.00  0.00    -0.042 A 
ATOM      3  C   LIG    1        1.812  -2.272  -0.915  0.00  0.00    +0.053 A 
ATOM      4  C   LIG    1        2.292  -3.582  -0.967  0.00  0.00    +0.158 A 
ATOM      5  C   LIG    1        3.103  -4.069   0.066  0.00  0.00    +0.158 A 
ATOM      6  C   LIG    1        3.430  -3.239   1.139  0.00  0.00    +0.049 A 
ATOM      7  C   LIG    1        2.947  -1.932   1.189  0.00  0.00    +0.007 A 
BRANCH   4   8
ATOM      8  O   LIG    1        1.956  -4.376  -2.034  0.00  0.00    -0.503 OA
ATOM      9  H   LIG    1        2.335  -5.256  -1.969  0.00  0.00    +0.292 HD
ENDBRANCH   4   8
BRANCH   5  10
ATOM     10  O   LIG    1        3.586  -5.353   0.040  0.00  0.00    -0.503 OA
ATOM     11  H   LIG    1        4.128  -5.563   0.804  0.00  0.00    +0.292 HD
ENDBRANCH   5  10
ENDBRANCH   1   2
BRANCH   1  12
ATOM     12  C   LIG    1        0.045   0.096   0.047  0.00  0.00    +0.165 C 
BRANCH  12  13
ATOM     13  N   LIG    1       -0.372   1.505  -0.068  0.00  0.00    -0.318 NA
ATOM     14  H   LIG    1       -0.126   2.023   0.763  0.00  0.00    +0.119 HD
ATOM     15  H   LIG    1       -1.375   1.577  -0.168  0.00  0.00    +0.119 HD
ENDBRANCH  12  13
BRANCH  12  16
ATOM     16  C   LIG    1       -0.699  -0.568   1.197  0.00  0.00    +0.324 C 
ATOM     17  O   LIG    1       -1.071   0.024   2.216  0.00  0.00    -0.249 OA
BRANCH  16  18
ATOM     18  O   LIG    1       -0.859  -1.890   0.965  0.00  0.00    -0.464 OA
BRANCH  18  20
ATOM     19  C   LIG    1       -1.323  -4.192   1.474  0.00  0.00    +0.048 C 
ATOM     20  C   LIG    1       -1.473  -2.736   1.926  0.00  0.00    +0.229 C 
ENDBRANCH  18  20
ENDBRANCH  16  18
ENDBRANCH  12  16
ENDBRANCH   1  12
TORSDOF 8
