REMARK  Name = DB06250
REMARK                            x       y       z     vdW  Elec       q    Type
REMARK                         _______ _______ _______ _____ _____    ______ ____
ROOT
ATOM      1  C   LIG    1       -0.198  -0.182  -0.003  0.00  0.00    +0.016 C 
ATOM      2  C   LIG    1        1.352  -0.059  -0.011  0.00  0.00    -0.008 C 
ATOM      3  C   LIG    1        1.885   0.705   1.264  0.00  0.00    +0.003 C 
ATOM      4  C   LIG    1        1.242   2.119   1.478  0.00  0.00    +0.005 C 
ATOM      5  C   LIG    1        1.744   2.838   2.754  0.00  0.00    +0.015 C 
ATOM      6  C   LIG    1        1.510   1.941   3.994  0.00  0.00    +0.032 C 
ATOM      7  C   LIG    1       -0.012   1.706   4.268  0.00  0.00    +0.019 C 
ATOM      8  C   LIG    1        2.110   2.421   5.329  0.00  0.00    +0.173 C 
ATOM      9  O   LIG    1        2.340   3.587   5.651  0.00  0.00    -0.294 OA
ATOM     10  C   LIG    1        2.437   1.162   6.156  0.00  0.00    +0.232 C 
ATOM     11  F   LIG    1        3.682   1.326   6.607  0.00  0.00    -0.237 F 
ATOM     12  C   LIG    1        2.390  -0.013   5.162  0.00  0.00    +0.049 C 
ATOM     13  C   LIG    1        2.333   0.651   3.787  0.00  0.00    +0.009 C 
ATOM     14  C   LIG    1        1.848  -0.172   2.560  0.00  0.00    +0.001 C 
ATOM     15  C   LIG    1        2.692  -1.459   2.400  0.00  0.00    +0.031 C 
ATOM     16  C   LIG    1        2.542  -2.071   1.019  0.00  0.00    -0.027 C 
ATOM     17  C   LIG    1        1.945  -1.496  -0.047  0.00  0.00    -0.067 C 
ATOM     18  C   LIG    1        1.787  -2.261  -1.367  0.00  0.00    +0.031 C 
ATOM     19  C   LIG    1        2.316  -1.434  -2.549  0.00  0.00    +0.004 C 
ATOM     20  C   LIG    1        1.645  -0.058  -2.618  0.00  0.00    +0.001 C 
ATOM     21  C   LIG    1        1.825   0.704  -1.293  0.00  0.00    +0.011 C 
ENDROOT
TORSDOF 0
