REMARK  Name = DB06321
REMARK                            x       y       z     vdW  Elec       q    Type
REMARK                         _______ _______ _______ _____ _____    ______ ____
ROOT
ATOM      1  C   LIG    1        2.275   0.700   0.939  0.00  0.00    +0.221 A 
ATOM      2  N   LIG    1        2.110   1.251   2.173  0.00  0.00    -0.196 NA
ATOM      3  C   LIG    1        3.200   1.802   2.769  0.00  0.00    +0.164 A 
ATOM      4  C   LIG    1        4.440   1.856   2.110  0.00  0.00    +0.181 A 
ATOM      5  F   LIG    1        5.522   2.472   2.643  0.00  0.00    -0.200 F 
ATOM      6  C   LIG    1        4.518   1.263   0.850  0.00  0.00    +0.156 A 
ATOM      7  N   LIG    1        3.448   0.674   0.255  0.00  0.00    -0.220 NA
ENDROOT
BRANCH   1   8
ATOM      8  N   LIG    1        1.194   0.074   0.298  0.00  0.00    -0.284 N 
ATOM      9  H   LIG    1        1.441  -0.368  -0.575  0.00  0.00    +0.155 HD
BRANCH   8  15
ATOM     10  C   LIG    1       -2.253  -1.280   0.365  0.00  0.00    +0.113 A 
ATOM     11  C   LIG    1       -2.918  -0.328   1.167  0.00  0.00    -0.024 A 
ATOM     12  C   LIG    1       -4.402  -0.423   1.503  0.00  0.00    +0.046 C 
ATOM     13  C   LIG    1       -2.201   0.759   1.677  0.00  0.00    +0.007 A 
ATOM     14  C   LIG    1       -0.844   0.912   1.405  0.00  0.00    +0.024 A 
ATOM     15  C   LIG    1       -0.171  -0.029   0.620  0.00  0.00    +0.035 A 
ATOM     16  C   LIG    1       -0.887  -1.108   0.098  0.00  0.00    +0.052 A 
BRANCH  10  17
ATOM     17  S   LIG    1       -3.092  -2.724  -0.340  0.00  0.00    +0.075 S 
ATOM     18  O   LIG    1       -4.306  -2.182  -0.962  0.00  0.00    -0.150 OA
ATOM     19  O   LIG    1       -2.112  -3.354  -1.235  0.00  0.00    -0.150 OA
BRANCH  17  21
ATOM     20  C   LIG    1       -3.998  -4.676   0.944  0.00  0.00    +0.232 C 
ATOM     21  N   LIG    1       -3.344  -3.541   0.979  0.00  0.00    -0.185 N 
ATOM     22  H   LIG    1       -3.008  -3.197   1.838  0.00  0.00    +0.177 HD
ATOM     23  O   LIG    1       -4.464  -5.219  -0.063  0.00  0.00    -0.274 OA
BRANCH  20  25
ATOM     24  C   LIG    1       -4.979  -6.699   2.258  0.00  0.00    +0.013 C 
ATOM     25  C   LIG    1       -4.191  -5.375   2.304  0.00  0.00    +0.094 C 
ENDBRANCH  20  25
ENDBRANCH  17  21
ENDBRANCH  10  17
ENDBRANCH   8  15
ENDBRANCH   1   8
BRANCH   3  26
ATOM     26  N   LIG    1        2.971   2.416   4.010  0.00  0.00    -0.297 N 
ATOM     27  H   LIG    1        2.000   2.626   4.187  0.00  0.00    +0.154 HD
BRANCH  26  28
ATOM     28  C   LIG    1        3.774   2.434   5.162  0.00  0.00    +0.033 A 
ATOM     29  C   LIG    1        4.798   1.504   5.370  0.00  0.00    +0.027 A 
ATOM     30  C   LIG    1        5.560   1.550   6.534  0.00  0.00    +0.047 A 
ATOM     31  C   LIG    1        5.301   2.524   7.511  0.00  0.00    +0.122 A 
ATOM     32  C   LIG    1        4.269   3.440   7.302  0.00  0.00    +0.047 A 
ATOM     33  C   LIG    1        3.507   3.394   6.138  0.00  0.00    +0.027 A 
BRANCH  31  34
ATOM     34  O   LIG    1        6.004   2.647   8.694  0.00  0.00    -0.480 OA
BRANCH  34  35
ATOM     35  C   LIG    1        7.079   1.753   8.965  0.00  0.00    +0.317 C 
BRANCH  35  36
ATOM     36  C   LIG    1        7.707   2.033  10.265  0.00  0.00    -0.065 C 
ATOM     37  C   LIG    1        8.229   2.254  11.347  0.00  0.00    +0.007 C 
ENDBRANCH  35  36
ENDBRANCH  34  35
ENDBRANCH  31  34
ENDBRANCH  26  28
ENDBRANCH   3  26
TORSDOF 10
