REMARK  Name = DB06272
REMARK                            x       y       z     vdW  Elec       q    Type
REMARK                         _______ _______ _______ _____ _____    ______ ____
ROOT
ATOM      1  C   LIG    1        1.647   5.531  -1.682  0.00  0.00    -0.000 C 
ATOM      2  C   LIG    1        0.645   4.647  -1.899  0.00  0.00    -0.066 C 
ATOM      3  C   LIG    1        0.111   3.692  -0.821  0.00  0.00    +0.021 C 
ATOM      4  C   LIG    1        0.285   2.215  -1.251  0.00  0.00    -0.020 C 
ATOM      5  C   LIG    1       -0.290   1.512   0.019  0.00  0.00    +0.024 C 
ATOM      6  C   LIG    1        0.184   2.381   1.216  0.00  0.00    +0.007 C 
ATOM      7  C   LIG    1       -0.572   2.003  -2.526  0.00  0.00    +0.008 C 
ATOM      8  C   LIG    1       -0.134   2.957  -3.662  0.00  0.00    +0.005 C 
ATOM      9  C   LIG    1        1.776   1.831  -1.516  0.00  0.00    +0.012 C 
ATOM     10  C   LIG    1        0.622   3.734   0.627  0.00  0.00    +0.009 C 
ATOM     11  C   LIG    1       -0.111   4.447  -3.227  0.00  0.00    +0.031 C 
ENDROOT
BRANCH   1  19
ATOM     12  C   LIG    1        3.880   7.742  -4.812  0.00  0.00    +0.015 C 
ATOM     13  C   LIG    1        3.682   8.189  -3.555  0.00  0.00    -0.023 C 
ATOM     14  C   LIG    1        3.917   9.653  -3.185  0.00  0.00    +0.147 C 
ATOM     15  C   LIG    1        4.807   9.727  -1.921  0.00  0.00    +0.067 C 
ATOM     16  C   LIG    1        4.293   8.834  -0.767  0.00  0.00    +0.122 C 
ATOM     17  C   LIG    1        4.099   7.362  -1.202  0.00  0.00    +0.067 C 
ATOM     18  C   LIG    1        3.252   7.294  -2.479  0.00  0.00    -0.040 C 
ATOM     19  C   LIG    1        2.187   6.473  -2.656  0.00  0.00    +0.004 C 
BRANCH  14  20
ATOM     20  O   LIG    1        2.682  10.309  -2.975  0.00  0.00    -0.387 OA
ATOM     21  H   LIG    1        2.244   9.899  -2.226  0.00  0.00    +0.210 HD
ENDBRANCH  14  20
BRANCH  16  22
ATOM     22  O   LIG    1        5.151   8.918   0.352  0.00  0.00    -0.391 OA
ATOM     23  H   LIG    1        6.015   8.582   0.100  0.00  0.00    +0.210 HD
ENDBRANCH  16  22
ENDBRANCH   1  19
BRANCH   5  24
ATOM     24  C   LIG    1       -0.036  -0.016   0.162  0.00  0.00    +0.119 C 
ATOM     25  C   LIG    1       -0.922  -0.649   1.255  0.00  0.00    +0.038 C 
BRANCH  24  26
ATOM     26  O   LIG    1        1.343  -0.256   0.442  0.00  0.00    -0.376 OA
BRANCH  26  27
ATOM     27  C   LIG    1        1.814  -1.578   0.206  0.00  0.00    +0.163 C 
BRANCH  27  28
ATOM     28  C   LIG    1        3.343  -1.581   0.392  0.00  0.00    +0.062 C 
BRANCH  28  29
ATOM     29  C   LIG    1        4.053  -2.943   0.171  0.00  0.00    +0.063 C 
ATOM     30  C   LIG    1        3.861  -3.477  -1.265  0.00  0.00    +0.041 C 
ATOM     31  C   LIG    1        3.585  -4.011   1.183  0.00  0.00    +0.041 C 
BRANCH  29  32
ATOM     32  O   LIG    1        5.440  -2.745   0.372  0.00  0.00    -0.389 OA
ATOM     33  H   LIG    1        5.749  -2.094  -0.262  0.00  0.00    +0.210 HD
ENDBRANCH  29  32
ENDBRANCH  28  29
ENDBRANCH  27  28
ENDBRANCH  26  27
ENDBRANCH  24  26
ENDBRANCH   5  24
TORSDOF 9
