REMARK  Name = DB06444
REMARK                            x       y       z     vdW  Elec       q    Type
REMARK                         _______ _______ _______ _____ _____    ______ ____
ROOT
ATOM      1  C   LIG    1        2.235   0.754  -1.149  0.00  0.00    -0.035 A 
ATOM      2  C   LIG    1        1.864   0.328  -2.429  0.00  0.00    +0.050 A 
ATOM      3  C   LIG    1        2.335   0.977  -3.568  0.00  0.00    +0.128 A 
ATOM      4  O   LIG    1        1.877   0.456  -4.763  0.00  0.00    -0.486 OA
ATOM      5  C   LIG    1        1.805   1.353  -5.881  0.00  0.00    +0.109 C 
ATOM      6  C   LIG    1        0.714   2.427  -5.633  0.00  0.00    +0.055 C 
ATOM      7  C   LIG    1        1.466   0.428  -7.069  0.00  0.00    +0.055 C 
ATOM      8  C   LIG    1        3.234   1.958  -6.044  0.00  0.00    +0.044 C 
ATOM      9  C   LIG    1        3.461   2.782  -7.344  0.00  0.00    +0.035 C 
ATOM     10  C   LIG    1        4.777   3.551  -7.309  0.00  0.00    -0.025 C 
ATOM     11  C   LIG    1        5.578   3.679  -6.228  0.00  0.00    -0.048 C 
ATOM     12  C   LIG    1        5.240   2.981  -4.907  0.00  0.00    +0.041 C 
ATOM     13  C   LIG    1        3.708   2.741  -4.786  0.00  0.00    +0.037 C 
ATOM     14  C   LIG    1        3.231   2.061  -3.487  0.00  0.00    +0.039 A 
ATOM     15  C   LIG    1        3.573   2.504  -2.196  0.00  0.00    +0.124 A 
ATOM     16  C   LIG    1        3.095   1.857  -1.055  0.00  0.00    +0.050 A 
ENDROOT
BRANCH   1  17
ATOM     17  C   LIG    1        1.668   0.023   0.097  0.00  0.00    -0.010 C 
ATOM     18  C   LIG    1        2.143  -1.453   0.073  0.00  0.00    +0.016 C 
ATOM     19  C   LIG    1        2.163   0.631   1.440  0.00  0.00    +0.016 C 
BRANCH  17  20
ATOM     20  C   LIG    1        0.107   0.041   0.081  0.00  0.00    +0.011 C 
BRANCH  20  21
ATOM     21  C   LIG    1       -0.558   1.437   0.038  0.00  0.00    +0.001 C 
BRANCH  21  22
ATOM     22  C   LIG    1       -2.094   1.364  -0.031  0.00  0.00    +0.000 C 
BRANCH  22  23
ATOM     23  C   LIG    1       -2.759   2.753  -0.064  0.00  0.00    -0.000 C 
BRANCH  23  25
ATOM     24  C   LIG    1       -5.042   2.089   0.954  0.00  0.00    +0.004 C 
ATOM     25  C   LIG    1       -4.291   2.717  -0.231  0.00  0.00    -0.003 C 
ENDBRANCH  23  25
ENDBRANCH  22  23
ENDBRANCH  21  22
ENDBRANCH  20  21
ENDBRANCH  17  20
ENDBRANCH   1  17
BRANCH  15  26
ATOM     26  O   LIG    1        4.357   3.612  -2.006  0.00  0.00    -0.506 OA
ATOM     27  H   LIG    1        4.504   3.811  -1.079  0.00  0.00    +0.292 HD
ENDBRANCH  15  26
BRANCH  11  28
ATOM     28  C   LIG    1        6.919   4.394  -6.324  0.00  0.00    +0.186 C 
BRANCH  28  29
ATOM     29  O   LIG    1        6.953   5.457  -5.395  0.00  0.00    -0.391 OA
ATOM     30  H   LIG    1        7.814   5.879  -5.446  0.00  0.00    +0.210 HD
ENDBRANCH  28  29
ENDBRANCH  11  28
TORSDOF 9
