REMARK  Name = DB06499
REMARK                            x       y       z     vdW  Elec       q    Type
REMARK                         _______ _______ _______ _____ _____    ______ ____
ROOT
ATOM      1  C   LIG    1       -0.747   1.175  -0.012  0.00  0.00    +0.139 A 
ATOM      2  C   LIG    1       -0.013  -0.024   0.000  0.00  0.00    +0.009 A 
ATOM      3  C   LIG    1       -0.772  -1.202   0.018  0.00  0.00    +0.008 A 
ATOM      4  C   LIG    1       -2.167  -1.182   0.025  0.00  0.00    +0.001 A 
ATOM      5  C   LIG    1       -2.876   0.020   0.014  0.00  0.00    +0.012 A 
ATOM      6  C   LIG    1       -2.164   1.232  -0.010  0.00  0.00    +0.028 A 
ATOM      7  C   LIG    1       -2.497   2.634  -0.026  0.00  0.00    +0.028 A 
ATOM      8  C   LIG    1       -1.268   3.287  -0.022  0.00  0.00    +0.204 A 
ATOM      9  O   LIG    1       -0.213   2.430  -0.018  0.00  0.00    -0.462 OA
ENDROOT
BRANCH   7  10
ATOM     10  C   LIG    1       -3.846   3.275  -0.043  0.00  0.00    -0.014 A 
ATOM     11  C   LIG    1       -4.935   2.642  -0.652  0.00  0.00    +0.008 A 
ATOM     12  C   LIG    1       -6.194   3.238  -0.632  0.00  0.00    +0.001 A 
ATOM     13  C   LIG    1       -6.367   4.465   0.004  0.00  0.00    +0.000 A 
ATOM     14  C   LIG    1       -5.292   5.101   0.620  0.00  0.00    +0.001 A 
ATOM     15  C   LIG    1       -4.034   4.505   0.598  0.00  0.00    +0.008 A 
ENDBRANCH   7  10
BRANCH   2  16
ATOM     16  C   LIG    1        1.522  -0.081   0.009  0.00  0.00    +0.128 C 
ATOM     17  C   LIG    1        2.070  -0.747   1.298  0.00  0.00    +0.024 C 
BRANCH  16  18
ATOM     18  C   LIG    1        2.054  -0.702  -1.319  0.00  0.00    +0.312 C 
ATOM     19  O   LIG    1        1.866  -0.044  -2.370  0.00  0.00    -0.250 OA
BRANCH  18  20
ATOM     20  O   LIG    1        2.647  -1.807  -1.294  0.00  0.00    -0.480 OA
ATOM     21  H   LIG    1        2.761  -2.259  -0.481  0.00  0.00    +0.295 HD
ENDBRANCH  18  20
ENDBRANCH  16  18
ENDBRANCH   2  16
TORSDOF 4
