REMARK  Name = DB06446
REMARK                            x       y       z     vdW  Elec       q    Type
REMARK                         _______ _______ _______ _____ _____    ______ ____
ROOT
ATOM      1  N   LIG    1       -0.484   0.100   0.239  0.00  0.00    -0.306 NA
ATOM      2  C   LIG    1       -1.229  -0.615  -0.804  0.00  0.00    +0.066 C 
ATOM      3  C   LIG    1       -0.779  -0.220  -2.232  0.00  0.00    -0.062 C 
ATOM      4  N   LIG    1       -0.961   1.309  -2.423  0.00  0.00    +0.389 N 
ATOM      5  H   LIG    1       -1.940   1.522  -2.298  0.00  0.00    -0.080 HD
ATOM      6  C   LIG    1       -0.172   2.046  -1.308  0.00  0.00    -0.062 C 
ATOM      7  C   LIG    1       -0.667   1.548   0.071  0.00  0.00    +0.066 C 
ENDROOT
BRANCH   1   8
ATOM      8  C   LIG    1        0.902  -0.368   0.387  0.00  0.00    +0.084 C 
BRANCH   8   9
ATOM      9  C   LIG    1        1.636   0.217   1.613  0.00  0.00    +0.021 C 
BRANCH   9  10
ATOM     10  C   LIG    1        0.944  -0.067   2.966  0.00  0.00    +0.071 C 
BRANCH  10  15
ATOM     11  O   LIG    1        1.740   1.880   4.051  0.00  0.00    -0.342 OA
ATOM     12  C   LIG    1        1.438   2.497   5.287  0.00  0.00    +0.191 C 
ATOM     13  C   LIG    1        1.064   1.333   6.199  0.00  0.00    +0.191 C 
ATOM     14  O   LIG    1        0.963   0.241   5.312  0.00  0.00    -0.342 OA
ATOM     15  C   LIG    1        1.716   0.490   4.169  0.00  0.00    +0.197 C 
BRANCH  15  16
ATOM     16  C   LIG    1        3.147  -0.091   4.374  0.00  0.00    +0.011 A 
ATOM     17  C   LIG    1        3.330  -1.480   4.370  0.00  0.00    +0.009 A 
ATOM     18  C   LIG    1        4.596  -2.026   4.562  0.00  0.00    +0.000 A 
ATOM     19  C   LIG    1        5.686  -1.185   4.764  0.00  0.00    +0.000 A 
ATOM     20  C   LIG    1        5.520   0.197   4.777  0.00  0.00    +0.000 A 
ATOM     21  C   LIG    1        4.254   0.743   4.586  0.00  0.00    +0.009 A 
ENDBRANCH  15  16
ENDBRANCH  10  15
ENDBRANCH   9  10
ENDBRANCH   8   9
ENDBRANCH   1   8
BRANCH   4  22
ATOM     22  C   LIG    1       -0.531   1.781  -3.845  0.00  0.00    -0.007 C 
BRANCH  22  23
ATOM     23  C   LIG    1       -1.152   0.963  -4.982  0.00  0.00    -0.057 A 
ATOM     24  C   LIG    1       -2.541   0.932  -5.160  0.00  0.00    +0.002 A 
ATOM     25  C   LIG    1       -3.097   0.174  -6.186  0.00  0.00    +0.000 A 
ATOM     26  C   LIG    1       -2.266  -0.556  -7.033  0.00  0.00    +0.000 A 
ATOM     27  C   LIG    1       -0.884  -0.534  -6.863  0.00  0.00    +0.000 A 
ATOM     28  C   LIG    1       -0.327   0.224  -5.837  0.00  0.00    +0.002 A 
ENDBRANCH  22  23
BRANCH  22  29
ATOM     29  C   LIG    1       -0.690   3.289  -4.081  0.00  0.00    -0.057 A 
ATOM     30  C   LIG    1       -1.859   3.959  -3.698  0.00  0.00    +0.002 A 
ATOM     31  C   LIG    1       -1.981   5.329  -3.910  0.00  0.00    +0.000 A 
ATOM     32  C   LIG    1       -0.934   6.032  -4.500  0.00  0.00    +0.000 A 
ATOM     33  C   LIG    1        0.235   5.377  -4.880  0.00  0.00    +0.000 A 
ATOM     34  C   LIG    1        0.357   4.006  -4.668  0.00  0.00    +0.002 A 
ENDBRANCH  22  29
ENDBRANCH   4  22
TORSDOF 8
