REMARK  Name = DB06013
REMARK                            x       y       z     vdW  Elec       q    Type
REMARK                         _______ _______ _______ _____ _____    ______ ____
ROOT
ATOM      1  C   LIG    1       -2.422  -0.244  -1.584  0.00  0.00    +0.158 C 
ATOM      2  C   LIG    1       -2.943  -0.707  -0.207  0.00  0.00    +0.030 A 
ATOM      3  C   LIG    1       -4.313  -0.963  -0.030  0.00  0.00    +0.134 A 
ATOM      4  C   LIG    1       -4.865  -1.277   1.233  0.00  0.00    +0.078 A 
ATOM      5  C   LIG    1       -6.350  -1.558   1.400  0.00  0.00    +0.202 C 
ATOM      6  O   LIG    1       -7.168  -1.269   0.523  0.00  0.00    -0.286 OA
ATOM      7  C   LIG    1       -6.755  -2.356   2.616  0.00  0.00    +0.075 A 
ATOM      8  C   LIG    1       -7.980  -3.070   2.665  0.00  0.00    +0.132 A 
ATOM      9  C   LIG    1       -8.314  -3.780   3.831  0.00  0.00    +0.046 A 
ATOM     10  C   LIG    1       -7.463  -3.797   4.926  0.00  0.00    +0.004 A 
ATOM     11  C   LIG    1       -6.259  -3.111   4.877  0.00  0.00    +0.012 A 
ATOM     12  C   LIG    1       -5.887  -2.389   3.734  0.00  0.00    +0.037 A 
ATOM     13  C   LIG    1       -4.566  -1.678   3.723  0.00  0.00    +0.198 C 
ATOM     14  O   LIG    1       -3.928  -1.528   4.769  0.00  0.00    -0.286 OA
ATOM     15  C   LIG    1       -4.003  -1.332   2.357  0.00  0.00    +0.078 A 
ATOM     16  C   LIG    1       -2.624  -1.081   2.171  0.00  0.00    +0.132 A 
ATOM     17  C   LIG    1       -2.087  -0.763   0.913  0.00  0.00    +0.007 A 
ATOM     18  C   LIG    1       -0.570  -0.544   0.747  0.00  0.00    +0.080 C 
ATOM     19  C   LIG    1       -0.167   0.340  -0.470  0.00  0.00    +0.114 C 
ATOM     20  C   LIG    1       -0.878  -0.279  -1.696  0.00  0.00    +0.078 C 
ENDROOT
BRANCH   3  21
ATOM     21  O   LIG    1       -5.109  -0.897  -1.154  0.00  0.00    -0.506 OA
ATOM     22  H   LIG    1       -6.032  -1.082  -0.964  0.00  0.00    +0.292 HD
ENDBRANCH   3  21
BRANCH   8  23
ATOM     23  O   LIG    1       -8.812  -3.058   1.556  0.00  0.00    -0.494 OA
ATOM     24  C   LIG    1      -10.047  -3.768   1.573  0.00  0.00    +0.277 C 
ENDBRANCH   8  23
BRANCH  16  25
ATOM     25  O   LIG    1       -1.742  -1.170   3.225  0.00  0.00    -0.506 OA
ATOM     26  H   LIG    1       -0.833  -0.991   2.972  0.00  0.00    +0.292 HD
ENDBRANCH  16  25
BRANCH  19  27
ATOM     27  O   LIG    1       -0.636   1.658  -0.225  0.00  0.00    -0.382 OA
ATOM     28  H   LIG    1       -1.590   1.623  -0.122  0.00  0.00    +0.211 HD
ENDBRANCH  19  27
BRANCH  19  29
ATOM     29  C   LIG    1        1.371   0.340  -0.725  0.00  0.00    +0.094 C 
ATOM     30  N   LIG    1        2.136  -0.480  -0.099  0.00  0.00    -0.184 NA
BRANCH  30  31
ATOM     31  N   LIG    1        3.467  -0.342  -0.275  0.00  0.00    -0.207 N 
ATOM     32  H   LIG    1        3.751   0.406  -0.892  0.00  0.00    +0.177 HD
ATOM     33  C   LIG    1        4.359  -1.166   0.307  0.00  0.00    +0.232 C 
ATOM     34  O   LIG    1        4.056  -2.090   1.067  0.00  0.00    -0.274 OA
BRANCH  33  35
ATOM     35  C   LIG    1        5.838  -0.902  -0.010  0.00  0.00    +0.097 C 
BRANCH  35  36
ATOM     36  C   LIG    1        6.559  -2.144  -0.576  0.00  0.00    +0.009 C 
BRANCH  36  37
ATOM     37  C   LIG    1        8.063  -1.909  -0.794  0.00  0.00    +0.002 C 
BRANCH  37  38
ATOM     38  C   LIG    1        8.777  -3.127  -1.411  0.00  0.00    +0.019 C 
BRANCH  38  39
ATOM     39  C   LIG    1       10.280  -2.910  -1.686  0.00  0.00    +0.117 C 
BRANCH  39  40
ATOM     40  N   LIG    1       11.092  -2.698  -0.476  0.00  0.00    -0.235 N 
ATOM     41  C   LIG    1       11.531  -3.704   0.303  0.00  0.00    +0.246 C 
ATOM     42  O   LIG    1       11.331  -4.910   0.153  0.00  0.00    -0.270 OA
ATOM     43  C   LIG    1       12.279  -3.070   1.344  0.00  0.00    +0.073 C 
ATOM     44  C   LIG    1       12.259  -1.750   1.136  0.00  0.00    +0.073 C 
ATOM     45  C   LIG    1       11.499  -1.488  -0.046  0.00  0.00    +0.246 C 
ATOM     46  O   LIG    1       11.262  -0.393  -0.556  0.00  0.00    -0.270 OA
ENDBRANCH  39  40
ENDBRANCH  38  39
ENDBRANCH  37  38
ENDBRANCH  36  37
ENDBRANCH  35  36
ENDBRANCH  33  35
ENDBRANCH  30  31
BRANCH  29  47
ATOM     47  C   LIG    1        1.842   1.387  -1.766  0.00  0.00    +0.211 C 
BRANCH  47  48
ATOM     48  O   LIG    1        2.531   0.757  -2.831  0.00  0.00    -0.389 OA
ATOM     49  H   LIG    1        1.959   0.088  -3.214  0.00  0.00    +0.210 HD
ENDBRANCH  47  48
ENDBRANCH  29  47
ENDBRANCH  19  29
BRANCH   1  50
ATOM     50  O   LIG    1       -2.981   1.045  -1.856  0.00  0.00    -0.343 OA
BRANCH  50  54
ATOM     51  C   LIG    1       -0.822   4.595  -2.622  0.00  0.00    +0.040 C 
ATOM     52  C   LIG    1       -2.075   3.707  -2.523  0.00  0.00    +0.145 C 
ATOM     53  O   LIG    1       -1.855   2.500  -3.273  0.00  0.00    -0.346 OA
ATOM     54  C   LIG    1       -2.871   1.528  -3.166  0.00  0.00    +0.250 C 
ATOM     55  C   LIG    1       -4.233   2.102  -3.582  0.00  0.00    +0.048 C 
ATOM     56  C   LIG    1       -4.543   3.403  -2.819  0.00  0.00    -0.039 C 
ATOM     57  C   LIG    1       -3.384   4.422  -2.940  0.00  0.00    +0.129 C 
BRANCH  56  58
ATOM     58  N   LIG    1       -5.859   3.994  -3.359  0.00  0.00    +0.382 N 
ATOM     59  H   LIG    1       -6.609   3.325  -3.263  0.00  0.00    -0.090 HD
ATOM     60  H   LIG    1       -6.101   4.832  -2.850  0.00  0.00    -0.090 HD
ATOM     61  H   LIG    1       -5.753   4.229  -4.336  0.00  0.00    -0.090 HD
ENDBRANCH  56  58
BRANCH  57  62
ATOM     62  O   LIG    1       -3.263   5.019  -4.226  0.00  0.00    -0.391 OA
ATOM     63  H   LIG    1       -2.606   5.718  -4.178  0.00  0.00    +0.210 HD
ENDBRANCH  57  62
ENDBRANCH  50  54
ENDBRANCH   1  50
TORSDOF 18
