REMARK  Name = DB06690
REMARK                            x       y       z     vdW  Elec       q    Type
REMARK                         _______ _______ _______ _____ _____    ______ ____
ROOT
ATOM      1  N   LIG    1        0.004   0.025  -0.016  0.00  0.00    -0.070 NA
ATOM      2  O   LIG    1       -0.148  -1.172  -0.101  0.00  0.00    -0.051 OA
ATOM      3  N   LIG    1        0.144   1.148   0.117  0.00  0.00    -0.108 NA
ATOM      4  H   LIG    1        0.073   1.550   1.012  0.00  0.00    +0.230 HD
ENDROOT
TORSDOF 0
