REMARK  Name = DB06764
REMARK                            x       y       z     vdW  Elec       q    Type
REMARK                         _______ _______ _______ _____ _____    ______ ____
ROOT
ATOM      1  C   LIG    1       -0.419   2.110  -1.469  0.00  0.00    +0.006 C 
ATOM      2  C   LIG    1       -1.341   1.327  -2.414  0.00  0.00    +0.035 C 
ATOM      3  C   LIG    1       -1.088  -0.181  -2.374  0.00  0.00    -0.043 A 
ATOM      4  C   LIG    1       -1.502  -0.975  -3.451  0.00  0.00    +0.004 A 
ATOM      5  C   LIG    1       -1.348  -2.358  -3.434  0.00  0.00    +0.000 A 
ATOM      6  C   LIG    1       -0.773  -2.972  -2.329  0.00  0.00    +0.000 A 
ATOM      7  C   LIG    1       -0.344  -2.197  -1.255  0.00  0.00    +0.005 A 
ATOM      8  C   LIG    1       -0.476  -0.800  -1.256  0.00  0.00    -0.030 A 
ATOM      9  C   LIG    1        0.074   0.021  -0.070  0.00  0.00    +0.134 C 
ATOM     10  C   LIG    1       -0.448   1.482  -0.069  0.00  0.00    +0.020 C 
ENDROOT
BRANCH   9  11
ATOM     11  C   LIG    1        1.612   0.004  -0.019  0.00  0.00    +0.289 C 
ATOM     12  N   LIG    1        2.229   0.141   1.205  0.00  0.00    -0.233 N 
ATOM     13  H   LIG    1        1.914  -0.154   2.118  0.00  0.00    +0.291 HD
ATOM     14  C   LIG    1        3.643  -0.068   1.051  0.00  0.00    +0.273 C 
ATOM     15  C   LIG    1        3.761  -0.058  -0.467  0.00  0.00    +0.333 C 
ATOM     16  N   LIG    1        2.421  -0.154  -0.991  0.00  0.00    -0.083 NA
ENDBRANCH   9  11
TORSDOF 1
