REMARK  Name = DB06191
REMARK                            x       y       z     vdW  Elec       q    Type
REMARK                         _______ _______ _______ _____ _____    ______ ____
ROOT
ATOM      1  C   LIG    1       -1.964   1.397   0.027  0.00  0.00    -0.063 C 
ATOM      2  N   LIG    1       -0.418   1.362  -0.045  0.00  0.00    +0.383 N 
ATOM      3  H   LIG    1       -0.068   1.836   0.775  0.00  0.00    -0.082 HD
ATOM      4  C   LIG    1        0.059   2.140  -1.296  0.00  0.00    -0.063 C 
ATOM      5  C   LIG    1       -0.523   3.574  -1.244  0.00  0.00    +0.067 C 
ATOM      6  N   LIG    1       -1.996   3.588  -1.206  0.00  0.00    -0.295 NA
ATOM      7  C   LIG    1       -2.432   2.873   0.006  0.00  0.00    +0.067 C 
ENDROOT
BRANCH   6   8
ATOM      8  C   LIG    1       -2.666   3.173  -2.463  0.00  0.00    +0.118 C 
ATOM      9  C   LIG    1       -2.192   3.943  -3.707  0.00  0.00    -0.022 A 
ATOM     10  C   LIG    1       -1.608   3.247  -4.774  0.00  0.00    +0.006 A 
ATOM     11  C   LIG    1       -1.176   3.912  -5.919  0.00  0.00    +0.000 A 
ATOM     12  C   LIG    1       -1.321   5.291  -6.014  0.00  0.00    +0.000 A 
ATOM     13  C   LIG    1       -1.895   6.000  -4.962  0.00  0.00    +0.004 A 
ATOM     14  C   LIG    1       -2.335   5.345  -3.806  0.00  0.00    -0.033 A 
ATOM     15  C   LIG    1       -2.932   6.157  -2.662  0.00  0.00    +0.102 C 
ATOM     16  C   LIG    1       -4.253   6.871  -2.825  0.00  0.00    +0.264 C 
ATOM     17  F   LIG    1       -4.366   8.095  -2.311  0.00  0.00    -0.204 F 
ATOM     18  F   LIG    1       -4.932   6.702  -3.961  0.00  0.00    -0.204 F 
ATOM     19  C   LIG    1       -4.155   5.710  -1.864  0.00  0.00    +0.102 C 
ATOM     20  C   LIG    1       -4.901   4.408  -2.134  0.00  0.00    -0.033 A 
ATOM     21  C   LIG    1       -6.299   4.393  -2.093  0.00  0.00    +0.004 A 
ATOM     22  C   LIG    1       -7.011   3.216  -2.312  0.00  0.00    +0.000 A 
ATOM     23  C   LIG    1       -6.327   2.034  -2.570  0.00  0.00    +0.000 A 
ATOM     24  C   LIG    1       -4.935   2.034  -2.611  0.00  0.00    +0.006 A 
ATOM     25  C   LIG    1       -4.201   3.209  -2.398  0.00  0.00    -0.022 A 
ENDBRANCH   6   8
BRANCH   2  26
ATOM     26  C   LIG    1        0.081  -0.106  -0.034  0.00  0.00    -0.044 C 
BRANCH  26  27
ATOM     27  C   LIG    1        1.622  -0.223   0.076  0.00  0.00    +0.135 C 
BRANCH  27  28
ATOM     28  O   LIG    1        2.099   0.520   1.186  0.00  0.00    -0.390 OA
ATOM     29  H   LIG    1        1.915   1.450   1.040  0.00  0.00    +0.210 HD
ENDBRANCH  27  28
BRANCH  27  30
ATOM     30  C   LIG    1        2.065  -1.690   0.244  0.00  0.00    +0.258 C 
BRANCH  30  31
ATOM     31  O   LIG    1        3.482  -1.783   0.110  0.00  0.00    -0.489 OA
BRANCH  31  32
ATOM     32  C   LIG    1        4.101  -3.018   0.202  0.00  0.00    +0.130 A 
ATOM     33  C   LIG    1        5.520  -3.062   0.065  0.00  0.00    +0.042 A 
ATOM     34  C   LIG    1        6.312  -1.901  -0.157  0.00  0.00    +0.015 A 
ATOM     35  C   LIG    1        7.694  -2.019  -0.281  0.00  0.00    +0.020 A 
ATOM     36  C   LIG    1        8.270  -3.281  -0.183  0.00  0.00    +0.111 A 
ATOM     37  N   LIG    1        7.558  -4.414   0.028  0.00  0.00    -0.255 NA
ATOM     38  C   LIG    1        6.204  -4.316   0.151  0.00  0.00    +0.074 A 
ATOM     39  C   LIG    1        5.461  -5.497   0.371  0.00  0.00    +0.028 A 
ATOM     40  C   LIG    1        4.079  -5.437   0.500  0.00  0.00    +0.006 A 
ATOM     41  C   LIG    1        3.410  -4.221   0.419  0.00  0.00    +0.046 A 
ENDBRANCH  31  32
ENDBRANCH  30  31
ENDBRANCH  27  30
ENDBRANCH  26  27
ENDBRANCH   2  26
TORSDOF 7
