REMARK  Name = DB06091
REMARK                            x       y       z     vdW  Elec       q    Type
REMARK                         _______ _______ _______ _____ _____    ______ ____
ROOT
ATOM      1  O   LIG    1        0.175   0.447   0.683  0.00  0.00    -0.299 OA
ENDROOT
BRANCH   1   2
ATOM      2  P   LIG    1        1.800   0.489   0.562  0.00  0.00    +0.344 P 
ATOM      3  O   LIG    1        2.354   1.837   0.263  0.00  0.00    -0.254 OA
BRANCH   2   4
ATOM      4  N   LIG    1        2.133  -0.732  -0.573  0.00  0.00    -0.232 NA
ATOM      5  H   LIG    1        1.536  -1.560  -0.573  0.00  0.00    +0.133 HD
BRANCH   4   6
ATOM      6  C   LIG    1        3.477  -0.949  -1.095  0.00  0.00    +0.102 C 
BRANCH   6   7
ATOM      7  C   LIG    1        3.513  -1.880  -2.314  0.00  0.00    +0.095 C 
ATOM      8 BR   LIG    1        2.475  -1.097  -3.825  0.00  0.00    -0.090 Br
ENDBRANCH   6   7
ENDBRANCH   4   6
ENDBRANCH   2   4
BRANCH   2   9
ATOM      9  N   LIG    1        2.318  -0.229   2.017  0.00  0.00    -0.232 NA
ATOM     10  H   LIG    1        3.322  -0.363   2.148  0.00  0.00    +0.133 HD
BRANCH   9  11
ATOM     11  C   LIG    1        1.477  -1.110   2.827  0.00  0.00    +0.102 C 
BRANCH  11  12
ATOM     12  C   LIG    1        1.165  -2.473   2.188  0.00  0.00    +0.095 C 
ATOM     13 BR   LIG    1        2.845  -3.476   1.802  0.00  0.00    -0.090 Br
ENDBRANCH  11  12
ENDBRANCH   9  11
ENDBRANCH   2   9
ENDBRANCH   1   2
BRANCH   1  14
ATOM     14  C   LIG    1       -0.632   0.948  -0.367  0.00  0.00    +0.225 C 
BRANCH  14  20
ATOM     15  C   LIG    1       -2.127   2.420   1.917  0.00  0.00    +0.152 C 
ATOM     16  N   LIG    1       -2.726   1.426   1.026  0.00  0.00    -0.310 N 
ATOM     17  C   LIG    1       -4.030   0.947   1.010  0.00  0.00    +0.286 A 
ATOM     18  N   LIG    1       -4.226   0.053   0.065  0.00  0.00    -0.215 NA
ATOM     19  C   LIG    1       -3.064  -0.066  -0.542  0.00  0.00    +0.138 A 
ATOM     20  C   LIG    1       -2.088   0.756  -0.000  0.00  0.00    +0.066 A 
BRANCH  17  21
ATOM     21  N   LIG    1       -5.058   1.378   1.929  0.00  0.00    +0.043 N 
ATOM     22  O   LIG    1       -4.784   2.181   2.814  0.00  0.00    -0.127 OA
BRANCH  21  23
ATOM     23  O   LIG    1       -6.181   0.905   1.778  0.00  0.00    -0.394 OA
ATOM     24  H   LIG    1       -6.344   0.294   1.086  0.00  0.00    +0.329 HD
ENDBRANCH  21  23
ENDBRANCH  17  21
ENDBRANCH  14  20
ENDBRANCH   1  14
TORSDOF 11
