REMARK  Name = DB06293
REMARK                            x       y       z     vdW  Elec       q    Type
REMARK                         _______ _______ _______ _____ _____    ______ ____
ROOT
ATOM      1  C   LIG    1        1.370   0.145  -0.325  0.00  0.00    +0.162 C 
ENDROOT
BRANCH   1   2
ATOM      2  N   LIG    1        1.765  -1.270  -0.404  0.00  0.00    -0.270 N 
ATOM      3  H   LIG    1        1.178  -1.907  -0.922  0.00  0.00    +0.153 HD
ATOM      4  C   LIG    1        3.002  -1.705   0.059  0.00  0.00    +0.401 C 
ATOM      5  O   LIG    1        3.837  -1.027   0.663  0.00  0.00    -0.226 OA
BRANCH   4   6
ATOM      6  O   LIG    1        3.168  -2.990  -0.306  0.00  0.00    -0.448 OA
BRANCH   6   7
ATOM      7  C   LIG    1        4.425  -3.641  -0.153  0.00  0.00    +0.262 C 
BRANCH   7   8
ATOM      8  C   LIG    1        4.573  -4.765  -1.187  0.00  0.00    +0.200 C 
BRANCH   8   9
ATOM      9  O   LIG    1        4.627  -4.192  -2.486  0.00  0.00    -0.380 OA
ATOM     10  C   LIG    1        4.863  -5.139  -3.515  0.00  0.00    +0.194 C 
ENDBRANCH   8   9
ENDBRANCH   7   8
ENDBRANCH   6   7
ENDBRANCH   4   6
ENDBRANCH   1   2
BRANCH   1  11
ATOM     11  C   LIG    1        1.934   0.904  -1.547  0.00  0.00    +0.233 C 
ATOM     12  N   LIG    1        2.881   1.826  -1.293  0.00  0.00    -0.314 N 
ATOM     13  H   LIG    1        3.137   2.009  -0.334  0.00  0.00    +0.149 HD
ATOM     14  O   LIG    1        1.517   0.630  -2.673  0.00  0.00    -0.274 OA
BRANCH  12  15
ATOM     15  C   LIG    1        3.643   2.541  -2.319  0.00  0.00    +0.104 C 
BRANCH  15  16
ATOM     16  C   LIG    1        5.056   1.957  -2.544  0.00  0.00    +0.019 C 
BRANCH  16  17
ATOM     17  C   LIG    1        5.107   0.434  -2.788  0.00  0.00    +0.002 C 
BRANCH  17  18
ATOM     18  C   LIG    1        6.511  -0.083  -3.146  0.00  0.00    +0.002 C 
BRANCH  18  19
ATOM     19  C   LIG    1        6.584  -1.621  -3.179  0.00  0.00    +0.029 C 
BRANCH  19  20
ATOM     20  C   LIG    1        7.939  -2.151  -3.674  0.00  0.00    +0.172 C 
BRANCH  20  21
ATOM     21  O   LIG    1        7.991  -3.563  -3.578  0.00  0.00    -0.287 OA
BRANCH  21  22
ATOM     22  P   LIG    1        8.603  -4.372  -2.136  0.00  0.00    +0.472 P 
ATOM     23  O   LIG    1        8.368  -5.875  -2.376  0.00  0.00    -0.228 OA
BRANCH  22  24
ATOM     24  O   LIG    1        7.793  -3.824  -0.947  0.00  0.00    -0.303 OA
ATOM     25  H   LIG    1        6.863  -4.081  -1.043  0.00  0.00    +0.222 HD
ENDBRANCH  22  24
BRANCH  22  26
ATOM     26  O   LIG    1       10.097  -4.006  -2.059  0.00  0.00    -0.303 OA
ATOM     27  H   LIG    1       10.560  -4.374  -2.829  0.00  0.00    +0.222 HD
ENDBRANCH  22  26
ENDBRANCH  21  22
ENDBRANCH  20  21
ENDBRANCH  19  20
ENDBRANCH  18  19
ENDBRANCH  17  18
ENDBRANCH  16  17
ENDBRANCH  15  16
ENDBRANCH  12  15
ENDBRANCH   1  11
BRANCH   1  28
ATOM     28  C   LIG    1       -0.163   0.288  -0.150  0.00  0.00    +0.032 C 
BRANCH  28  29
ATOM     29  C   LIG    1       -0.666   1.734   0.048  0.00  0.00    +0.004 C 
BRANCH  29  30
ATOM     30  C   LIG    1       -2.192   1.807   0.241  0.00  0.00    +0.019 C 
BRANCH  30  31
ATOM     31  C   LIG    1       -2.711   3.248   0.407  0.00  0.00    +0.107 C 
BRANCH  31  33
ATOM     32  C   LIG    1       -5.081   3.181  -0.386  0.00  0.00    +0.400 C 
ATOM     33  N   LIG    1       -4.152   3.328   0.633  0.00  0.00    -0.281 N 
ATOM     34  H   LIG    1       -4.487   3.452   1.578  0.00  0.00    +0.152 HD
ATOM     35  O   LIG    1       -4.829   3.003  -1.581  0.00  0.00    -0.226 OA
BRANCH  32  36
ATOM     36  O   LIG    1       -6.320   3.257   0.137  0.00  0.00    -0.448 OA
BRANCH  36  37
ATOM     37  C   LIG    1       -7.470   3.134  -0.692  0.00  0.00    +0.262 C 
BRANCH  37  38
ATOM     38  C   LIG    1       -8.756   3.203   0.141  0.00  0.00    +0.200 C 
BRANCH  38  40
ATOM     39  C   LIG    1      -10.060   4.662   1.484  0.00  0.00    +0.194 C 
ATOM     40  O   LIG    1       -8.896   4.507   0.687  0.00  0.00    -0.380 OA
ENDBRANCH  38  40
ENDBRANCH  37  38
ENDBRANCH  36  37
ENDBRANCH  32  36
ENDBRANCH  31  33
ENDBRANCH  30  31
ENDBRANCH  29  30
ENDBRANCH  28  29
ENDBRANCH   1  28
TORSDOF 25
