REMARK  Name = DB06477
REMARK                            x       y       z     vdW  Elec       q    Type
REMARK                         _______ _______ _______ _____ _____    ______ ____
ROOT
ATOM      1  C   LIG    1        1.936  -1.457   0.022  0.00  0.00    -0.048 C 
ATOM      2  C   LIG    1        1.557  -2.126  -1.343  0.00  0.00    +0.111 C 
ATOM      3  N   LIG    1        2.225  -3.436  -1.419  0.00  0.00    -0.293 N 
ATOM      4  C   LIG    1        1.875  -4.522  -2.153  0.00  0.00    +0.328 A 
ATOM      5  N   LIG    1        2.840  -5.441  -1.881  0.00  0.00    -0.306 N 
ATOM      6  H   LIG    1        2.861  -6.367  -2.282  0.00  0.00    +0.170 HD
ATOM      7  C   LIG    1        3.789  -4.944  -1.011  0.00  0.00    +0.067 A 
ATOM      8  C   LIG    1        4.937  -5.458  -0.411  0.00  0.00    +0.028 A 
ATOM      9  C   LIG    1        5.650  -4.624   0.467  0.00  0.00    +0.002 A 
ATOM     10  C   LIG    1        5.215  -3.310   0.726  0.00  0.00    +0.006 A 
ATOM     11  C   LIG    1        4.063  -2.805   0.104  0.00  0.00    -0.023 A 
ATOM     12  O   LIG    1        0.905  -4.655  -2.897  0.00  0.00    -0.247 OA
ATOM     13  C   LIG    1        3.397  -3.672  -0.752  0.00  0.00    +0.073 A 
ATOM     14  C   LIG    1        3.476  -1.408   0.275  0.00  0.00    +0.023 C 
ENDROOT
BRANCH   1  16
ATOM     15  C   LIG    1       -0.107   0.138   0.036  0.00  0.00    -0.100 C 
ATOM     16  N   LIG    1        1.423  -0.005   0.019  0.00  0.00    +0.380 N 
ATOM     17  H   LIG    1        1.781   0.456   0.843  0.00  0.00    -0.086 HD
ATOM     18  H   LIG    1        1.790   0.474  -0.792  0.00  0.00    -0.086 HD
ENDBRANCH   1  16
TORSDOF 1
