REMARK  Name = DB06585
REMARK                            x       y       z     vdW  Elec       q    Type
REMARK                         _______ _______ _______ _____ _____    ______ ____
ROOT
ATOM      1  C   LIG    1        1.561   0.061   0.059  0.00  0.00    +0.000 C 
ATOM      2  C   LIG    1        2.193   0.738  -1.184  0.00  0.00    +0.044 C 
ATOM      3  C   LIG    1        3.496   0.003  -1.404  0.00  0.00    -0.041 A 
ATOM      4  C   LIG    1        4.552   0.304  -2.267  0.00  0.00    +0.042 A 
ATOM      5  C   LIG    1        5.620  -0.586  -2.393  0.00  0.00    +0.124 A 
ATOM      6  F   LIG    1        6.650  -0.290  -3.217  0.00  0.00    -0.205 F 
ATOM      7  C   LIG    1        5.614  -1.789  -1.686  0.00  0.00    +0.038 A 
ATOM      8  C   LIG    1        4.541  -2.107  -0.852  0.00  0.00    +0.007 A 
ATOM      9  C   LIG    1        3.491  -1.200  -0.697  0.00  0.00    -0.043 A 
ATOM     10  C   LIG    1        2.185  -1.357   0.051  0.00  0.00    +0.044 C 
ENDROOT
BRANCH   1  11
ATOM     11  C   LIG    1        1.976   0.782   1.353  0.00  0.00    +0.064 C 
ATOM     12  N   LIG    1        1.508   0.382   2.601  0.00  0.00    -0.290 NA
ATOM     13  H   LIG    1        0.874  -0.389   2.756  0.00  0.00    +0.124 HD
ATOM     14  C   LIG    1        2.027   1.184   3.591  0.00  0.00    +0.155 C 
ATOM     15  N   LIG    1        2.839   2.104   2.976  0.00  0.00    -0.293 NA
ATOM     16  H   LIG    1        3.365   2.830   3.442  0.00  0.00    +0.124 HD
ATOM     17  C   LIG    1        2.819   1.870   1.612  0.00  0.00    +0.096 C 
ENDBRANCH   1  11
BRANCH   1  19
ATOM     18  C   LIG    1       -0.706   1.360  -0.078  0.00  0.00    +0.004 C 
ATOM     19  C   LIG    1        0.009  -0.005  -0.052  0.00  0.00    +0.006 C 
ENDBRANCH   1  19
TORSDOF 2
