REMARK  Name = DB06755
REMARK                            x       y       z     vdW  Elec       q    Type
REMARK                         _______ _______ _______ _____ _____    ______ ____
ROOT
ATOM      1  C   LIG    1        1.476  -0.013  -1.059  0.00  0.00    +0.000 C 
ATOM      2  C   LIG    1        2.217  -1.135  -1.059  0.00  0.00    +0.000 C 
ENDROOT
BRANCH   1   5
ATOM      3  C   LIG    1       -0.807   1.040  -1.000  0.00  0.00    -0.050 C 
ATOM      4  C   LIG    1       -0.302   2.477  -0.921  0.00  0.00    +0.044 C 
ATOM      5  C   LIG    1        0.020  -0.033  -1.049  0.00  0.00    +0.003 C 
BRANCH   3   7
ATOM      6  C   LIG    1       -2.887  -0.121  -0.264  0.00  0.00    +0.001 C 
ATOM      7  C   LIG    1       -2.252   0.844  -0.960  0.00  0.00    +0.003 C 
BRANCH   6  10
ATOM      8  C   LIG    1       -5.050  -1.238   0.354  0.00  0.00    -0.050 C 
ATOM      9  C   LIG    1       -4.410  -2.412   1.086  0.00  0.00    +0.044 C 
ATOM     10  C   LIG    1       -4.335  -0.255  -0.246  0.00  0.00    +0.003 C 
BRANCH   8  12
ATOM     11  C   LIG    1       -7.252  -0.098   0.546  0.00  0.00    +0.004 C 
ATOM     12  C   LIG    1       -6.505  -1.197   0.307  0.00  0.00    +0.003 C 
BRANCH  11  13
ATOM     13  C   LIG    1       -8.715  -0.052   0.488  0.00  0.00    -0.043 C 
ATOM     14  C   LIG    1       -9.335   1.017  -0.460  0.00  0.00    -0.010 C 
ATOM     15  C   LIG    1       -8.657   0.931  -1.852  0.00  0.00    +0.016 C 
ATOM     16  C   LIG    1       -9.145   2.404   0.204  0.00  0.00    +0.016 C 
ATOM     17  C   LIG    1      -10.855   0.763  -0.683  0.00  0.00    +0.011 C 
ATOM     18  C   LIG    1      -11.599   0.383   0.597  0.00  0.00    +0.005 C 
ATOM     19  C   LIG    1      -11.017  -0.909   1.179  0.00  0.00    +0.031 C 
ATOM     20  C   LIG    1       -9.488  -0.890   1.246  0.00  0.00    -0.069 C 
ATOM     21  C   LIG    1       -8.930  -1.930   2.219  0.00  0.00    +0.039 C 
ENDBRANCH  11  13
ENDBRANCH   8  12
ENDBRANCH   6  10
ENDBRANCH   3   7
ENDBRANCH   1   5
BRANCH   2  22
ATOM     22  C   LIG    1        3.672  -1.115  -1.049  0.00  0.00    +0.003 C 
ATOM     23  C   LIG    1        4.499  -2.188  -1.000  0.00  0.00    -0.050 C 
ATOM     24  C   LIG    1        3.994  -3.625  -0.922  0.00  0.00    +0.044 C 
BRANCH  23  25
ATOM     25  C   LIG    1        5.945  -1.992  -0.960  0.00  0.00    +0.003 C 
ATOM     26  C   LIG    1        6.579  -1.028  -0.265  0.00  0.00    +0.001 C 
BRANCH  26  27
ATOM     27  C   LIG    1        8.027  -0.893  -0.246  0.00  0.00    +0.003 C 
ATOM     28  C   LIG    1        8.742   0.090   0.353  0.00  0.00    -0.050 C 
ATOM     29  C   LIG    1        8.102   1.264   1.086  0.00  0.00    +0.044 C 
BRANCH  28  30
ATOM     30  C   LIG    1       10.198   0.050   0.307  0.00  0.00    +0.003 C 
ATOM     31  C   LIG    1       10.944  -1.049   0.546  0.00  0.00    +0.004 C 
BRANCH  31  32
ATOM     32  C   LIG    1       12.407  -1.096   0.488  0.00  0.00    -0.043 C 
ATOM     33  C   LIG    1       13.027  -2.165  -0.460  0.00  0.00    -0.010 C 
ATOM     34  C   LIG    1       12.348  -2.079  -1.852  0.00  0.00    +0.016 C 
ATOM     35  C   LIG    1       12.837  -3.552   0.204  0.00  0.00    +0.016 C 
ATOM     36  C   LIG    1       14.547  -1.911  -0.683  0.00  0.00    +0.011 C 
ATOM     37  C   LIG    1       15.291  -1.531   0.597  0.00  0.00    +0.005 C 
ATOM     38  C   LIG    1       14.709  -0.239   1.179  0.00  0.00    +0.031 C 
ATOM     39  C   LIG    1       13.180  -0.258   1.246  0.00  0.00    -0.069 C 
ATOM     40  C   LIG    1       12.622   0.782   2.219  0.00  0.00    +0.039 C 
ENDBRANCH  31  32
ENDBRANCH  28  30
ENDBRANCH  26  27
ENDBRANCH  23  25
ENDBRANCH   2  22
TORSDOF 10
