REMARK  Name = DB06145
REMARK                            x       y       z     vdW  Elec       q    Type
REMARK                         _______ _______ _______ _____ _____    ______ ____
ROOT
ATOM      1  C   LIG    1       -4.244  -2.753  -0.257  0.00  0.00    +0.147 C 
ATOM      2  C   LIG    1       -4.447  -2.259   1.173  0.00  0.00    +0.004 C 
ATOM      3  C   LIG    1       -4.607  -0.979   1.546  0.00  0.00    -0.002 C 
ATOM      4  C   LIG    1       -4.626  -0.586   2.939  0.00  0.00    -0.004 C 
ATOM      5  C   LIG    1       -4.624   0.695   3.340  0.00  0.00    -0.023 C 
ATOM      6  C   LIG    1       -4.484   1.139   4.783  0.00  0.00    +0.071 C 
ATOM      7  C   LIG    1       -3.177   1.915   5.087  0.00  0.00    +0.177 C 
ATOM      8  C   LIG    1       -3.140   2.399   6.545  0.00  0.00    +0.052 C 
ATOM      9  O   LIG    1       -1.996   1.129   4.876  0.00  0.00    -0.461 OA
ATOM     10  C   LIG    1       -1.367   1.076   3.674  0.00  0.00    +0.310 C 
ATOM     11  O   LIG    1       -1.743   1.637   2.642  0.00  0.00    -0.251 OA
ATOM     12  C   LIG    1       -0.079   0.235   3.728  0.00  0.00    +0.154 C 
ATOM     13  C   LIG    1        0.660   0.092   2.369  0.00  0.00    +0.156 C 
ATOM     14  C   LIG    1        0.072  -0.979   1.388  0.00  0.00    +0.176 C 
ATOM     15  C   LIG    1        0.237  -0.567  -0.109  0.00  0.00    +0.156 C 
ATOM     16  C   LIG    1       -0.526  -1.428  -1.180  0.00  0.00    +0.028 C 
ATOM     17  C   LIG    1       -2.063  -1.557  -0.893  0.00  0.00    +0.012 C 
ATOM     18  C   LIG    1       -2.734  -2.940  -0.605  0.00  0.00    +0.019 C 
ATOM     19  C   LIG    1       -2.029  -3.816   0.462  0.00  0.00    +0.010 C 
ENDROOT
BRANCH  13  20
ATOM     20  O   LIG    1        2.043  -0.115   2.587  0.00  0.00    -0.389 OA
ATOM     21  H   LIG    1        2.171  -1.015   2.895  0.00  0.00    +0.210 HD
ENDBRANCH  13  20
BRANCH  14  22
ATOM     22  O   LIG    1        0.608  -2.296   1.562  0.00  0.00    -0.375 OA
ATOM     23  C   LIG    1        0.433  -2.910   2.833  0.00  0.00    +0.194 C 
ENDBRANCH  14  22
BRANCH   1  24
ATOM     24  O   LIG    1       -4.893  -4.011  -0.465  0.00  0.00    -0.344 OA
BRANCH  24  25
ATOM     25  C   LIG    1       -6.291  -4.014  -0.483  0.00  0.00    +0.251 C 
ATOM     26  C   LIG    1       -6.722  -5.371  -1.033  0.00  0.00    +0.063 C 
ATOM     27  C   LIG    1       -8.257  -5.447  -1.072  0.00  0.00    +0.026 C 
ATOM     28  C   LIG    1       -8.890  -5.112   0.307  0.00  0.00    +0.085 C 
ATOM     29  C   LIG    1       -8.244  -3.792   0.838  0.00  0.00    +0.135 C 
ATOM     30  C   LIG    1       -8.623  -3.417   2.281  0.00  0.00    +0.039 C 
ATOM     31  O   LIG    1       -6.813  -3.892   0.814  0.00  0.00    -0.347 OA
BRANCH  28  32
ATOM     32  N   LIG    1      -10.369  -5.141   0.398  0.00  0.00    -0.303 NA
ATOM     33  C   LIG    1      -11.097  -5.651  -0.763  0.00  0.00    +0.105 C 
ATOM     34  C   LIG    1      -10.847  -5.811   1.607  0.00  0.00    +0.105 C 
ENDBRANCH  28  32
ENDBRANCH  24  25
ENDBRANCH   1  24
BRANCH  15  35
ATOM     35  O   LIG    1        1.644  -0.470  -0.363  0.00  0.00    -0.343 OA
BRANCH  35  36
ATOM     36  C   LIG    1        2.091   0.391  -1.373  0.00  0.00    +0.281 C 
ATOM     37  C   LIG    1        2.625   1.687  -0.719  0.00  0.00    +0.190 C 
ATOM     38  C   LIG    1        3.387   2.582  -1.753  0.00  0.00    +0.121 C 
ATOM     39  C   LIG    1        4.329   1.727  -2.648  0.00  0.00    +0.169 C 
ATOM     40  C   LIG    1        3.630   0.451  -3.172  0.00  0.00    +0.149 C 
ATOM     41  C   LIG    1        4.584  -0.501  -3.911  0.00  0.00    +0.041 C 
ATOM     42  O   LIG    1        3.127  -0.266  -2.048  0.00  0.00    -0.343 OA
BRANCH  38  43
ATOM     43  N   LIG    1        4.080   3.779  -1.231  0.00  0.00    -0.301 NA
ATOM     44  C   LIG    1        4.996   3.526  -0.119  0.00  0.00    +0.105 C 
ATOM     45  C   LIG    1        3.199   4.902  -0.922  0.00  0.00    +0.105 C 
ENDBRANCH  38  43
BRANCH  37  46
ATOM     46  O   LIG    1        1.548   2.401  -0.142  0.00  0.00    -0.385 OA
ATOM     47  H   LIG    1        1.851   3.289   0.061  0.00  0.00    +0.210 HD
ENDBRANCH  37  46
BRANCH  39  48
ATOM     48  O   LIG    1        4.981   2.495  -3.667  0.00  0.00    -0.344 OA
BRANCH  48  49
ATOM     49  C   LIG    1        4.203   3.050  -4.694  0.00  0.00    +0.254 C 
ATOM     50  C   LIG    1        4.675   4.492  -4.947  0.00  0.00    +0.098 C 
ATOM     51  C   LIG    1        6.063   4.573  -5.630  0.00  0.00    +0.096 C 
ATOM     52  C   LIG    1        6.356   6.043  -6.007  0.00  0.00    +0.044 C 
ATOM     53  C   LIG    1        6.076   3.632  -6.862  0.00  0.00    +0.174 C 
ATOM     54  C   LIG    1        5.572   2.218  -6.479  0.00  0.00    +0.149 C 
ATOM     55  C   LIG    1        5.457   1.268  -7.685  0.00  0.00    +0.041 C 
ATOM     56  O   LIG    1        4.275   2.284  -5.870  0.00  0.00    -0.346 OA
BRANCH  51  57
ATOM     57  O   LIG    1        7.069   4.215  -4.694  0.00  0.00    -0.386 OA
ATOM     58  H   LIG    1        6.872   4.644  -3.858  0.00  0.00    +0.210 HD
ENDBRANCH  51  57
BRANCH  53  59
ATOM     59  O   LIG    1        7.347   3.586  -7.492  0.00  0.00    -0.386 OA
ATOM     60  H   LIG    1        7.995   3.305  -6.841  0.00  0.00    +0.210 HD
ENDBRANCH  53  59
ENDBRANCH  48  49
ENDBRANCH  39  48
ENDBRANCH  35  36
ENDBRANCH  15  35
BRANCH  16  61
ATOM     61  C   LIG    1        0.201  -2.743  -1.609  0.00  0.00    +0.076 C 
BRANCH  61  62
ATOM     62  C   LIG    1        1.137  -2.676  -2.825  0.00  0.00    +0.223 C 
ATOM     63  O   LIG    1        1.086  -1.769  -3.655  0.00  0.00    -0.301 OA
ENDBRANCH  61  62
ENDBRANCH  16  61
TORSDOF 15
