REMARK  Name = DB06209
REMARK                            x       y       z     vdW  Elec       q    Type
REMARK                         _______ _______ _______ _____ _____    ______ ____
ROOT
ATOM      1  C   LIG    1       -0.454   0.520  -4.743  0.00  0.00    +0.170 A 
ATOM      2  S   LIG    1       -0.378   2.089  -3.990  0.00  0.00    -0.056 S 
ATOM      3  C   LIG    1       -0.461   1.340  -2.425  0.00  0.00    -0.001 A 
ATOM      4  C   LIG    1       -0.417   2.092  -1.105  0.00  0.00    +0.058 C 
ATOM      5  C   LIG    1       -0.727   1.102   0.056  0.00  0.00    +0.091 C 
ATOM      6  N   LIG    1       -0.026  -0.195  -0.065  0.00  0.00    -0.285 NA
ATOM      7  C   LIG    1       -0.590  -0.906  -1.237  0.00  0.00    +0.121 C 
ATOM      8  C   LIG    1       -0.509  -0.056  -2.503  0.00  0.00    -0.020 A 
ATOM      9  C   LIG    1       -0.510  -0.518  -3.826  0.00  0.00    +0.059 A 
ENDROOT
BRANCH   1  10
ATOM     10  O   LIG    1       -0.405   0.394  -6.111  0.00  0.00    -0.419 OA
BRANCH  10  12
ATOM     11  C   LIG    1       -1.183   0.689  -8.354  0.00  0.00    +0.136 C 
ATOM     12  C   LIG    1       -1.434   0.875  -6.863  0.00  0.00    +0.310 C 
ATOM     13  O   LIG    1       -2.474   1.398  -6.455  0.00  0.00    -0.251 OA
ENDBRANCH  10  12
ENDBRANCH   1  10
BRANCH   6  14
ATOM     14  C   LIG    1        1.458  -0.096  -0.073  0.00  0.00    +0.157 C 
BRANCH  14  15
ATOM     15  C   LIG    1        2.009   0.723   1.109  0.00  0.00    +0.012 A 
ATOM     16  C   LIG    1        1.707   0.407   2.446  0.00  0.00    +0.128 A 
ATOM     17  F   LIG    1        0.913  -0.647   2.743  0.00  0.00    -0.205 F 
ATOM     18  C   LIG    1        2.223   1.181   3.486  0.00  0.00    +0.039 A 
ATOM     19  C   LIG    1        3.042   2.275   3.207  0.00  0.00    +0.003 A 
ATOM     20  C   LIG    1        3.345   2.597   1.885  0.00  0.00    +0.000 A 
ATOM     21  C   LIG    1        2.831   1.826   0.843  0.00  0.00    +0.008 A 
ENDBRANCH  14  15
BRANCH  14  22
ATOM     22  C   LIG    1        2.204  -1.455  -0.050  0.00  0.00    +0.158 C 
ATOM     23  O   LIG    1        1.681  -2.484   0.385  0.00  0.00    -0.295 OA
BRANCH  22  24
ATOM     24  C   LIG    1        3.642  -1.451  -0.595  0.00  0.00    +0.057 C 
ATOM     25  C   LIG    1        4.658  -2.365   0.078  0.00  0.00    +0.012 C 
ATOM     26  C   LIG    1        4.148  -2.712  -1.284  0.00  0.00    +0.012 C 
ENDBRANCH  22  24
ENDBRANCH  14  22
ENDBRANCH   6  14
TORSDOF 6
