REMARK  Name = DB06077
REMARK                            x       y       z     vdW  Elec       q    Type
REMARK                         _______ _______ _______ _____ _____    ______ ____
ROOT
ATOM      1  N   LIG    1        3.636  -1.432  -0.583  0.00  0.00    -0.302 NA
ATOM      2  C   LIG    1        4.142  -2.366  -1.591  0.00  0.00    +0.086 C 
ATOM      3  C   LIG    1        5.678  -2.362  -1.631  0.00  0.00    +0.038 C 
ATOM      4  C   LIG    1        6.354  -2.636  -0.273  0.00  0.00    +0.083 C 
ATOM      5  N   LIG    1        6.387  -4.029   0.154  0.00  0.00    -0.323 N 
ATOM      6  C   LIG    1        7.147  -5.051  -0.564  0.00  0.00    +0.124 C 
ATOM      7  C   LIG    1        7.161  -6.400   0.216  0.00  0.00    +0.123 C 
ATOM      8  N   LIG    1        7.451  -6.249   1.658  0.00  0.00    -0.330 N 
ATOM      9  C   LIG    1        7.559  -7.572   2.266  0.00  0.00    +0.129 C 
ATOM     10  C   LIG    1        6.910  -5.136   2.306  0.00  0.00    +0.051 A 
ATOM     11  C   LIG    1        6.837  -4.979   3.700  0.00  0.00    +0.025 A 
ATOM     12  C   LIG    1        6.330  -3.797   4.259  0.00  0.00    +0.002 A 
ATOM     13  C   LIG    1        5.907  -2.741   3.441  0.00  0.00    +0.006 A 
ATOM     14  C   LIG    1        6.006  -2.863   2.053  0.00  0.00    -0.018 A 
ATOM     15  C   LIG    1        6.506  -4.044   1.536  0.00  0.00    +0.055 A 
ATOM     16  C   LIG    1        5.630  -1.937   0.913  0.00  0.00    +0.055 C 
ATOM     17  C   LIG    1        4.091  -1.790   0.768  0.00  0.00    +0.094 C 
ENDROOT
BRANCH   1  18
ATOM     18  C   LIG    1        2.174  -1.339  -0.681  0.00  0.00    +0.085 C 
BRANCH  18  19
ATOM     19  C   LIG    1        1.567  -0.219   0.190  0.00  0.00    +0.023 C 
BRANCH  19  20
ATOM     20  C   LIG    1        0.089   0.055  -0.157  0.00  0.00    +0.081 C 
BRANCH  20  21
ATOM     21  C   LIG    1       -0.597   1.144   0.692  0.00  0.00    +0.163 C 
ATOM     22  O   LIG    1        0.061   1.766   1.529  0.00  0.00    -0.292 OA
BRANCH  21  23
ATOM     23  C   LIG    1       -2.063   1.380   0.470  0.00  0.00    +0.018 A 
ATOM     24  C   LIG    1       -2.734   2.325   1.261  0.00  0.00    +0.014 A 
ATOM     25  C   LIG    1       -4.093   2.563   1.078  0.00  0.00    +0.039 A 
ATOM     26  C   LIG    1       -4.793   1.859   0.103  0.00  0.00    +0.123 A 
ATOM     27  F   LIG    1       -6.114   2.089  -0.074  0.00  0.00    -0.205 F 
ATOM     28  C   LIG    1       -4.143   0.920  -0.692  0.00  0.00    +0.039 A 
ATOM     29  C   LIG    1       -2.783   0.681  -0.512  0.00  0.00    +0.014 A 
ENDBRANCH  21  23
ENDBRANCH  20  21
ENDBRANCH  19  20
ENDBRANCH  18  19
ENDBRANCH   1  18
TORSDOF 5
