REMARK  Name = DB06694
REMARK                            x       y       z     vdW  Elec       q    Type
REMARK                         _______ _______ _______ _____ _____    ______ ____
ROOT
ATOM      1  C   LIG    1       -0.050   2.636  -0.134  0.00  0.00    +0.044 C 
ATOM      2  C   LIG    1       -0.737   1.275  -0.070  0.00  0.00    -0.046 A 
ATOM      3  C   LIG    1       -0.003   0.073  -0.070  0.00  0.00    -0.030 A 
ATOM      4  C   LIG    1       -0.699  -1.151  -0.031  0.00  0.00    -0.046 A 
ATOM      5  C   LIG    1        0.026  -2.492  -0.054  0.00  0.00    +0.044 C 
ATOM      6  C   LIG    1       -2.095  -1.156   0.014  0.00  0.00    +0.007 A 
ATOM      7  C   LIG    1       -2.838   0.031   0.018  0.00  0.00    -0.041 A 
ATOM      8  C   LIG    1       -2.133   1.242  -0.027  0.00  0.00    +0.007 A 
ENDROOT
BRANCH   7   9
ATOM      9  C   LIG    1       -4.386  -0.033   0.066  0.00  0.00    -0.013 C 
ATOM     10  C   LIG    1       -4.836  -0.722   1.378  0.00  0.00    +0.015 C 
ATOM     11  C   LIG    1       -5.062   1.363   0.015  0.00  0.00    +0.015 C 
ATOM     12  C   LIG    1       -4.916  -0.845  -1.143  0.00  0.00    +0.015 C 
ENDBRANCH   7   9
BRANCH   3  13
ATOM     13  C   LIG    1        1.536   0.097  -0.112  0.00  0.00    +0.163 C 
BRANCH  13  14
ATOM     14  C   LIG    1        2.147   0.120  -1.510  0.00  0.00    +0.285 C 
ATOM     15  N   LIG    1        3.507   0.297  -1.621  0.00  0.00    -0.233 N 
ATOM     16  H   LIG    1        4.244   0.018  -0.990  0.00  0.00    +0.291 HD
ATOM     17  C   LIG    1        3.899   0.118  -2.992  0.00  0.00    +0.273 C 
ATOM     18  C   LIG    1        2.535   0.082  -3.670  0.00  0.00    +0.333 C 
ATOM     19  N   LIG    1        1.552  -0.050  -2.623  0.00  0.00    -0.084 NA
ENDBRANCH  13  14
ENDBRANCH   3  13
TORSDOF 3
