REMARK  Name = DB06603
REMARK                            x       y       z     vdW  Elec       q    Type
REMARK                         _______ _______ _______ _____ _____    ______ ____
ROOT
ATOM      1  C   LIG    1        0.024  -0.015  -0.351  0.00  0.00    +0.116 C 
ENDROOT
BRANCH   1   2
ATOM      2  C   LIG    1       -0.442   1.430  -0.295  0.00  0.00    -0.034 A 
ATOM      3  C   LIG    1       -0.587   2.167  -1.471  0.00  0.00    +0.005 A 
ATOM      4  C   LIG    1       -1.008   3.493  -1.414  0.00  0.00    +0.008 A 
ATOM      5  C   LIG    1       -1.295   4.092  -0.181  0.00  0.00    -0.025 A 
ATOM      6  C   LIG    1       -1.155   3.343   0.992  0.00  0.00    +0.008 A 
ATOM      7  C   LIG    1       -0.734   2.018   0.937  0.00  0.00    +0.005 A 
BRANCH   5   8
ATOM      8  C   LIG    1       -1.727   5.501  -0.068  0.00  0.00    +0.013 C 
ATOM      9  C   LIG    1       -1.637   6.444  -1.032  0.00  0.00    +0.070 C 
BRANCH   9  10
ATOM     10  C   LIG    1       -2.093   7.803  -0.839  0.00  0.00    +0.259 C 
ATOM     11  O   LIG    1       -2.585   8.210   0.219  0.00  0.00    -0.269 OA
ATOM     12  N   LIG    1       -1.887   8.581  -1.916  0.00  0.00    -0.194 N 
ATOM     13  H   LIG    1       -1.688   8.252  -2.849  0.00  0.00    +0.183 HD
BRANCH  12  14
ATOM     14  O   LIG    1       -2.432   9.869  -1.901  0.00  0.00    -0.295 OA
ATOM     15  H   LIG    1       -3.102   9.813  -1.215  0.00  0.00    +0.241 HD
ENDBRANCH  12  14
ENDBRANCH   9  10
ENDBRANCH   5   8
ENDBRANCH   1   2
BRANCH   1  16
ATOM     16  N   LIG    1        1.470  -0.057  -0.190  0.00  0.00    -0.312 NA
ATOM     17  H   LIG    1        1.903   0.357  -1.003  0.00  0.00    +0.122 HD
BRANCH  16  18
ATOM     18  C   LIG    1        1.952  -1.427  -0.068  0.00  0.00    +0.086 C 
BRANCH  18  19
ATOM     19  C   LIG    1        3.482  -1.459   0.128  0.00  0.00    +0.052 C 
BRANCH  19  20
ATOM     20  C   LIG    1        3.953  -0.735   1.380  0.00  0.00    -0.018 A 
ATOM     21  C   LIG    1        4.288   0.663   1.476  0.00  0.00    +0.003 A 
ATOM     22  C   LIG    1        4.307   1.729   0.558  0.00  0.00    +0.010 A 
ATOM     23  C   LIG    1        4.689   2.996   0.994  0.00  0.00    +0.001 A 
ATOM     24  C   LIG    1        5.054   3.221   2.319  0.00  0.00    +0.002 A 
ATOM     25  C   LIG    1        5.052   2.196   3.265  0.00  0.00    +0.026 A 
ATOM     26  C   LIG    1        4.666   0.925   2.824  0.00  0.00    +0.047 A 
ATOM     27  N   LIG    1        4.559  -0.270   3.494  0.00  0.00    -0.358 N 
ATOM     28  H   LIG    1        4.749  -0.440   4.471  0.00  0.00    +0.166 HD
ATOM     29  C   LIG    1        4.134  -1.268   2.651  0.00  0.00    +0.017 A 
ATOM     30  C   LIG    1        3.938  -2.667   3.188  0.00  0.00    +0.063 C 
ENDBRANCH  19  20
ENDBRANCH  18  19
ENDBRANCH  16  18
ENDBRANCH   1  16
TORSDOF 8
