REMARK  Name = DB06706
REMARK                            x       y       z     vdW  Elec       q    Type
REMARK                         _______ _______ _______ _____ _____    ______ ____
ROOT
ATOM      1  C   LIG    1        1.448   0.241  -0.137  0.00  0.00    +0.022 C 
ENDROOT
BRANCH   1   3
ATOM      2  C   LIG    1       -0.340  -0.398   1.550  0.00  0.00    +0.024 C 
ATOM      3  C   LIG    1       -0.068   0.007   0.090  0.00  0.00    +0.051 C 
BRANCH   3   4
ATOM      4  N   LIG    1       -0.867   1.202  -0.179  0.00  0.00    -0.316 NA
ATOM      5  H   LIG    1       -1.613   1.274   0.498  0.00  0.00    +0.122 HD
ATOM      6  C   LIG    1       -1.418   1.236  -1.527  0.00  0.00    +0.101 C 
ENDBRANCH   3   4
ENDBRANCH   1   3
BRANCH   1   7
ATOM      7  C   LIG    1        1.871   0.622  -1.568  0.00  0.00    +0.028 C 
BRANCH   7   8
ATOM      8  C   LIG    1        3.380   0.628  -1.761  0.00  0.00    -0.028 C 
ATOM      9  C   LIG    1        4.207   1.696  -1.784  0.00  0.00    -0.080 C 
ATOM     10  C   LIG    1        3.768   3.138  -1.568  0.00  0.00    +0.038 C 
ATOM     11  C   LIG    1        5.699   1.532  -2.017  0.00  0.00    +0.038 C 
ENDBRANCH   7   8
ENDBRANCH   1   7
TORSDOF 4
