REMARK  Name = DB06813
REMARK                            x       y       z     vdW  Elec       q    Type
REMARK                         _______ _______ _______ _____ _____    ______ ____
ROOT
ATOM      1  C   UNK A  0       -2.726   0.137   0.040  0.00  0.00    +0.037 A 
ATOM      2  C   UNK A  0       -1.999   1.338   0.049  0.00  0.00    +0.013 A 
ATOM      3  C   UNK A  0       -0.608   1.322   0.046  0.00  0.00    +0.005 A 
ATOM      4  C   UNK A  0        0.083   0.107   0.028  0.00  0.00    -0.043 A 
ATOM      5  C   UNK A  0       -0.634  -1.092   0.023  0.00  0.00    +0.005 A 
ATOM      6  C   UNK A  0       -2.025  -1.077   0.027  0.00  0.00    +0.013 A 
ENDROOT
BRANCH   1   9
ATOM      7  N   GLU A  1       -4.846   1.260   0.435  0.00  0.00    -0.298 N 
ATOM      8  H   GLU A  1       -4.274   2.045   0.710  0.00  0.00    +0.150 HD
ATOM      9  C   UNK A  0       -4.240   0.129   0.027  0.00  0.00    +0.245 C 
ATOM     10  O   UNK A  0       -4.860  -0.879  -0.319  0.00  0.00    -0.270 OA
BRANCH   7  11
ATOM     11  CA  GLU A  1       -6.294   1.482   0.519  0.00  0.00    +0.182 C 
BRANCH  11  13
ATOM     12  O   GLU A  1       -7.091   3.706  -0.104  0.00  0.00    -0.249 OA
ATOM     13  C   GLU A  1       -6.694   2.612  -0.451  0.00  0.00    +0.325 C 
BRANCH  13  14
ATOM     14  OXT GLU A  1       -6.556   2.184  -1.741  0.00  0.00    -0.479 OA
ATOM     15  HXT GLU A  1       -6.813   2.854  -2.378  0.00  0.00    +0.295 HD
ENDBRANCH  13  14
ENDBRANCH  11  13
BRANCH  11  16
ATOM     16  CB  GLU A  1       -6.696   1.776   1.989  0.00  0.00    +0.045 C 
BRANCH  16  17
ATOM     17  CG  GLU A  1       -6.418   0.608   2.959  0.00  0.00    +0.123 C 
BRANCH  17  18
ATOM     18  CD  GLU A  1       -6.881   0.887   4.391  0.00  0.00    +0.305 C 
ATOM     19  OE1 GLU A  1       -7.425   1.927   4.758  0.00  0.00    -0.251 OA
BRANCH  18  20
ATOM     20  OE2 GLU A  1       -6.617  -0.163   5.220  0.00  0.00    -0.481 OA
ATOM     21  HE2 GLU A  1       -6.902  -0.001   6.122  0.00  0.00    +0.295 HD
ENDBRANCH  18  20
ENDBRANCH  17  18
ENDBRANCH  16  17
ENDBRANCH  11  16
ENDBRANCH   7  11
ENDBRANCH   1   9
BRANCH   4  22
ATOM     22  C   UNK A  0        1.615   0.085  -0.031  0.00  0.00    +0.037 C 
BRANCH  22  23
ATOM     23  C   UNK A  0        2.157   0.658  -1.374  0.00  0.00    +0.066 C 
BRANCH  23  24
ATOM     24  C   UNK A  0        1.615  -0.051  -2.609  0.00  0.00    +0.061 A 
ATOM     25  C   UNK A  0        2.281  -1.139  -3.178  0.00  0.00    +0.136 A 
ATOM     26  N   UNK A  0        1.787  -1.801  -4.255  0.00  0.00    -0.232 NA
ATOM     27  C   UNK A  0        0.599  -1.366  -4.760  0.00  0.00    +0.185 A 
ATOM     28  N   UNK A  0        0.099  -2.045  -5.830  0.00  0.00    -0.193 NA
ATOM     29  C   UNK A  0       -1.091  -1.614  -6.317  0.00  0.00    +0.216 A 
ATOM     30  N   UNK A  0       -1.829  -0.579  -5.847  0.00  0.00    -0.198 NA
ATOM     31  C   UNK A  0       -1.326   0.092  -4.784  0.00  0.00    +0.149 A 
ATOM     32  C   UNK A  0       -0.087  -0.254  -4.181  0.00  0.00    +0.148 A 
ATOM     33  N   UNK A  0        0.438   0.409  -3.108  0.00  0.00    -0.243 NA
BRANCH  29  34
ATOM     34  N   UNK A  0       -1.605  -2.305  -7.408  0.00  0.00    -0.327 N 
ATOM     35  H   UNK A  0       -1.089  -3.087  -7.783  0.00  0.00    +0.145 HD
ATOM     36  H   UNK A  0       -2.492  -2.022  -7.798  0.00  0.00    +0.145 HD
ENDBRANCH  29  34
BRANCH  31  37
ATOM     37  N   UNK A  0       -2.108   1.146  -4.309  0.00  0.00    -0.341 N 
ATOM     38  H   UNK A  0       -2.986   1.353  -4.763  0.00  0.00    +0.144 HD
ATOM     39  H   UNK A  0       -1.789   1.678  -3.513  0.00  0.00    +0.144 HD
ENDBRANCH  31  37
ENDBRANCH  23  24
ENDBRANCH  22  23
BRANCH  22  40
ATOM     40  C   UNK A  0        2.231   0.766   1.221  0.00  0.00    +0.097 C 
BRANCH  40  41
ATOM     41  C   UNK A  0        3.691   0.618   1.378  0.00  0.00    -0.105 C 
ATOM     42  C   UNK A  0        4.900   0.493   1.492  0.00  0.00    +0.004 C 
ENDBRANCH  40  41
ENDBRANCH  22  40
ENDBRANCH   4  22
TORSDOF 15
