REMARK  Name = DB06206
REMARK                            x       y       z     vdW  Elec       q    Type
REMARK                         _______ _______ _______ _____ _____    ______ ____
ROOT
ATOM      1  C   LIG    1        1.112  -0.445  -0.295  0.00  0.00    +0.163 C 
ATOM      2  O   LIG    1        1.678   0.242  -1.415  0.00  0.00    -0.342 OA
ATOM      3  C   LIG    1        3.045   0.592  -1.320  0.00  0.00    +0.282 C 
ATOM      4  O   LIG    1        3.857  -0.373  -1.932  0.00  0.00    -0.340 OA
ATOM      5  C   LIG    1        3.769  -0.461  -3.359  0.00  0.00    +0.182 C 
ATOM      6  C   LIG    1        5.007   0.186  -4.016  0.00  0.00    +0.179 C 
ATOM      7  C   LIG    1        5.024  -0.078  -5.541  0.00  0.00    +0.201 C 
ATOM      8  C   LIG    1        4.787  -1.565  -5.865  0.00  0.00    +0.282 C 
ATOM      9  O   LIG    1        5.904  -2.313  -5.473  0.00  0.00    -0.340 OA
ATOM     10  C   LIG    1        6.488  -3.228  -6.406  0.00  0.00    +0.182 C 
ATOM     11  C   LIG    1        7.904  -3.525  -5.851  0.00  0.00    +0.179 C 
ATOM     12  C   LIG    1        8.607  -4.679  -6.604  0.00  0.00    +0.201 C 
ATOM     13  C   LIG    1        7.677  -5.889  -6.743  0.00  0.00    +0.282 C 
ATOM     14  O   LIG    1        7.419  -6.424  -5.473  0.00  0.00    -0.340 OA
ATOM     15  C   LIG    1        7.608  -7.825  -5.255  0.00  0.00    +0.182 C 
ATOM     16  C   LIG    1        7.756  -7.978  -3.727  0.00  0.00    +0.179 C 
ATOM     17  C   LIG    1        7.821  -9.460  -3.304  0.00  0.00    +0.201 C 
ATOM     18  C   LIG    1        6.665 -10.264  -3.911  0.00  0.00    +0.282 C 
ATOM     19  O   LIG    1        5.464  -9.932  -3.257  0.00  0.00    -0.340 OA
ATOM     20  C   LIG    1        4.349 -10.811  -3.463  0.00  0.00    +0.182 C 
ATOM     21  C   LIG    1        4.322 -11.969  -2.433  0.00  0.00    +0.179 C 
ATOM     22  C   LIG    1        3.011 -12.780  -2.559  0.00  0.00    +0.201 C 
ATOM     23  C   LIG    1        1.786 -11.859  -2.503  0.00  0.00    +0.282 C 
ATOM     24  O   LIG    1        1.695 -11.333  -1.204  0.00  0.00    -0.340 OA
ATOM     25  C   LIG    1        0.410 -10.926  -0.726  0.00  0.00    +0.182 C 
ATOM     26  C   LIG    1        0.451 -11.019   0.820  0.00  0.00    +0.179 C 
ATOM     27  C   LIG    1        1.155  -9.800   1.465  0.00  0.00    +0.201 C 
ATOM     28  C   LIG    1        0.558  -8.507   0.892  0.00  0.00    +0.282 C 
ATOM     29  O   LIG    1        1.192  -7.433   1.525  0.00  0.00    -0.340 OA
ATOM     30  C   LIG    1        0.946  -6.107   1.040  0.00  0.00    +0.182 C 
ATOM     31  C   LIG    1       -0.545  -5.658   1.058  0.00  0.00    +0.179 C 
ATOM     32  C   LIG    1       -0.998  -5.181   2.453  0.00  0.00    +0.201 C 
ATOM     33  C   LIG    1       -0.003  -4.130   2.953  0.00  0.00    +0.282 C 
ATOM     34  O   LIG    1       -0.465  -3.642   4.184  0.00  0.00    -0.340 OA
ATOM     35  C   LIG    1       -0.180  -2.273   4.513  0.00  0.00    +0.182 C 
ATOM     36  C   LIG    1        1.336  -1.943   4.476  0.00  0.00    +0.179 C 
ATOM     37  C   LIG    1        1.581  -0.422   4.466  0.00  0.00    +0.201 C 
ATOM     38  C   LIG    1        0.746   0.226   3.358  0.00  0.00    +0.282 C 
ATOM     39  O   LIG    1        1.089  -0.370   2.130  0.00  0.00    -0.340 OA
ATOM     40  O   LIG    1       -0.613   0.063   3.669  0.00  0.00    -0.342 OA
ATOM     41  C   LIG    1       -1.081  -1.295   3.682  0.00  0.00    +0.163 C 
ATOM     42  O   LIG    1        1.257  -4.737   3.094  0.00  0.00    -0.342 OA
ATOM     43  C   LIG    1        1.855  -5.138   1.851  0.00  0.00    +0.163 C 
ATOM     44  O   LIG    1        0.747  -8.491  -0.504  0.00  0.00    -0.342 OA
ATOM     45  C   LIG    1        0.012  -9.503  -1.211  0.00  0.00    +0.163 C 
ATOM     46  O   LIG    1        1.891 -10.862  -3.487  0.00  0.00    -0.342 OA
ATOM     47  C   LIG    1        3.030  -9.998  -3.354  0.00  0.00    +0.163 C 
ATOM     48  O   LIG    1        6.594 -10.071  -5.299  0.00  0.00    -0.342 OA
ATOM     49  C   LIG    1        6.426  -8.716  -5.738  0.00  0.00    +0.163 C 
ATOM     50  O   LIG    1        6.492  -5.480  -7.368  0.00  0.00    -0.342 OA
ATOM     51  C   LIG    1        5.698  -4.559  -6.603  0.00  0.00    +0.163 C 
ATOM     52  O   LIG    1        3.630  -2.027  -5.217  0.00  0.00    -0.342 OA
ATOM     53  C   LIG    1        3.679  -1.941  -3.786  0.00  0.00    +0.163 C 
ATOM     54  C   LIG    1        3.526   0.810   0.139  0.00  0.00    +0.201 C 
ATOM     55  C   LIG    1        2.368   1.386   0.987  0.00  0.00    +0.179 C 
ATOM     56  C   LIG    1        1.116   0.463   0.969  0.00  0.00    +0.182 C 
ENDROOT
BRANCH   7  57
ATOM     57  O   LIG    1        6.196   0.413  -6.170  0.00  0.00    -0.384 OA
ATOM     58  H   LIG    1        6.074   0.369  -7.121  0.00  0.00    +0.210 HD
ENDBRANCH   7  57
BRANCH   6  59
ATOM     59  O   LIG    1        5.055   1.577  -3.748  0.00  0.00    -0.386 OA
ATOM     60  H   LIG    1        5.674   1.979  -4.362  0.00  0.00    +0.210 HD
ENDBRANCH   6  59
BRANCH  27  61
ATOM     61  O   LIG    1        2.562  -9.860   1.293  0.00  0.00    -0.384 OA
ATOM     62  H   LIG    1        2.953  -9.113   1.752  0.00  0.00    +0.210 HD
ENDBRANCH  27  61
BRANCH  11  63
ATOM     63  O   LIG    1        8.708  -2.356  -5.865  0.00  0.00    -0.386 OA
ATOM     64  H   LIG    1        8.818  -2.068  -6.774  0.00  0.00    +0.210 HD
ENDBRANCH  11  63
BRANCH  12  65
ATOM     65  O   LIG    1        9.847  -5.049  -6.029  0.00  0.00    -0.384 OA
ATOM     66  H   LIG    1        9.749  -5.053  -5.073  0.00  0.00    +0.210 HD
ENDBRANCH  12  65
BRANCH  16  67
ATOM     67  O   LIG    1        8.883  -7.263  -3.246  0.00  0.00    -0.386 OA
ATOM     68  H   LIG    1        9.675  -7.643  -3.633  0.00  0.00    +0.210 HD
ENDBRANCH  16  67
BRANCH  17  69
ATOM     69  O   LIG    1        7.891  -9.642  -1.899  0.00  0.00    -0.384 OA
ATOM     70  H   LIG    1        7.194  -9.122  -1.490  0.00  0.00    +0.210 HD
ENDBRANCH  17  69
BRANCH  21  71
ATOM     71  O   LIG    1        5.431 -12.842  -2.554  0.00  0.00    -0.386 OA
ATOM     72  H   LIG    1        5.905 -12.850  -1.719  0.00  0.00    +0.210 HD
ENDBRANCH  21  71
BRANCH  22  73
ATOM     73  O   LIG    1        2.904 -13.826  -1.606  0.00  0.00    -0.384 OA
ATOM     74  H   LIG    1        3.187 -13.488  -0.753  0.00  0.00    +0.210 HD
ENDBRANCH  22  73
BRANCH  26  75
ATOM     75  O   LIG    1       -0.836 -11.237   1.369  0.00  0.00    -0.386 OA
ATOM     76  H   LIG    1       -0.828 -12.072   1.844  0.00  0.00    +0.210 HD
ENDBRANCH  26  75
BRANCH  31  77
ATOM     77  O   LIG    1       -0.803  -4.670   0.077  0.00  0.00    -0.386 OA
ATOM     78  H   LIG    1       -0.356  -4.922  -0.735  0.00  0.00    +0.210 HD
ENDBRANCH  31  77
BRANCH  32  79
ATOM     79  O   LIG    1       -1.158  -6.264   3.354  0.00  0.00    -0.384 OA
ATOM     80  H   LIG    1       -1.533  -5.923   4.169  0.00  0.00    +0.210 HD
ENDBRANCH  32  79
BRANCH  36  81
ATOM     81  O   LIG    1        2.017  -2.571   5.548  0.00  0.00    -0.386 OA
ATOM     82  H   LIG    1        1.674  -3.463   5.643  0.00  0.00    +0.210 HD
ENDBRANCH  36  81
BRANCH  37  83
ATOM     83  O   LIG    1        2.952  -0.089   4.340  0.00  0.00    -0.384 OA
ATOM     84  H   LIG    1        3.462  -0.704   4.874  0.00  0.00    +0.210 HD
ENDBRANCH  37  83
BRANCH  54  85
ATOM     85  O   LIG    1        4.070  -0.351   0.751  0.00  0.00    -0.384 OA
ATOM     86  H   LIG    1        4.852  -0.614   0.261  0.00  0.00    +0.210 HD
ENDBRANCH  54  85
BRANCH  55  87
ATOM     87  O   LIG    1        2.039   2.708   0.597  0.00  0.00    -0.386 OA
ATOM     88  H   LIG    1        1.178   2.930   0.960  0.00  0.00    +0.210 HD
ENDBRANCH  55  87
BRANCH   1  89
ATOM     89  C   LIG    1       -0.274  -0.999  -0.677  0.00  0.00    +0.103 C 
BRANCH  89  90
ATOM     90  S   LIG    1       -1.497   0.223  -1.250  0.00  0.00    -0.158 S 
BRANCH  90  91
ATOM     91  C   LIG    1       -1.550  -0.073  -3.049  0.00  0.00    +0.080 C 
BRANCH  91  92
ATOM     92  C   LIG    1       -0.352   0.391  -3.908  0.00  0.00    +0.131 C 
BRANCH  92  93
ATOM     93  C   LIG    1        0.038   1.871  -3.768  0.00  0.00    +0.305 C 
ATOM     94  O   LIG    1       -0.663   2.723  -3.224  0.00  0.00    -0.251 OA
BRANCH  93  95
ATOM     95  O   LIG    1        1.248   2.120  -4.346  0.00  0.00    -0.481 OA
ATOM     96  H   LIG    1        1.506   3.041  -4.266  0.00  0.00    +0.295 HD
ENDBRANCH  93  95
ENDBRANCH  92  93
ENDBRANCH  91  92
ENDBRANCH  90  91
ENDBRANCH  89  90
ENDBRANCH   1  89
BRANCH  41  97
ATOM     97  C   LIG    1       -2.542  -1.252   4.192  0.00  0.00    +0.103 C 
BRANCH  97  98
ATOM     98  S   LIG    1       -3.471  -2.820   4.154  0.00  0.00    -0.158 S 
BRANCH  98  99
ATOM     99  C   LIG    1       -4.947  -2.438   3.154  0.00  0.00    +0.080 C 
BRANCH  99 100
ATOM    100  C   LIG    1       -4.900  -2.823   1.658  0.00  0.00    +0.131 C 
BRANCH 100 101
ATOM    101  C   LIG    1       -3.835  -2.101   0.823  0.00  0.00    +0.305 C 
ATOM    102  O   LIG    1       -3.347  -1.016   1.128  0.00  0.00    -0.251 OA
BRANCH 101 103
ATOM    103  O   LIG    1       -3.542  -2.789  -0.316  0.00  0.00    -0.481 OA
ATOM    104  H   LIG    1       -2.888  -2.344  -0.859  0.00  0.00    +0.295 HD
ENDBRANCH 101 103
ENDBRANCH 100 101
ENDBRANCH  99 100
ENDBRANCH  98  99
ENDBRANCH  97  98
ENDBRANCH  41  97
BRANCH  43 105
ATOM    105  C   LIG    1        2.408  -3.941   1.041  0.00  0.00    +0.103 C 
BRANCH 105 106
ATOM    106  S   LIG    1        3.752  -4.302  -0.127  0.00  0.00    -0.158 S 
BRANCH 106 107
ATOM    107  C   LIG    1        5.071  -4.883   0.988  0.00  0.00    +0.080 C 
BRANCH 107 108
ATOM    108  C   LIG    1        5.361  -6.402   0.983  0.00  0.00    +0.131 C 
BRANCH 108 109
ATOM    109  C   LIG    1        5.759  -6.956  -0.390  0.00  0.00    +0.305 C 
ATOM    110  O   LIG    1        5.073  -7.752  -1.028  0.00  0.00    -0.251 OA
BRANCH 109 111
ATOM    111  O   LIG    1        6.967  -6.462  -0.791  0.00  0.00    -0.481 OA
ATOM    112  H   LIG    1        7.241  -6.791  -1.651  0.00  0.00    +0.295 HD
ENDBRANCH 109 111
ENDBRANCH 108 109
ENDBRANCH 107 108
ENDBRANCH 106 107
ENDBRANCH 105 106
ENDBRANCH  43 105
BRANCH  49 113
ATOM    113  C   LIG    1        6.226  -8.790  -7.264  0.00  0.00    +0.103 C 
BRANCH 113 114
ATOM    114  S   LIG    1        4.853  -9.855  -7.800  0.00  0.00    -0.158 S 
BRANCH 114 115
ATOM    115  C   LIG    1        4.737  -9.390  -9.557  0.00  0.00    +0.080 C 
BRANCH 115 116
ATOM    116  C   LIG    1        3.573 -10.006 -10.364  0.00  0.00    +0.131 C 
BRANCH 116 117
ATOM    117  C   LIG    1        2.162  -9.700  -9.836  0.00  0.00    +0.305 C 
ATOM    118  O   LIG    1        1.912  -8.853  -8.981  0.00  0.00    -0.251 OA
BRANCH 117 119
ATOM    119  O   LIG    1        1.225 -10.468 -10.462  0.00  0.00    -0.481 OA
ATOM    120  H   LIG    1        0.336 -10.278 -10.156  0.00  0.00    +0.295 HD
ENDBRANCH 117 119
ENDBRANCH 116 117
ENDBRANCH 115 116
ENDBRANCH 114 115
ENDBRANCH 113 114
ENDBRANCH  49 113
BRANCH  45 121
ATOM    121  C   LIG    1       -1.514  -9.255  -1.227  0.00  0.00    +0.103 C 
BRANCH 121 122
ATOM    122  S   LIG    1       -2.019  -7.587  -1.741  0.00  0.00    -0.158 S 
BRANCH 122 123
ATOM    123  C   LIG    1       -3.637  -7.489  -0.913  0.00  0.00    +0.080 C 
BRANCH 123 124
ATOM    124  C   LIG    1       -4.507  -6.245  -1.196  0.00  0.00    +0.131 C 
BRANCH 124 125
ATOM    125  C   LIG    1       -4.821  -5.944  -2.671  0.00  0.00    +0.305 C 
ATOM    126  O   LIG    1       -5.033  -4.806  -3.083  0.00  0.00    -0.251 OA
BRANCH 125 127
ATOM    127  O   LIG    1       -4.886  -7.067  -3.446  0.00  0.00    -0.481 OA
ATOM    128  H   LIG    1       -5.094  -6.863  -4.360  0.00  0.00    +0.295 HD
ENDBRANCH 125 127
ENDBRANCH 124 125
ENDBRANCH 123 124
ENDBRANCH 122 123
ENDBRANCH 121 122
ENDBRANCH  45 121
BRANCH  47 129
ATOM    129  C   LIG    1        2.934  -8.867  -4.400  0.00  0.00    +0.103 C 
BRANCH 129 130
ATOM    130  S   LIG    1        1.302  -8.098  -4.638  0.00  0.00    -0.158 S 
BRANCH 130 131
ATOM    131  C   LIG    1        0.507  -9.260  -5.800  0.00  0.00    +0.080 C 
BRANCH 131 132
ATOM    132  C   LIG    1       -0.822  -9.905  -5.351  0.00  0.00    +0.131 C 
BRANCH 132 133
ATOM    133  C   LIG    1       -1.971  -8.928  -5.056  0.00  0.00    +0.305 C 
ATOM    134  O   LIG    1       -1.941  -7.723  -5.305  0.00  0.00    -0.251 OA
BRANCH 133 135
ATOM    135  O   LIG    1       -3.031  -9.575  -4.494  0.00  0.00    -0.481 OA
ATOM    136  H   LIG    1       -3.752  -8.977  -4.285  0.00  0.00    +0.295 HD
ENDBRANCH 133 135
ENDBRANCH 132 133
ENDBRANCH 131 132
ENDBRANCH 130 131
ENDBRANCH 129 130
ENDBRANCH  47 129
BRANCH  51 137
ATOM    137  C   LIG    1        4.346  -4.437  -7.337  0.00  0.00    +0.103 C 
BRANCH 137 138
ATOM    138  S   LIG    1        3.556  -6.024  -7.755  0.00  0.00    -0.158 S 
BRANCH 138 139
ATOM    139  C   LIG    1        1.824  -5.710  -7.317  0.00  0.00    +0.080 C 
BRANCH 139 140
ATOM    140  C   LIG    1        1.114  -4.625  -8.153  0.00  0.00    +0.131 C 
BRANCH 140 141
ATOM    141  C   LIG    1       -0.419  -4.678  -8.085  0.00  0.00    +0.305 C 
ATOM    142  O   LIG    1       -1.060  -5.558  -7.512  0.00  0.00    -0.251 OA
BRANCH 141 143
ATOM    143  O   LIG    1       -0.976  -3.626  -8.751  0.00  0.00    -0.481 OA
ATOM    144  H   LIG    1       -1.935  -3.644  -8.720  0.00  0.00    +0.295 HD
ENDBRANCH 141 143
ENDBRANCH 140 141
ENDBRANCH 139 140
ENDBRANCH 138 139
ENDBRANCH 137 138
ENDBRANCH  51 137
BRANCH  53 145
ATOM    145  C   LIG    1        2.443  -2.667  -3.235  0.00  0.00    +0.103 C 
BRANCH 145 146
ATOM    146  S   LIG    1        2.440  -4.462  -3.517  0.00  0.00    -0.158 S 
BRANCH 146 147
ATOM    147  C   LIG    1        0.717  -4.824  -3.088  0.00  0.00    +0.080 C 
BRANCH 147 148
ATOM    148  C   LIG    1       -0.273  -4.606  -4.253  0.00  0.00    +0.131 C 
BRANCH 148 149
ATOM    149  C   LIG    1       -1.687  -4.192  -3.835  0.00  0.00    +0.305 C 
ATOM    150  O   LIG    1       -2.009  -3.885  -2.689  0.00  0.00    -0.251 OA
BRANCH 149 151
ATOM    151  O   LIG    1       -2.534  -4.192  -4.905  0.00  0.00    -0.481 OA
ATOM    152  H   LIG    1       -3.428  -3.945  -4.658  0.00  0.00    +0.295 HD
ENDBRANCH 149 151
ENDBRANCH 148 149
ENDBRANCH 147 148
ENDBRANCH 146 147
ENDBRANCH 145 146
ENDBRANCH  53 145
TORSDOF 64
