REMARK  Name = DB06518
REMARK                            x       y       z     vdW  Elec       q    Type
REMARK                         _______ _______ _______ _____ _____    ______ ____
ROOT
ATOM      1  N   LIG    1       -0.516   1.040  -0.743  0.00  0.00    -0.222 NA
ATOM      2  C   LIG    1        0.072  -0.164  -0.509  0.00  0.00    +0.217 A 
ATOM      3  N   LIG    1       -0.598  -1.310  -0.196  0.00  0.00    -0.196 NA
ATOM      4  C   LIG    1       -1.958  -1.236  -0.109  0.00  0.00    +0.148 A 
ATOM      5  N   LIG    1       -2.712  -2.404   0.227  0.00  0.00    -0.293 N 
ATOM      6  C   LIG    1       -1.959  -3.656   0.440  0.00  0.00    +0.154 C 
ATOM      7  C   LIG    1       -4.082  -2.446   0.356  0.00  0.00    +0.295 A 
ATOM      8  O   LIG    1       -4.719  -3.470   0.620  0.00  0.00    -0.264 OA
ATOM      9  C   LIG    1       -4.757  -1.154   0.140  0.00  0.00    +0.193 A 
ATOM     10  C   LIG    1       -4.091  -0.031  -0.206  0.00  0.00    +0.065 A 
ATOM     11  C   LIG    1       -2.634  -0.030  -0.337  0.00  0.00    +0.039 A 
ATOM     12  C   LIG    1       -1.871   1.094  -0.654  0.00  0.00    +0.126 A 
ENDROOT
BRANCH   2  13
ATOM     13  N   LIG    1        1.473  -0.176  -0.602  0.00  0.00    -0.310 N 
ATOM     14  H   LIG    1        1.937   0.718  -0.679  0.00  0.00    +0.149 HD
BRANCH  13  15
ATOM     15  C   LIG    1        2.277  -1.328  -0.195  0.00  0.00    +0.077 C 
ATOM     16  C   LIG    1        3.633  -1.277  -0.928  0.00  0.00    +0.050 C 
ATOM     17  C   LIG    1        4.592  -2.347  -0.370  0.00  0.00    +0.161 C 
ATOM     18  O   LIG    1        4.730  -2.190   1.042  0.00  0.00    -0.380 OA
ATOM     19  C   LIG    1        3.511  -2.360   1.766  0.00  0.00    +0.161 C 
ATOM     20  C   LIG    1        2.490  -1.290   1.335  0.00  0.00    +0.050 C 
ENDBRANCH  13  15
ENDBRANCH   2  13
BRANCH   9  21
ATOM     21  O   LIG    1       -6.113  -1.087   0.244  0.00  0.00    -0.448 OA
BRANCH  21  22
ATOM     22  C   LIG    1       -6.751  -1.413   1.427  0.00  0.00    +0.164 A 
ATOM     23  C   LIG    1       -6.300  -0.993   2.692  0.00  0.00    +0.168 A 
ATOM     24  F   LIG    1       -5.181  -0.242   2.819  0.00  0.00    -0.202 F 
ATOM     25  C   LIG    1       -7.014  -1.340   3.840  0.00  0.00    +0.080 A 
ATOM     26  C   LIG    1       -8.185  -2.088   3.739  0.00  0.00    +0.126 A 
ATOM     27  F   LIG    1       -8.874  -2.421   4.854  0.00  0.00    -0.205 F 
ATOM     28  C   LIG    1       -8.650  -2.488   2.487  0.00  0.00    +0.042 A 
ATOM     29  C   LIG    1       -7.939  -2.144   1.338  0.00  0.00    +0.052 A 
ENDBRANCH  21  22
ENDBRANCH   9  21
TORSDOF 4
