REMARK  Name = DB06454
REMARK                            x       y       z     vdW  Elec       q    Type
REMARK                         _______ _______ _______ _____ _____    ______ ____
ROOT
ATOM      1  N   LIG    1       -0.105   0.098   0.111  0.00  0.00    +0.384 N 
ATOM      2  H   LIG    1       -0.684  -0.549  -0.405  0.00  0.00    -0.085 HD
ATOM      3  H   LIG    1       -0.165  -0.148   1.088  0.00  0.00    -0.085 HD
ENDROOT
BRANCH   1   4
ATOM      4  C   LIG    1       -0.664   1.518  -0.087  0.00  0.00    -0.037 C 
BRANCH   4  10
ATOM      5  C   LIG    1       -6.208   1.335  -2.578  0.00  0.00    +0.000 A 
ATOM      6  C   LIG    1       -5.818   2.277  -1.625  0.00  0.00    +0.007 A 
ATOM      7  C   LIG    1       -4.724   2.034  -0.787  0.00  0.00    -0.006 A 
ATOM      8  C   LIG    1       -4.249   3.015   0.264  0.00  0.00    +0.042 C 
ATOM      9  C   LIG    1       -2.715   3.022   0.251  0.00  0.00    +0.047 C 
ATOM     10  C   LIG    1       -2.132   1.589   0.381  0.00  0.00    +0.157 C 
ATOM     11  O   LIG    1       -2.924   0.508  -0.158  0.00  0.00    -0.490 OA
ATOM     12  C   LIG    1       -4.016   0.832  -0.940  0.00  0.00    +0.124 A 
ATOM     13  C   LIG    1       -4.408  -0.117  -1.885  0.00  0.00    +0.046 A 
ATOM     14  C   LIG    1       -5.505   0.138  -2.706  0.00  0.00    +0.004 A 
ENDBRANCH   4  10
ENDBRANCH   1   4
BRANCH   1  15
ATOM     15  C   LIG    1        1.350  -0.067  -0.354  0.00  0.00    -0.045 C 
BRANCH  15  16
ATOM     16  C   LIG    1        1.849  -1.495  -0.228  0.00  0.00    -0.046 A 
ATOM     17  C   LIG    1        2.531  -1.923   0.913  0.00  0.00    +0.112 A 
ATOM     18  N   LIG    1        3.004  -3.186   1.059  0.00  0.00    -0.262 NA
ATOM     19  C   LIG    1        2.803  -4.059   0.039  0.00  0.00    +0.119 A 
ATOM     20  C   LIG    1        2.140  -3.726  -1.151  0.00  0.00    +0.000 A 
ATOM     21  C   LIG    1        1.663  -2.413  -1.268  0.00  0.00    +0.013 A 
BRANCH  20  22
ATOM     22  C   LIG    1        1.951  -4.722  -2.243  0.00  0.00    -0.016 A 
ATOM     23  C   LIG    1        2.100  -4.346  -3.584  0.00  0.00    +0.011 A 
ATOM     24  C   LIG    1        1.919  -5.275  -4.606  0.00  0.00    +0.039 A 
ATOM     25  C   LIG    1        1.588  -6.590  -4.293  0.00  0.00    +0.123 A 
ATOM     26  F   LIG    1        1.411  -7.492  -5.284  0.00  0.00    -0.205 F 
ATOM     27  C   LIG    1        1.437  -6.981  -2.965  0.00  0.00    +0.039 A 
ATOM     28  C   LIG    1        1.618  -6.051  -1.946  0.00  0.00    +0.011 A 
ENDBRANCH  20  22
ENDBRANCH  15  16
ENDBRANCH   1  15
TORSDOF 5
