REMARK  Name = DB06811
REMARK                            x       y       z     vdW  Elec       q    Type
REMARK                         _______ _______ _______ _____ _____    ______ ____
ROOT
ATOM      1  C   LIG    1       -0.871   0.261   0.648  0.00  0.00    +0.188 C 
ENDROOT
BRANCH   1   2
ATOM      2  C   LIG    1        0.642   0.019   0.572  0.00  0.00    +0.188 C 
BRANCH   2   3
ATOM      3  O   LIG    1        1.274   0.604   1.703  0.00  0.00    -0.375 OA
BRANCH   3   4
ATOM      4  C   LIG    1        2.686   0.444   1.713  0.00  0.00    +0.188 C 
BRANCH   4   5
ATOM      5  C   LIG    1        3.256   1.089   2.989  0.00  0.00    +0.188 C 
BRANCH   5   6
ATOM      6  O   LIG    1        4.678   1.184   2.979  0.00  0.00    -0.375 OA
BRANCH   6   7
ATOM      7  C   LIG    1        5.375  -0.054   3.074  0.00  0.00    +0.188 C 
BRANCH   7   8
ATOM      8  C   LIG    1        6.880   0.225   3.147  0.00  0.00    +0.188 C 
BRANCH   8   9
ATOM      9  O   LIG    1        7.576  -1.014   3.169  0.00  0.00    -0.377 OA
BRANCH   9  10
ATOM     10  C   LIG    1        8.991  -0.876   3.204  0.00  0.00    +0.160 C 
BRANCH  10  11
ATOM     11  C   LIG    1        9.645  -2.266   3.175  0.00  0.00    +0.028 C 
BRANCH  11  12
ATOM     12  C   LIG    1        9.331  -3.066   1.895  0.00  0.00    +0.002 C 
BRANCH  12  13
ATOM     13  C   LIG    1       10.013  -4.447   1.866  0.00  0.00    +0.000 C 
BRANCH  13  14
ATOM     14  C   LIG    1        9.774  -5.245   0.568  0.00  0.00    +0.000 C 
BRANCH  14  15
ATOM     15  C   LIG    1        8.312  -5.680   0.350  0.00  0.00    +0.000 C 
BRANCH  15  16
ATOM     16  C   LIG    1        8.124  -6.549  -0.906  0.00  0.00    -0.000 C 
BRANCH  16  17
ATOM     17  C   LIG    1        6.664  -6.985  -1.120  0.00  0.00    -0.000 C 
BRANCH  17  18
ATOM     18  C   LIG    1        6.472  -7.856  -2.374  0.00  0.00    -0.000 C 
BRANCH  18  19
ATOM     19  C   LIG    1        5.007  -8.289  -2.583  0.00  0.00    -0.000 C 
BRANCH  19  20
ATOM     20  C   LIG    1        4.787  -9.232  -3.781  0.00  0.00    -0.003 C 
ATOM     21  C   LIG    1        5.067  -8.592  -5.150  0.00  0.00    +0.004 C 
ENDBRANCH  19  20
ENDBRANCH  18  19
ENDBRANCH  17  18
ENDBRANCH  16  17
ENDBRANCH  15  16
ENDBRANCH  14  15
ENDBRANCH  13  14
ENDBRANCH  12  13
ENDBRANCH  11  12
ENDBRANCH  10  11
ENDBRANCH   9  10
ENDBRANCH   8   9
ENDBRANCH   7   8
ENDBRANCH   6   7
ENDBRANCH   5   6
ENDBRANCH   4   5
ENDBRANCH   3   4
ENDBRANCH   2   3
ENDBRANCH   1   2
BRANCH   1  22
ATOM     22  O   LIG    1       -1.131   1.658   0.611  0.00  0.00    -0.375 OA
BRANCH  22  23
ATOM     23  C   LIG    1       -2.511   1.984   0.718  0.00  0.00    +0.188 C 
BRANCH  23  24
ATOM     24  C   LIG    1       -2.694   3.501   0.581  0.00  0.00    +0.188 C 
BRANCH  24  25
ATOM     25  O   LIG    1       -2.227   3.920  -0.695  0.00  0.00    -0.375 OA
BRANCH  25  26
ATOM     26  C   LIG    1       -2.396   5.309  -0.940  0.00  0.00    +0.188 C 
BRANCH  26  27
ATOM     27  C   LIG    1       -1.838   5.641  -2.329  0.00  0.00    +0.188 C 
BRANCH  27  28
ATOM     28  O   LIG    1       -2.068   7.016  -2.608  0.00  0.00    -0.375 OA
BRANCH  28  29
ATOM     29  C   LIG    1       -1.570   7.433  -3.872  0.00  0.00    +0.188 C 
BRANCH  29  30
ATOM     30  C   LIG    1       -1.915   8.918  -4.079  0.00  0.00    +0.188 C 
BRANCH  30  31
ATOM     31  O   LIG    1       -1.615   9.383  -5.392  0.00  0.00    -0.375 OA
BRANCH  31  32
ATOM     32  C   LIG    1       -0.231   9.507  -5.696  0.00  0.00    +0.188 C 
BRANCH  32  33
ATOM     33  C   LIG    1       -0.085  10.150  -7.080  0.00  0.00    +0.188 C 
BRANCH  33  34
ATOM     34  O   LIG    1        1.296  10.285  -7.385  0.00  0.00    -0.375 OA
BRANCH  34  35
ATOM     35  C   LIG    1        1.544  10.870  -8.657  0.00  0.00    +0.188 C 
BRANCH  35  36
ATOM     36  C   LIG    1        3.057  10.993  -8.877  0.00  0.00    +0.188 C 
BRANCH  36  37
ATOM     37  O   LIG    1        3.615  11.832  -7.874  0.00  0.00    -0.375 OA
BRANCH  37  38
ATOM     38  C   LIG    1        5.021  12.007  -7.992  0.00  0.00    +0.187 C 
BRANCH  38  39
ATOM     39  C   LIG    1        5.495  12.935  -6.865  0.00  0.00    +0.184 C 
BRANCH  39  40
ATOM     40  O   LIG    1        6.890  13.141  -6.939  0.00  0.00    -0.393 OA
ATOM     41  H   LIG    1        7.151  13.726  -6.224  0.00  0.00    +0.209 HD
ENDBRANCH  39  40
ENDBRANCH  38  39
ENDBRANCH  37  38
ENDBRANCH  36  37
ENDBRANCH  35  36
ENDBRANCH  34  35
ENDBRANCH  33  34
ENDBRANCH  32  33
ENDBRANCH  31  32
ENDBRANCH  30  31
ENDBRANCH  29  30
ENDBRANCH  28  29
ENDBRANCH  27  28
ENDBRANCH  26  27
ENDBRANCH  25  26
ENDBRANCH  24  25
ENDBRANCH  23  24
ENDBRANCH  22  23
ENDBRANCH   1  22
TORSDOF 38
