REMARK  Name = DB06080
REMARK                            x       y       z     vdW  Elec       q    Type
REMARK                         _______ _______ _______ _____ _____    ______ ____
ROOT
ATOM      1  C   LIG    1       -2.880   0.032  -0.040  0.00  0.00    -0.017 A 
ATOM      2  C   LIG    1       -2.055  -0.962  -0.576  0.00  0.00    +0.010 A 
ATOM      3  C   LIG    1       -0.683  -0.760  -0.683  0.00  0.00    +0.024 A 
ATOM      4  C   LIG    1       -0.112   0.439  -0.253  0.00  0.00    +0.035 A 
ATOM      5  C   LIG    1       -0.936   1.447   0.270  0.00  0.00    +0.024 A 
ATOM      6  C   LIG    1       -2.309   1.239   0.373  0.00  0.00    +0.010 A 
ENDROOT
BRANCH   1  10
ATOM      7  C   LIG    1       -7.189  -0.584   0.121  0.00  0.00    +0.028 A 
ATOM      8  C   LIG    1       -6.457  -0.719  -1.056  0.00  0.00    +0.003 A 
ATOM      9  C   LIG    1       -5.078  -0.527  -1.089  0.00  0.00    +0.009 A 
ATOM     10  C   LIG    1       -4.348  -0.184   0.056  0.00  0.00    -0.005 A 
ATOM     11  C   LIG    1       -5.063  -0.058   1.272  0.00  0.00    +0.049 A 
ATOM     12  C   LIG    1       -4.766   0.223   2.651  0.00  0.00    +0.146 A 
ATOM     13  N   LIG    1       -5.845   0.225   3.389  0.00  0.00    -0.158 NA
ATOM     14  N   LIG    1       -6.877  -0.060   2.578  0.00  0.00    -0.275 N 
ATOM     15  H   LIG    1       -7.814  -0.116   2.949  0.00  0.00    +0.189 HD
ATOM     16  C   LIG    1       -6.471  -0.257   1.274  0.00  0.00    +0.068 A 
BRANCH  12  17
ATOM     17  N   LIG    1       -3.528   0.453   3.178  0.00  0.00    -0.341 N 
ATOM     18  H   LIG    1       -3.403   0.655   4.159  0.00  0.00    +0.144 HD
ATOM     19  H   LIG    1       -2.689   0.328   2.629  0.00  0.00    +0.144 HD
ENDBRANCH  12  17
ENDBRANCH   1  10
BRANCH   4  20
ATOM     20  N   LIG    1        1.281   0.556  -0.418  0.00  0.00    -0.269 N 
ATOM     21  H   LIG    1        1.689  -0.148  -1.016  0.00  0.00    +0.156 HD
ATOM     22  C   LIG    1        2.137   1.430   0.149  0.00  0.00    +0.308 C 
ATOM     23  N   LIG    1        3.377   1.232  -0.344  0.00  0.00    -0.267 N 
ATOM     24  H   LIG    1        3.477   0.469  -0.997  0.00  0.00    +0.156 HD
ATOM     25  O   LIG    1        1.830   2.270   0.995  0.00  0.00    -0.252 OA
BRANCH  23  26
ATOM     26  C   LIG    1        4.584   1.908  -0.069  0.00  0.00    +0.070 A 
ATOM     27  C   LIG    1        4.689   3.067   0.722  0.00  0.00    +0.029 A 
ATOM     28  C   LIG    1        5.932   3.671   0.938  0.00  0.00    -0.049 A 
ATOM     29  C   LIG    1        6.035   4.913   1.806  0.00  0.00    +0.044 C 
ATOM     30  C   LIG    1        7.080   3.117   0.369  0.00  0.00    +0.006 A 
ATOM     31  C   LIG    1        6.986   1.971  -0.418  0.00  0.00    +0.040 A 
ATOM     32  C   LIG    1        5.747   1.369  -0.638  0.00  0.00    +0.145 A 
ATOM     33  F   LIG    1        5.689   0.255  -1.407  0.00  0.00    -0.204 F 
ENDBRANCH  23  26
ENDBRANCH   4  20
TORSDOF 4
