REMARK  Name = DB06791
REMARK                            x       y       z     vdW  Elec       q    Type
REMARK                         _______ _______ _______ _____ _____    ______ ____
ROOT
ATOM      1  S   LIG    1       -2.432  -1.417   0.113  0.00  0.00    -0.091 S 
ATOM      2  C   LIG    1       -0.690  -1.166   0.539  0.00  0.00    +0.112 C 
ATOM      3  C   LIG    1        0.066  -0.143  -0.339  0.00  0.00    +0.169 C 
ATOM      4  N   LIG    1       -0.492   1.209  -0.198  0.00  0.00    -0.302 N 
ATOM      5  H   LIG    1       -0.858   1.606  -1.052  0.00  0.00    +0.150 HD
ATOM      6  C   LIG    1       -0.503   1.981   0.907  0.00  0.00    +0.234 C 
ATOM      7  C   LIG    1       -1.000   3.436   0.750  0.00  0.00    +0.161 C 
ATOM      8  N   LIG    1       -2.442   3.548   0.488  0.00  0.00    -0.302 N 
ATOM      9  H   LIG    1       -2.968   3.954   1.248  0.00  0.00    +0.150 HD
ATOM     10  C   LIG    1       -3.114   3.239  -0.635  0.00  0.00    +0.234 C 
ATOM     11  C   LIG    1       -4.603   3.628  -0.650  0.00  0.00    +0.159 C 
ATOM     12  N   LIG    1       -5.333   2.651  -1.457  0.00  0.00    -0.302 N 
ATOM     13  H   LIG    1       -4.760   1.961  -1.921  0.00  0.00    +0.150 HD
ATOM     14  C   LIG    1       -6.670   2.579  -1.582  0.00  0.00    +0.234 C 
ATOM     15  C   LIG    1       -7.224   1.409  -2.416  0.00  0.00    +0.163 C 
ATOM     16  N   LIG    1       -6.482   0.164  -2.203  0.00  0.00    -0.302 N 
ATOM     17  H   LIG    1       -5.865  -0.037  -2.976  0.00  0.00    +0.150 HD
ATOM     18  C   LIG    1       -6.394  -0.711  -1.177  0.00  0.00    +0.234 C 
ATOM     19  C   LIG    1       -7.285  -0.715   0.107  0.00  0.00    +0.163 C 
ATOM     20  N   LIG    1       -6.538  -1.251   1.253  0.00  0.00    -0.302 N 
ATOM     21  H   LIG    1       -6.867  -2.142   1.592  0.00  0.00    +0.150 HD
ATOM     22  C   LIG    1       -5.510  -0.660   1.896  0.00  0.00    +0.235 C 
ATOM     23  C   LIG    1       -4.935  -1.388   3.127  0.00  0.00    +0.169 C 
ATOM     24  C   LIG    1       -3.452  -1.781   2.960  0.00  0.00    +0.112 C 
ATOM     25  O   LIG    1       -5.024   0.425   1.574  0.00  0.00    -0.274 OA
ATOM     26  O   LIG    1       -5.590  -1.637  -1.280  0.00  0.00    -0.274 OA
ATOM     27  O   LIG    1       -7.464   3.357  -1.055  0.00  0.00    -0.274 OA
ATOM     28  O   LIG    1       -2.607   2.737  -1.640  0.00  0.00    -0.274 OA
ATOM     29  O   LIG    1       -0.115   1.612   2.015  0.00  0.00    -0.274 OA
ATOM     30  S   LIG    1       -3.030  -2.784   1.503  0.00  0.00    -0.091 S 
ENDROOT
BRANCH   3  31
ATOM     31  C   LIG    1        1.587  -0.162  -0.091  0.00  0.00    +0.235 C 
ATOM     32  N   LIG    1        2.331   0.457  -1.028  0.00  0.00    -0.300 N 
ATOM     33  H   LIG    1        1.845   0.874  -1.808  0.00  0.00    +0.150 HD
ATOM     34  O   LIG    1        2.038  -0.714   0.913  0.00  0.00    -0.274 OA
BRANCH  32  35
ATOM     35  C   LIG    1        3.794   0.630  -1.067  0.00  0.00    +0.187 C 
BRANCH  35  36
ATOM     36  C   LIG    1        4.329   1.615   0.003  0.00  0.00    +0.233 C 
ATOM     37  N   LIG    1        5.206   2.533  -0.414  0.00  0.00    -0.328 N 
ATOM     38  H   LIG    1        5.490   2.570  -1.382  0.00  0.00    +0.145 HD
ATOM     39  H   LIG    1        5.593   3.195   0.243  0.00  0.00    +0.145 HD
ATOM     40  O   LIG    1        3.972   1.533   1.177  0.00  0.00    -0.274 OA
ENDBRANCH  35  36
BRANCH  35  41
ATOM     41  C   LIG    1        4.579  -0.713  -0.956  0.00  0.00    +0.141 C 
ATOM     42  C   LIG    1        6.109  -0.597  -1.098  0.00  0.00    +0.040 C 
BRANCH  41  43
ATOM     43  O   LIG    1        4.129  -1.600  -1.962  0.00  0.00    -0.390 OA
ATOM     44  H   LIG    1        3.210  -1.816  -1.787  0.00  0.00    +0.210 HD
ENDBRANCH  41  43
ENDBRANCH  35  41
ENDBRANCH  32  35
ENDBRANCH   3  31
BRANCH  23  45
ATOM     45  N   LIG    1       -5.711  -2.582   3.474  0.00  0.00    -0.302 N 
ATOM     46  H   LIG    1       -6.028  -3.140   2.695  0.00  0.00    +0.150 HD
ATOM     47  C   LIG    1       -6.017  -2.971   4.723  0.00  0.00    +0.231 C 
ATOM     48  O   LIG    1       -5.654  -2.370   5.737  0.00  0.00    -0.274 OA
BRANCH  47  49
ATOM     49  C   LIG    1       -6.898  -4.238   4.837  0.00  0.00    +0.142 C 
BRANCH  49  50
ATOM     50  N   LIG    1       -6.248  -5.166   5.779  0.00  0.00    -0.320 NA
ATOM     51  H   LIG    1       -6.573  -6.110   5.625  0.00  0.00    +0.119 HD
ATOM     52  H   LIG    1       -6.520  -4.939   6.726  0.00  0.00    +0.119 HD
ENDBRANCH  49  50
BRANCH  49  53
ATOM     53  C   LIG    1       -8.385  -3.928   5.165  0.00  0.00    +0.063 C 
BRANCH  53  54
ATOM     54  C   LIG    1       -8.627  -3.375   6.569  0.00  0.00    -0.045 A 
ATOM     55  C   LIG    1       -8.805  -4.244   7.646  0.00  0.00    +0.004 A 
ATOM     56  C   LIG    1       -9.027  -3.755   8.930  0.00  0.00    +0.009 A 
ATOM     57  C   LIG    1       -9.078  -2.359   9.165  0.00  0.00    -0.018 A 
ATOM     58  C   LIG    1       -9.296  -1.826  10.460  0.00  0.00    +0.008 A 
ATOM     59  C   LIG    1       -9.338  -0.448  10.656  0.00  0.00    +0.001 A 
ATOM     60  C   LIG    1       -9.167   0.424   9.585  0.00  0.00    +0.001 A 
ATOM     61  C   LIG    1       -8.952  -0.067   8.300  0.00  0.00    +0.008 A 
ATOM     62  C   LIG    1       -8.902  -1.464   8.067  0.00  0.00    -0.018 A 
ATOM     63  C   LIG    1       -8.680  -1.996   6.774  0.00  0.00    +0.012 A 
ENDBRANCH  53  54
ENDBRANCH  49  53
ENDBRANCH  47  49
ENDBRANCH  23  45
BRANCH   7  64
ATOM     64  C   LIG    1       -0.091   4.200  -0.272  0.00  0.00    +0.012 C 
ATOM     65  C   LIG    1       -0.493   5.680  -0.404  0.00  0.00    +0.009 C 
ATOM     66  C   LIG    1        1.417   4.114   0.050  0.00  0.00    +0.009 C 
ENDBRANCH   7  64
BRANCH  11  67
ATOM     67  C   LIG    1       -4.789   5.062  -1.217  0.00  0.00    +0.032 C 
BRANCH  67  68
ATOM     68  C   LIG    1       -4.473   6.183  -0.209  0.00  0.00    +0.003 C 
BRANCH  68  69
ATOM     69  C   LIG    1       -4.651   7.593  -0.795  0.00  0.00    +0.015 C 
BRANCH  69  70
ATOM     70  C   LIG    1       -3.559   7.972  -1.807  0.00  0.00    +0.077 C 
BRANCH  70  71
ATOM     71  N   LIG    1       -3.789   9.312  -2.307  0.00  0.00    -0.330 NA
ATOM     72  H   LIG    1       -3.800   9.966  -1.538  0.00  0.00    +0.118 HD
ATOM     73  H   LIG    1       -4.701   9.362  -2.740  0.00  0.00    +0.118 HD
ENDBRANCH  70  71
ENDBRANCH  69  70
ENDBRANCH  68  69
ENDBRANCH  67  68
ENDBRANCH  11  67
BRANCH  15  74
ATOM     74  C   LIG    1       -7.191   1.737  -3.926  0.00  0.00    +0.069 C 
BRANCH  74  75
ATOM     75  C   LIG    1       -7.828   3.029  -4.354  0.00  0.00    -0.020 A 
ATOM     76  C   LIG    1       -9.154   3.227  -4.535  0.00  0.00    +0.087 A 
ATOM     77  N   LIG    1       -9.384   4.547  -4.866  0.00  0.00    -0.360 N 
ATOM     78  H   LIG    1      -10.310   4.909  -5.043  0.00  0.00    +0.165 HD
ATOM     79  C   LIG    1       -8.215   5.277  -4.898  0.00  0.00    +0.047 A 
ATOM     80  C   LIG    1       -7.928   6.629  -5.158  0.00  0.00    +0.026 A 
ATOM     81  C   LIG    1       -6.595   7.073  -5.098  0.00  0.00    +0.002 A 
ATOM     82  C   LIG    1       -5.567   6.163  -4.784  0.00  0.00    +0.001 A 
ATOM     83  C   LIG    1       -5.866   4.809  -4.528  0.00  0.00    +0.010 A 
ATOM     84  C   LIG    1       -7.197   4.329  -4.574  0.00  0.00    +0.003 A 
ENDBRANCH  74  75
ENDBRANCH  15  74
BRANCH  19  85
ATOM     85  C   LIG    1       -8.051   0.558   0.553  0.00  0.00    +0.067 C 
BRANCH  85  86
ATOM     86  C   LIG    1       -8.872   0.397   1.825  0.00  0.00    -0.045 A 
ATOM     87  C   LIG    1       -8.475   1.044   3.015  0.00  0.00    +0.007 A 
ATOM     88  C   LIG    1       -9.233   0.892   4.192  0.00  0.00    +0.045 A 
ATOM     89  C   LIG    1      -10.392   0.092   4.186  0.00  0.00    +0.117 A 
ATOM     90  C   LIG    1      -10.790  -0.558   3.001  0.00  0.00    +0.045 A 
ATOM     91  C   LIG    1      -10.033  -0.404   1.823  0.00  0.00    +0.007 A 
BRANCH  89  92
ATOM     92  O   LIG    1      -11.125  -0.055   5.327  0.00  0.00    -0.507 OA
ATOM     93  H   LIG    1      -11.890  -0.623   5.215  0.00  0.00    +0.292 HD
ENDBRANCH  89  92
ENDBRANCH  85  86
ENDBRANCH  19  85
TORSDOF 21
