REMARK  Name = DB06197
REMARK                            x       y       z     vdW  Elec       q    Type
REMARK                         _______ _______ _______ _____ _____    ______ ____
ROOT
ATOM      1  C   LIG    1       -0.212  -0.005   0.105  0.00  0.00    +0.000 C 
ENDROOT
BRANCH   1   2
ATOM      2  C   LIG    1       -0.736   1.439   0.010  0.00  0.00    +0.005 C 
BRANCH   2   3
ATOM      3  C   LIG    1       -2.257   1.531   0.229  0.00  0.00    +0.035 C 
BRANCH   3   4
ATOM      4  C   LIG    1       -2.784   2.955   0.139  0.00  0.00    -0.047 A 
ATOM      5  C   LIG    1       -3.016   3.697   1.298  0.00  0.00    +0.015 A 
ATOM      6  C   LIG    1       -3.522   5.002   1.236  0.00  0.00    +0.024 A 
ATOM      7  C   LIG    1       -3.770   5.586  -0.022  0.00  0.00    +0.132 A 
ATOM      8  C   LIG    1       -3.535   4.830  -1.184  0.00  0.00    +0.046 A 
ATOM      9  C   LIG    1       -3.050   3.528  -1.104  0.00  0.00    +0.007 A 
BRANCH   6  10
ATOM     10  C   LIG    1       -3.770   5.744   2.504  0.00  0.00    -0.014 A 
ATOM     11  C   LIG    1       -2.760   5.866   3.467  0.00  0.00    +0.012 A 
ATOM     12  C   LIG    1       -2.975   6.577   4.653  0.00  0.00    -0.036 A 
ATOM     13  C   LIG    1       -4.226   7.156   4.889  0.00  0.00    +0.004 A 
ATOM     14  C   LIG    1       -5.243   7.032   3.946  0.00  0.00    +0.001 A 
ATOM     15  C   LIG    1       -5.015   6.332   2.762  0.00  0.00    +0.008 A 
BRANCH  12  16
ATOM     16  C   LIG    1       -1.853   6.717   5.684  0.00  0.00    +0.155 C 
BRANCH  16  17
ATOM     17  C   LIG    1       -1.044   8.027   5.530  0.00  0.00    +0.309 C 
ATOM     18  O   LIG    1       -0.669   8.583   6.587  0.00  0.00    -0.251 OA
BRANCH  17  19
ATOM     19  O   LIG    1       -0.771   8.448   4.381  0.00  0.00    -0.480 OA
ATOM     20  H   LIG    1       -1.082   7.986   3.627  0.00  0.00    +0.295 HD
ENDBRANCH  17  19
ENDBRANCH  16  17
ENDBRANCH  12  16
ENDBRANCH   6  10
BRANCH   7  21
ATOM     21  O   LIG    1       -4.228   6.895  -0.041  0.00  0.00    -0.460 OA
BRANCH  21  22
ATOM     22  C   LIG    1       -4.367   7.594  -1.249  0.00  0.00    +0.339 C 
ATOM     23  O   LIG    1       -5.438   7.108  -2.027  0.00  0.00    -0.331 OA
ATOM     24  C   LIG    1       -6.734   7.241  -1.428  0.00  0.00    +0.179 C 
ATOM     25  C   LIG    1       -7.059   8.734  -1.167  0.00  0.00    +0.177 C 
ATOM     26  C   LIG    1       -5.946   9.383  -0.317  0.00  0.00    +0.180 C 
ATOM     27  C   LIG    1       -4.549   9.091  -0.920  0.00  0.00    +0.214 C 
BRANCH  25  28
ATOM     28  O   LIG    1       -8.345   8.921  -0.599  0.00  0.00    -0.386 OA
ATOM     29  H   LIG    1       -8.315   8.627   0.315  0.00  0.00    +0.210 HD
ENDBRANCH  25  28
BRANCH  26  30
ATOM     30  O   LIG    1       -6.013   8.995   1.046  0.00  0.00    -0.386 OA
ATOM     31  H   LIG    1       -5.166   9.178   1.460  0.00  0.00    +0.210 HD
ENDBRANCH  26  30
BRANCH  27  32
ATOM     32  O   LIG    1       -4.318   9.886  -2.069  0.00  0.00    -0.383 OA
ATOM     33  H   LIG    1       -3.395   9.800  -2.320  0.00  0.00    +0.210 HD
ENDBRANCH  27  32
BRANCH  24  34
ATOM     34  C   LIG    1       -7.760   6.506  -2.320  0.00  0.00    +0.190 C 
BRANCH  34  35
ATOM     35  O   LIG    1       -7.897   7.115  -3.589  0.00  0.00    -0.392 OA
ATOM     36  H   LIG    1       -8.303   7.976  -3.471  0.00  0.00    +0.210 HD
ENDBRANCH  34  35
ENDBRANCH  24  34
ENDBRANCH  21  22
ENDBRANCH   7  21
ENDBRANCH   3   4
ENDBRANCH   2   3
ENDBRANCH   1   2
BRANCH   1  37
ATOM     37  C   LIG    1        1.303  -0.117  -0.143  0.00  0.00    +0.000 C 
BRANCH  37  38
ATOM     38  C   LIG    1        1.819  -1.562  -0.022  0.00  0.00    +0.005 C 
BRANCH  38  39
ATOM     39  C   LIG    1        3.329  -1.687  -0.293  0.00  0.00    +0.035 C 
BRANCH  39  40
ATOM     40  C   LIG    1        3.833  -3.115  -0.149  0.00  0.00    -0.047 A 
ATOM     41  C   LIG    1        3.715  -4.015  -1.209  0.00  0.00    +0.015 A 
ATOM     42  C   LIG    1        4.162  -5.341  -1.106  0.00  0.00    +0.024 A 
ATOM     43  C   LIG    1        4.748  -5.766   0.109  0.00  0.00    +0.132 A 
ATOM     44  C   LIG    1        4.867  -4.849   1.169  0.00  0.00    +0.046 A 
ATOM     45  C   LIG    1        4.414  -3.541   1.042  0.00  0.00    +0.007 A 
BRANCH  42  46
ATOM     46  C   LIG    1        4.022  -6.242  -2.296  0.00  0.00    -0.014 A 
ATOM     47  C   LIG    1        3.644  -7.588  -2.168  0.00  0.00    +0.012 A 
ATOM     48  C   LIG    1        3.546  -8.427  -3.284  0.00  0.00    -0.036 A 
ATOM     49  C   LIG    1        3.797  -7.908  -4.557  0.00  0.00    +0.004 A 
ATOM     50  C   LIG    1        4.160  -6.573  -4.708  0.00  0.00    +0.001 A 
ATOM     51  C   LIG    1        4.276  -5.753  -3.587  0.00  0.00    +0.008 A 
BRANCH  48  52
ATOM     52  C   LIG    1        3.166  -9.900  -3.116  0.00  0.00    +0.155 C 
BRANCH  52  53
ATOM     53  C   LIG    1        4.370 -10.867  -3.251  0.00  0.00    +0.309 C 
ATOM     54  O   LIG    1        4.129 -11.992  -3.744  0.00  0.00    -0.251 OA
BRANCH  53  55
ATOM     55  O   LIG    1        5.499 -10.509  -2.840  0.00  0.00    -0.480 OA
ATOM     56  H   LIG    1        5.616  -9.651  -2.480  0.00  0.00    +0.295 HD
ENDBRANCH  53  55
ENDBRANCH  52  53
ENDBRANCH  48  52
ENDBRANCH  42  46
BRANCH  43  57
ATOM     57  O   LIG    1        5.179  -7.080   0.210  0.00  0.00    -0.460 OA
BRANCH  57  58
ATOM     58  C   LIG    1        6.152  -7.451   1.151  0.00  0.00    +0.339 C 
ATOM     59  O   LIG    1        5.675  -7.441   2.477  0.00  0.00    -0.331 OA
ATOM     60  C   LIG    1        4.603  -8.352   2.752  0.00  0.00    +0.179 C 
ATOM     61  C   LIG    1        5.109  -9.799   2.546  0.00  0.00    +0.177 C 
ATOM     62  C   LIG    1        5.658  -9.968   1.113  0.00  0.00    +0.180 C 
ATOM     63  C   LIG    1        6.678  -8.853   0.768  0.00  0.00    +0.214 C 
BRANCH  61  64
ATOM     64  O   LIG    1        4.129 -10.775   2.859  0.00  0.00    -0.386 OA
ATOM     65  H   LIG    1        3.484 -10.791   2.147  0.00  0.00    +0.210 HD
ENDBRANCH  61  64
BRANCH  62  66
ATOM     66  O   LIG    1        4.612 -10.027   0.158  0.00  0.00    -0.386 OA
ATOM     67  H   LIG    1        4.992  -9.925  -0.719  0.00  0.00    +0.210 HD
ENDBRANCH  62  66
BRANCH  63  68
ATOM     68  O   LIG    1        7.925  -9.100   1.391  0.00  0.00    -0.383 OA
ATOM     69  H   LIG    1        8.578  -8.506   1.012  0.00  0.00    +0.210 HD
ENDBRANCH  63  68
BRANCH  60  70
ATOM     70  C   LIG    1        4.107  -8.082   4.189  0.00  0.00    +0.190 C 
BRANCH  70  71
ATOM     71  O   LIG    1        3.556  -6.784   4.292  0.00  0.00    -0.392 OA
ATOM     72  H   LIG    1        2.765  -6.744   3.749  0.00  0.00    +0.210 HD
ENDBRANCH  70  71
ENDBRANCH  60  70
ENDBRANCH  57  58
ENDBRANCH  43  57
ENDBRANCH  39  40
ENDBRANCH  38  39
ENDBRANCH  37  38
ENDBRANCH   1  37
TORSDOF 29
