REMARK  Name = DB06510
REMARK                            x       y       z     vdW  Elec       q    Type
REMARK                         _______ _______ _______ _____ _____    ______ ____
ROOT
ATOM      1  C   LIG    1        4.266   0.037   0.330  0.00  0.00    +0.121 A 
ATOM      2  C   LIG    1        3.567   0.018   1.548  0.00  0.00    +0.046 A 
ATOM      3  C   LIG    1        2.179   0.123   1.561  0.00  0.00    +0.009 A 
ATOM      4  C   LIG    1        1.478   0.261   0.363  0.00  0.00    -0.030 A 
ATOM      5  C   LIG    1        2.166   0.270  -0.851  0.00  0.00    +0.009 A 
ATOM      6  C   LIG    1        3.554   0.163  -0.863  0.00  0.00    +0.046 A 
ENDROOT
BRANCH   1   7
ATOM      7  O   LIG    1        5.639  -0.068   0.219  0.00  0.00    -0.492 OA
BRANCH   7   8
ATOM      8  C   LIG    1        6.434  -0.171   1.398  0.00  0.00    +0.235 C 
BRANCH   8   9
ATOM      9  C   LIG    1        7.926  -0.229   1.028  0.00  0.00    +0.100 C 
BRANCH   9  15
ATOM     10  C   LIG    1       10.030   2.270   2.088  0.00  0.00    +0.088 C 
ATOM     11  C   LIG    1        9.285   2.014   0.800  0.00  0.00    +0.126 A 
ATOM     12  O   LIG    1        9.431   2.923  -0.191  0.00  0.00    -0.440 OA
ATOM     13  C   LIG    1        8.662   2.440  -1.199  0.00  0.00    +0.228 A 
ATOM     14  N   LIG    1        8.058   1.310  -0.906  0.00  0.00    -0.214 NA
ATOM     15  C   LIG    1        8.425   1.026   0.334  0.00  0.00    +0.086 A 
BRANCH  13  16
ATOM     16  C   LIG    1        8.590   3.207  -2.481  0.00  0.00    +0.037 A 
ATOM     17  C   LIG    1        9.321   4.390  -2.638  0.00  0.00    +0.013 A 
ATOM     18  C   LIG    1        9.256   5.101  -3.834  0.00  0.00    +0.001 A 
ATOM     19  C   LIG    1        8.459   4.630  -4.874  0.00  0.00    +0.000 A 
ATOM     20  C   LIG    1        7.725   3.456  -4.729  0.00  0.00    +0.001 A 
ATOM     21  C   LIG    1        7.791   2.745  -3.534  0.00  0.00    +0.013 A 
ENDBRANCH  13  16
ENDBRANCH   9  15
ENDBRANCH   8   9
ENDBRANCH   7   8
ENDBRANCH   1   7
BRANCH   4  22
ATOM     22  C   LIG    1       -0.042   0.328   0.376  0.00  0.00    +0.146 C 
BRANCH  22  23
ATOM     23  N   LIG    1       -0.578   1.675   0.138  0.00  0.00    -0.252 N 
ATOM     24  C   LIG    1       -1.138   2.001  -1.112  0.00  0.00    +0.409 C 
ATOM     25  O   LIG    1       -1.189   1.238  -2.083  0.00  0.00    -0.226 OA
BRANCH  24  26
ATOM     26  O   LIG    1       -1.643   3.275  -1.117  0.00  0.00    -0.411 OA
BRANCH  26  27
ATOM     27  C   LIG    1       -2.394   3.713  -2.184  0.00  0.00    +0.133 A 
ATOM     28  C   LIG    1       -1.806   4.519  -3.159  0.00  0.00    +0.050 A 
ATOM     29  C   LIG    1       -2.569   4.985  -4.226  0.00  0.00    +0.049 A 
ATOM     30  C   LIG    1       -3.923   4.658  -4.327  0.00  0.00    +0.120 A 
ATOM     31  C   LIG    1       -4.512   3.857  -3.335  0.00  0.00    +0.049 A 
ATOM     32  C   LIG    1       -3.751   3.391  -2.267  0.00  0.00    +0.050 A 
BRANCH  30  33
ATOM     33  O   LIG    1       -4.598   5.164  -5.421  0.00  0.00    -0.495 OA
ATOM     34  C   LIG    1       -5.979   4.858  -5.587  0.00  0.00    +0.277 C 
ENDBRANCH  30  33
ENDBRANCH  26  27
ENDBRANCH  24  26
BRANCH  23  35
ATOM     35  C   LIG    1       -0.503   2.628   1.272  0.00  0.00    +0.231 C 
BRANCH  35  36
ATOM     36  C   LIG    1       -1.747   2.637   2.197  0.00  0.00    +0.322 C 
ATOM     37  O   LIG    1       -1.704   3.455   3.142  0.00  0.00    -0.249 OA
BRANCH  36  38
ATOM     38  O   LIG    1       -2.710   1.863   1.984  0.00  0.00    -0.480 OA
ATOM     39  H   LIG    1       -2.683   1.271   1.258  0.00  0.00    +0.295 HD
ENDBRANCH  36  38
ENDBRANCH  35  36
ENDBRANCH  23  35
ENDBRANCH  22  23
ENDBRANCH   4  22
TORSDOF 13
