REMARK  Name = DB06660
REMARK                            x       y       z     vdW  Elec       q    Type
REMARK                         _______ _______ _______ _____ _____    ______ ____
ROOT
ATOM      1  C   LIG    1        0.211  -0.089   0.208  0.00  0.00    -0.009 C 
ENDROOT
BRANCH   1   2
ATOM      2  C   LIG    1       -0.369   1.339   0.253  0.00  0.00    -0.078 C 
BRANCH   2   6
ATOM      3  C   LIG    1       -4.685   2.220   1.012  0.00  0.00    +0.056 C 
ATOM      4  C   LIG    1       -4.088   0.825   1.363  0.00  0.00    +0.012 C 
ATOM      5  C   LIG    1       -2.549   0.812   1.491  0.00  0.00    -0.076 C 
ATOM      6  N   LIG    1       -1.914   1.316   0.172  0.00  0.00    +0.380 N 
ATOM      7  H   LIG    1       -2.191   0.693  -0.573  0.00  0.00    -0.082 HD
ATOM      8  C   LIG    1       -2.437   2.725  -0.188  0.00  0.00    -0.076 C 
ATOM      9  C   LIG    1       -3.972   2.669  -0.306  0.00  0.00    +0.012 C 
BRANCH   3  10
ATOM     10  C   LIG    1       -6.226   2.064   0.855  0.00  0.00    -0.024 A 
ATOM     11  C   LIG    1       -6.997   1.692   1.969  0.00  0.00    +0.006 A 
ATOM     12  C   LIG    1       -8.377   1.548   1.869  0.00  0.00    +0.000 A 
ATOM     13  C   LIG    1       -9.006   1.777   0.650  0.00  0.00    +0.000 A 
ATOM     14  C   LIG    1       -8.265   2.149  -0.467  0.00  0.00    +0.000 A 
ATOM     15  C   LIG    1       -6.884   2.292  -0.366  0.00  0.00    +0.006 A 
ENDBRANCH   3  10
BRANCH   3  18
ATOM     16  C   LIG    1       -4.367   5.200   3.470  0.00  0.00    +0.109 C 
ATOM     17  C   LIG    1       -4.779   4.463   2.201  0.00  0.00    +0.211 C 
ATOM     18  N   LIG    1       -4.422   3.166   2.119  0.00  0.00    -0.306 N 
ATOM     19  H   LIG    1       -3.912   2.780   2.899  0.00  0.00    +0.150 HD
ATOM     20  O   LIG    1       -5.402   5.063   1.325  0.00  0.00    -0.276 OA
ENDBRANCH   3  18
ENDBRANCH   2   6
ENDBRANCH   1   2
BRANCH   1  21
ATOM     21  C   LIG    1        1.760  -0.131   0.160  0.00  0.00    +0.035 C 
BRANCH  21  22
ATOM     22  C   LIG    1        2.391   0.582   1.360  0.00  0.00    -0.041 A 
ATOM     23  C   LIG    1        3.138   1.751   1.172  0.00  0.00    +0.025 A 
ATOM     24  C   LIG    1        3.706   2.416   2.261  0.00  0.00    +0.060 A 
ATOM     25 CL   LIG    1        4.616   3.859   1.976  0.00  0.00    -0.082 Cl
ATOM     26  C   LIG    1        3.531   1.908   3.555  0.00  0.00    +0.059 A 
ATOM     27 CL   LIG    1        4.217   2.698   4.932  0.00  0.00    -0.082 Cl
ATOM     28  C   LIG    1        2.789   0.742   3.746  0.00  0.00    +0.022 A 
ATOM     29  C   LIG    1        2.221   0.083   2.657  0.00  0.00    +0.005 A 
ENDBRANCH  21  22
BRANCH  21  30
ATOM     30  C   LIG    1        2.325  -1.569   0.021  0.00  0.00    +0.115 C 
BRANCH  30  31
ATOM     31  N   LIG    1        1.945  -2.259  -1.224  0.00  0.00    -0.300 N 
ATOM     32  C   LIG    1        0.909  -3.143  -1.259  0.00  0.00    +0.246 C 
ATOM     33  O   LIG    1        0.455  -3.661  -0.236  0.00  0.00    -0.270 OA
ATOM     34  C   LIG    1        2.746  -1.864  -2.389  0.00  0.00    +0.132 C 
BRANCH  32  35
ATOM     35  C   LIG    1        0.247  -3.470  -2.581  0.00  0.00    +0.037 A 
ATOM     36  C   LIG    1       -0.027  -2.470  -3.527  0.00  0.00    +0.013 A 
ATOM     37  C   LIG    1       -0.662  -2.789  -4.724  0.00  0.00    +0.001 A 
ATOM     38  C   LIG    1       -1.040  -4.105  -4.976  0.00  0.00    +0.000 A 
ATOM     39  C   LIG    1       -0.795  -5.104  -4.038  0.00  0.00    +0.001 A 
ATOM     40  C   LIG    1       -0.160  -4.786  -2.840  0.00  0.00    +0.013 A 
ENDBRANCH  32  35
ENDBRANCH  30  31
ENDBRANCH  21  30
ENDBRANCH   1  21
TORSDOF 9
