REMARK  Name = DB06367
REMARK                            x       y       z     vdW  Elec       q    Type
REMARK                         _______ _______ _______ _____ _____    ______ ____
ROOT
ATOM      1  N   LIG    1       -0.896   2.170   0.794  0.00  0.00    -0.304 N 
ATOM      2  H   LIG    1       -0.363   2.793   0.204  0.00  0.00    +0.149 HD
ATOM      3  C   LIG    1       -0.263   1.125   1.360  0.00  0.00    +0.234 C 
ATOM      4  O   LIG    1       -0.819   0.290   2.076  0.00  0.00    -0.274 OA
ENDROOT
BRANCH   1  11
ATOM      5  C   LIG    1       -4.335   5.144  -1.333  0.00  0.00    +0.026 C 
ATOM      6  C   LIG    1       -4.928   4.382  -0.130  0.00  0.00    +0.077 C 
ATOM      7  N   LIG    1       -5.316   2.986  -0.509  0.00  0.00    -0.165 NA
ATOM      8  C   LIG    1       -4.653   1.761   0.006  0.00  0.00    +0.186 C 
ATOM      9  C   LIG    1       -3.139   1.789  -0.186  0.00  0.00    +0.169 C 
ATOM     10  O   LIG    1       -2.623   1.264  -1.175  0.00  0.00    -0.294 OA
ATOM     11  C   LIG    1       -2.327   2.477   0.934  0.00  0.00    +0.141 C 
ATOM     12  C   LIG    1       -2.558   4.004   0.995  0.00  0.00    +0.031 C 
ATOM     13  C   LIG    1       -4.025   4.482   1.130  0.00  0.00    +0.022 C 
BRANCH   7  14
ATOM     14  S   LIG    1       -6.685   2.741  -1.614  0.00  0.00    +0.079 S 
ATOM     15  O   LIG    1       -7.343   4.032  -1.853  0.00  0.00    -0.151 OA
ATOM     16  O   LIG    1       -7.463   1.596  -1.125  0.00  0.00    -0.151 OA
BRANCH  14  17
ATOM     17  C   LIG    1       -5.924   2.234  -3.154  0.00  0.00    +0.194 A 
ATOM     18  N   LIG    1       -5.437   3.238  -3.930  0.00  0.00    -0.236 NA
ATOM     19  C   LIG    1       -4.815   2.898  -5.088  0.00  0.00    +0.113 A 
ATOM     20  C   LIG    1       -4.651   1.574  -5.501  0.00  0.00    +0.020 A 
ATOM     21  C   LIG    1       -5.148   0.555  -4.685  0.00  0.00    +0.005 A 
ATOM     22  C   LIG    1       -5.793   0.882  -3.491  0.00  0.00    +0.049 A 
ENDBRANCH  14  17
ENDBRANCH   7  14
ENDBRANCH   1  11
BRANCH   3  23
ATOM     23  C   LIG    1        1.236   0.981   1.010  0.00  0.00    +0.159 C 
BRANCH  23  24
ATOM     24  N   LIG    1        2.007   0.352   2.089  0.00  0.00    -0.298 N 
ATOM     25  H   LIG    1        2.307  -0.596   1.915  0.00  0.00    +0.150 HD
ATOM     26  C   LIG    1        2.311   0.921   3.272  0.00  0.00    +0.280 C 
ATOM     27  O   LIG    1        1.986   2.065   3.593  0.00  0.00    -0.267 OA
BRANCH  26  28
ATOM     28  C   LIG    1        3.071   0.084   4.166  0.00  0.00    +0.190 A 
ATOM     29  O   LIG    1        3.420  -1.181   3.773  0.00  0.00    -0.450 OA
ATOM     30  C   LIG    1        4.122  -1.729   4.808  0.00  0.00    +0.136 A 
ATOM     31  C   LIG    1        4.672  -3.016   4.838  0.00  0.00    +0.047 A 
ATOM     32  C   LIG    1        5.356  -3.384   5.998  0.00  0.00    +0.004 A 
ATOM     33  C   LIG    1        5.483  -2.504   7.075  0.00  0.00    +0.001 A 
ATOM     34  C   LIG    1        4.931  -1.220   7.037  0.00  0.00    +0.011 A 
ATOM     35  C   LIG    1        4.236  -0.819   5.884  0.00  0.00    +0.021 A 
ATOM     36  C   LIG    1        3.546   0.354   5.447  0.00  0.00    +0.063 A 
ENDBRANCH  26  28
ENDBRANCH  23  24
BRANCH  23  37
ATOM     37  C   LIG    1        1.415   0.168  -0.301  0.00  0.00    +0.034 C 
BRANCH  37  38
ATOM     38  C   LIG    1        2.862   0.109  -0.848  0.00  0.00    -0.015 C 
ATOM     39  C   LIG    1        2.963  -0.867  -2.041  0.00  0.00    +0.007 C 
ATOM     40  C   LIG    1        3.421   1.507  -1.189  0.00  0.00    +0.007 C 
ENDBRANCH  37  38
ENDBRANCH  23  37
ENDBRANCH   3  23
TORSDOF 8
