REMARK  Name = DB06253
REMARK                            x       y       z     vdW  Elec       q    Type
REMARK                         _______ _______ _______ _____ _____    ______ ____
ROOT
ATOM      1  C   LIG    1        0.057  -0.026  -0.046  0.00  0.00    +0.002 C 
ENDROOT
BRANCH   1   2
ATOM      2  C   LIG    1       -0.546   1.391  -0.011  0.00  0.00    +0.015 C 
BRANCH   2   4
ATOM      3  C   LIG    1       -2.692   0.857  -1.388  0.00  0.00    +0.026 C 
ATOM      4  C   LIG    1       -2.087   1.409  -0.079  0.00  0.00    +0.058 C 
ATOM      5  S   LIG    1       -2.697   3.102   0.101  0.00  0.00    -0.090 S 
ATOM      6  S   LIG    1       -4.595   2.463  -0.241  0.00  0.00    -0.093 S 
ATOM      7  C   LIG    1       -4.053   1.515  -1.683  0.00  0.00    +0.082 C 
ENDBRANCH   2   4
ENDBRANCH   1   2
BRANCH   1   8
ATOM      8  C   LIG    1        1.593  -0.027   0.057  0.00  0.00    +0.011 C 
BRANCH   8   9
ATOM      9  C   LIG    1        2.191  -1.458   0.025  0.00  0.00    +0.120 C 
BRANCH   9  10
ATOM     10  C   LIG    1        3.737  -1.527   0.095  0.00  0.00    +0.305 C 
ATOM     11  O   LIG    1        4.243  -2.660  -0.072  0.00  0.00    -0.251 OA
BRANCH  10  12
ATOM     12  O   LIG    1        4.404  -0.491   0.322  0.00  0.00    -0.481 OA
ATOM     13  H   LIG    1        3.969   0.331   0.439  0.00  0.00    +0.295 HD
ENDBRANCH  10  12
ENDBRANCH   9  10
ENDBRANCH   8   9
ENDBRANCH   1   8
TORSDOF 6
