REMARK  Name = DB06402
REMARK                            x       y       z     vdW  Elec       q    Type
REMARK                         _______ _______ _______ _____ _____    ______ ____
ROOT
ATOM      1  C   UNK A  1        1.279   1.761   1.171  0.00  0.00    +0.208 A 
ATOM      2  C   UNK A  1        1.038   2.677   0.120  0.00  0.00    +0.174 A 
ATOM      3  C   UNK A  1        2.064   3.542  -0.289  0.00  0.00    +0.056 A 
ATOM      4  C   UNK A  1        3.350   3.482   0.254  0.00  0.00    -0.011 A 
ATOM      5  C   UNK A  1        3.573   2.560   1.276  0.00  0.00    +0.056 A 
ATOM      6  C   UNK A  1        4.449   4.390  -0.301  0.00  0.00    +0.190 C 
ATOM      7  C   UNK A  1        4.687   4.111  -1.801  0.00  0.00    +0.239 C 
ATOM      8  O   UNK A  1        4.959   2.967  -2.172  0.00  0.00    -0.273 OA
ATOM      9  N   UNK A  1        4.486   5.146  -2.638  0.00  0.00    -0.299 N 
ATOM     10  H   UNK A  1        4.232   6.040  -2.241  0.00  0.00    +0.150 HD
ATOM     11  C   UNK A  1        4.290   5.034  -4.092  0.00  0.00    +0.190 C 
ATOM     12  C   UNK A  1        2.836   4.607  -4.440  0.00  0.00    +0.239 C 
ATOM     13  O   UNK A  1        1.928   4.877  -3.654  0.00  0.00    -0.273 OA
ATOM     14  N   UNK A  2        2.641   4.162  -5.698  0.00  0.00    -0.300 N 
ATOM     15  H   UNK A  2        3.461   3.955  -6.250  0.00  0.00    +0.150 HD
ATOM     16  C   UNK A  2        1.400   4.282  -6.492  0.00  0.00    +0.192 C 
ATOM     17  C   UNK A  2        1.008   5.779  -6.681  0.00  0.00    +0.237 C 
ATOM     18  N   UNK A  3        1.935   6.531  -7.309  0.00  0.00    -0.297 N 
ATOM     19  H   UNK A  3        2.794   6.076  -7.582  0.00  0.00    +0.150 HD
ATOM     20  C   UNK A  3        1.773   7.885  -7.871  0.00  0.00    +0.213 C 
ATOM     21  C   UNK A  3        1.639   9.012  -6.840  0.00  0.00    -0.002 A 
ATOM     22  C   UNK A  3        2.629   9.354  -5.883  0.00  0.00    +0.033 A 
ATOM     23  C   UNK A  3        2.439  10.483  -5.064  0.00  0.00    +0.133 A 
ATOM     24  C   UNK A  3        1.277  11.265  -5.168  0.00  0.00    +0.050 A 
ATOM     25  C   UNK A  3        0.300  10.911  -6.107  0.00  0.00    +0.125 A 
ATOM     26  C   UNK A  1        3.819   8.487  -5.656  0.00  0.00    +0.028 A 
ATOM     27  C   UNK A  1        3.634   7.363  -4.862  0.00  0.00    +0.018 A 
ATOM     28  C   UNK A  1        5.088   8.724  -6.202  0.00  0.00    +0.125 A 
ATOM     29  C   UNK A  1        6.117   7.799  -5.996  0.00  0.00    +0.046 A 
ATOM     30  C   UNK A  1        5.880   6.623  -5.278  0.00  0.00    +0.009 A 
ATOM     31  C   UNK A  3        0.489   9.805  -6.928  0.00  0.00    +0.052 A 
ATOM     32  O   UNK A  2       -0.071   6.210  -6.278  0.00  0.00    -0.274 OA
ATOM     33  C   UNK A  2        0.246   3.242  -6.192  0.00  0.00    +0.174 C 
ATOM     34  C   UNK A  2       -0.026   2.995  -4.707  0.00  0.00    -0.015 A 
ATOM     35  C   UNK A  2        0.683   1.990  -4.039  0.00  0.00    +0.010 A 
ATOM     36  C   UNK A  2        0.590   1.865  -2.656  0.00  0.00    +0.048 A 
ATOM     37  C   UNK A  2       -0.207   2.747  -1.915  0.00  0.00    +0.147 A 
ATOM     38  C   UNK A  2       -0.988   3.693  -2.590  0.00  0.00    +0.083 A 
ATOM     39 CL   UNK A  2       -2.008   4.776  -1.711  0.00  0.00    -0.080 Cl
ATOM     40  C   UNK A  2       -0.905   3.808  -3.980  0.00  0.00    +0.030 A 
ATOM     41  C   UNK A  1        4.621   6.379  -4.718  0.00  0.00    -0.018 A 
ATOM     42  N   UNK A  1        5.741   4.293   0.400  0.00  0.00    -0.299 N 
ATOM     43  H   UNK A  1        6.480   3.830  -0.110  0.00  0.00    +0.150 HD
ATOM     44  C   UNK A  1        6.023   4.870   1.585  0.00  0.00    +0.235 C 
ATOM     45  O   UNK A  1        5.196   5.473   2.268  0.00  0.00    -0.274 OA
ATOM     46  C   UNK A  1        7.471   4.771   2.088  0.00  0.00    +0.168 C 
ATOM     47  N   UNK A  1        7.911   3.373   2.129  0.00  0.00    -0.302 N 
ATOM     48  H   UNK A  1        7.803   2.858   1.268  0.00  0.00    +0.150 HD
ATOM     49  C   UNK A  1        8.516   2.771   3.173  0.00  0.00    +0.237 C 
ATOM     50  O   UNK A  1        8.684   3.302   4.270  0.00  0.00    -0.274 OA
ATOM     51  C   UNK A  1        9.056   1.330   2.962  0.00  0.00    +0.192 C 
ATOM     52  C   UNK A  1        8.335   0.264   3.857  0.00  0.00    +0.174 C 
ATOM     53  C   UNK A  1        6.817   0.254   3.651  0.00  0.00    -0.015 A 
ATOM     54  C   UNK A  1        6.004   1.035   4.481  0.00  0.00    +0.030 A 
ATOM     55  C   UNK A  1        4.641   1.161   4.223  0.00  0.00    +0.083 A 
ATOM     56 CL   UNK A  1        3.681   2.203   5.212  0.00  0.00    -0.080 Cl
ATOM     57  C   UNK A  1        4.077   0.497   3.129  0.00  0.00    +0.147 A 
ATOM     58  C   UNK A  1        4.866  -0.349   2.345  0.00  0.00    +0.048 A 
ATOM     59  O   UNK A  1        2.788   0.773   2.743  0.00  0.00    -0.451 OA
ATOM     60  C   UNK A  1        6.230  -0.468   2.603  0.00  0.00    +0.010 A 
ATOM     61  O   UNK A  2       -0.178   2.742  -0.534  0.00  0.00    -0.451 OA
ATOM     62  C   UNK A  1        2.562   1.699   1.735  0.00  0.00    +0.174 A 
ENDROOT
BRANCH  51  63
ATOM     63  N   UNK A  1        9.127   0.950   1.540  0.00  0.00    -0.300 N 
ATOM     64  H   UNK A  1        8.401   0.329   1.214  0.00  0.00    +0.150 HD
ATOM     65  C   UNK A  1       10.000   1.467   0.653  0.00  0.00    +0.231 C 
ATOM     66  O   UNK A  1       10.916   2.233   0.968  0.00  0.00    -0.274 OA
BRANCH  65  67
ATOM     67  C   UNK A  1        9.752   1.120  -0.833  0.00  0.00    +0.140 C 
BRANCH  67  68
ATOM     68  N   UNK A  1       11.076   0.787  -1.414  0.00  0.00    -0.309 NA
ATOM     69  H   UNK A  1       11.697   0.482  -0.677  0.00  0.00    +0.122 HD
ATOM     70  C   ACE A  0       11.047  -0.274  -2.409  0.00  0.00    +0.101 C 
ENDBRANCH  67  68
BRANCH  67  71
ATOM     71  C   UNK A  1        9.046   2.334  -1.508  0.00  0.00    +0.031 C 
BRANCH  71  72
ATOM     72  C   UNK A  1        8.583   2.139  -2.969  0.00  0.00    -0.015 C 
ATOM     73  C   UNK A  1        7.551   0.997  -3.109  0.00  0.00    +0.007 C 
ATOM     74  C   UNK A  1        8.070   3.471  -3.561  0.00  0.00    +0.007 C 
ENDBRANCH  71  72
ENDBRANCH  67  71
ENDBRANCH  65  67
ENDBRANCH  51  63
BRANCH  23  75
ATOM     75  O   UNK A  3        3.394  10.818  -4.131  0.00  0.00    -0.506 OA
ATOM     76  H   UNK A  3        4.150  10.226  -4.145  0.00  0.00    +0.292 HD
ENDBRANCH  23  75
BRANCH  25  77
ATOM     77  O   UNK A  3       -0.857  11.636  -6.245  0.00  0.00    -0.506 OA
ATOM     78  H   UNK A  3       -1.441  11.282  -6.920  0.00  0.00    +0.292 HD
ENDBRANCH  25  77
BRANCH  28  79
ATOM     79  O   UNK A  1        5.331   9.844  -6.957  0.00  0.00    -0.506 OA
ATOM     80  H   UNK A  1        6.234   9.890  -7.281  0.00  0.00    +0.292 HD
ENDBRANCH  28  79
BRANCH  33  81
ATOM     81  O   UNK A  2       -0.931   3.510  -6.940  0.00  0.00    -0.385 OA
ATOM     82  H   UNK A  2       -1.467   2.714  -6.962  0.00  0.00    +0.210 HD
ENDBRANCH  33  81
BRANCH  20  83
ATOM     83  C   UNK A  3        2.886   8.175  -8.904  0.00  0.00    +0.330 C 
ATOM     84  O   UNK A  3        3.865   7.475  -9.080  0.00  0.00    -0.249 OA
BRANCH  83  85
ATOM     85  O   UNK A  3        2.602   9.328  -9.579  0.00  0.00    -0.479 OA
ATOM     86  H   UNK A  3        3.274   9.547 -10.228  0.00  0.00    +0.295 HD
ENDBRANCH  83  85
ENDBRANCH  20  83
BRANCH  52  87
ATOM     87  O   UNK A  1        8.922  -1.011   3.656  0.00  0.00    -0.385 OA
ATOM     88  H   UNK A  1        8.861  -1.235   2.725  0.00  0.00    +0.210 HD
ENDBRANCH  52  87
BRANCH   1  89
ATOM     89  O   UNK A  1        0.365   0.868   1.715  0.00  0.00    -0.453 OA
BRANCH  89  95
ATOM     90  C   UNK A  1       -1.650  -0.293   2.116  0.00  0.00    +0.220 C 
ATOM     91  C   UNK A  1       -3.173  -0.300   1.810  0.00  0.00    +0.180 C 
ATOM     92  C   UNK A  1       -3.805   1.105   1.973  0.00  0.00    +0.177 C 
ATOM     93  C   UNK A  1       -2.939   2.198   1.294  0.00  0.00    +0.179 C 
ATOM     94  O   UNK A  1       -1.595   2.072   1.766  0.00  0.00    -0.331 OA
ATOM     95  C   UNK A  1       -0.987   0.872   1.365  0.00  0.00    +0.340 C 
BRANCH  92  96
ATOM     96  O   UNK A  1       -5.145   1.122   1.508  0.00  0.00    -0.386 OA
ATOM     97  H   UNK A  1       -5.157   0.826   0.594  0.00  0.00    +0.210 HD
ENDBRANCH  92  96
BRANCH  91  98
ATOM     98  O   UNK A  1       -3.868  -1.243   2.608  0.00  0.00    -0.386 OA
ATOM     99  H   UNK A  1       -3.783  -0.985   3.529  0.00  0.00    +0.210 HD
ENDBRANCH  91  98
BRANCH  90 100
ATOM    100  O   UNK A  1       -0.992  -1.490   1.692  0.00  0.00    -0.339 OA
BRANCH 100 106
ATOM    101  C   UNK A  1        1.226  -3.658   1.611  0.00  0.00    +0.049 C 
ATOM    102  C   UNK A  1        1.873  -3.263   2.978  0.00  0.00    +0.163 C 
ATOM    103  C   UNK A  1        1.158  -2.044   3.619  0.00  0.00    +0.148 C 
ATOM    104  C   UNK A  1        1.739  -1.617   4.979  0.00  0.00    +0.041 C 
ATOM    105  O   UNK A  1       -0.246  -2.275   3.768  0.00  0.00    -0.346 OA
ATOM    106  C   UNK A  1       -0.939  -2.571   2.579  0.00  0.00    +0.253 C 
ATOM    107  C   UNK A  1        1.555  -2.570   0.543  0.00  0.00    +0.030 C 
ATOM    108  C   UNK A  1       -0.315  -3.771   1.842  0.00  0.00    +0.085 C 
BRANCH 101 109
ATOM    109  N   UNK A  1        1.807  -4.926   1.138  0.00  0.00    -0.307 NA
ATOM    110  H   UNK A  1        2.793  -4.805   0.957  0.00  0.00    +0.123 HD
BRANCH 109 111
ATOM    111  C   UNK A  1        1.164  -5.561  -0.014  0.00  0.00    +0.096 C 
BRANCH 111 112
ATOM    112  C   UNK A  1        2.063  -6.653  -0.620  0.00  0.00    +0.096 C 
BRANCH 112 113
ATOM    113  N   UNK A  1        3.222  -6.046  -1.263  0.00  0.00    -0.315 NA
ATOM    114  H   UNK A  1        3.806  -5.607  -0.566  0.00  0.00    +0.122 HD
BRANCH 113 115
ATOM    115  C   UNK A  1        4.004  -7.027  -2.002  0.00  0.00    +0.081 C 
BRANCH 115 116
ATOM    116  C   UNK A  1        5.243  -6.361  -2.630  0.00  0.00    +0.015 C 
BRANCH 116 117
ATOM    117  C   UNK A  1        4.923  -5.227  -3.632  0.00  0.00    +0.001 C 
BRANCH 117 118
ATOM    118  C   UNK A  1        6.161  -4.573  -4.282  0.00  0.00    +0.000 C 
BRANCH 118 119
ATOM    119  C   UNK A  1        7.196  -3.980  -3.302  0.00  0.00    +0.000 C 
BRANCH 119 120
ATOM    120  C   UNK A  1        6.632  -2.916  -2.336  0.00  0.00    -0.000 C 
BRANCH 120 121
ATOM    121  C   UNK A  1        7.685  -2.305  -1.393  0.00  0.00    -0.000 C 
BRANCH 121 122
ATOM    122  C   UNK A  1        8.245  -3.288  -0.346  0.00  0.00    -0.000 C 
BRANCH 122 123
ATOM    123  C   UNK A  1        9.310  -2.652   0.562  0.00  0.00    -0.003 C 
ATOM    124  C   UNK A  1        9.816  -3.606   1.652  0.00  0.00    +0.004 C 
ENDBRANCH 122 123
ENDBRANCH 121 122
ENDBRANCH 120 121
ENDBRANCH 119 120
ENDBRANCH 118 119
ENDBRANCH 117 118
ENDBRANCH 116 117
ENDBRANCH 115 116
ENDBRANCH 113 115
ENDBRANCH 112 113
ENDBRANCH 111 112
ENDBRANCH 109 111
ENDBRANCH 101 109
BRANCH 102 125
ATOM    125  O   UNK A  1        1.898  -4.338   3.910  0.00  0.00    -0.387 OA
ATOM    126  H   UNK A  1        0.995  -4.620   4.070  0.00  0.00    +0.210 HD
ENDBRANCH 102 125
ENDBRANCH 100 106
ENDBRANCH  90 100
BRANCH  93 127
ATOM    127  C   UNK A  1       -3.385   3.645   1.600  0.00  0.00    +0.190 C 
BRANCH 127 128
ATOM    128  O   UNK A  1       -4.575   3.988   0.919  0.00  0.00    -0.392 OA
ATOM    129  H   UNK A  1       -5.294   3.462   1.278  0.00  0.00    +0.210 HD
ENDBRANCH 127 128
ENDBRANCH  93 127
ENDBRANCH  89  95
ENDBRANCH   1  89
BRANCH  24 130
ATOM    130  C   UNK A  3        1.074  12.487  -4.262  0.00  0.00    +0.124 C 
BRANCH 130 131
ATOM    131  N   UNK A  3        0.757  12.142  -2.878  0.00  0.00    -0.302 NA
ATOM    132  H   UNK A  3        1.521  11.572  -2.541  0.00  0.00    +0.123 HD
BRANCH 131 133
ATOM    133  C   UNK A  3       -0.494  11.402  -2.758  0.00  0.00    +0.209 C 
BRANCH 133 134
ATOM    134  P   UNK A  3       -0.868  11.360  -0.958  0.00  0.00    +0.341 P 
ATOM    135  O   UNK A  3        0.146  10.792  -0.028  0.00  0.00    -0.257 OA
BRANCH 134 136
ATOM    136  O   UNK A  3       -1.272  12.905  -0.656  0.00  0.00    -0.323 OA
ATOM    137  H   UNK A  3       -1.950  13.293  -1.241  0.00  0.00    +0.220 HD
ENDBRANCH 134 136
BRANCH 134 138
ATOM    138  O   UNK A  3       -2.305  10.602  -0.935  0.00  0.00    -0.323 OA
ATOM    139  H   UNK A  3       -3.003  10.986  -1.499  0.00  0.00    +0.220 HD
ENDBRANCH 134 138
ENDBRANCH 133 134
ENDBRANCH 131 133
ENDBRANCH 130 131
ENDBRANCH  24 130
BRANCH  46 140
ATOM    140  C   UNK A  1        8.407   5.601   1.171  0.00  0.00    +0.127 C 
BRANCH 140 141
ATOM    141  C   UNK A  1        9.859   5.687   1.656  0.00  0.00    +0.213 C 
ATOM    142  N   UNK A  1       10.817   5.528   0.738  0.00  0.00    -0.329 N 
ATOM    143  H   UNK A  1       10.580   5.346  -0.226  0.00  0.00    +0.145 HD
ATOM    144  H   UNK A  1       11.789   5.580   1.007  0.00  0.00    +0.145 HD
ATOM    145  O   UNK A  1       10.116   5.914   2.836  0.00  0.00    -0.276 OA
ENDBRANCH 140 141
ENDBRANCH  46 140
TORSDOF 42
