REMARK  Name = DB06429
REMARK                            x       y       z     vdW  Elec       q    Type
REMARK                         _______ _______ _______ _____ _____    ______ ____
ROOT
ATOM      1  C   LIG    1       -2.977   0.887  -0.688  0.00  0.00    +0.155 A 
ATOM      2  C   LIG    1       -4.354   0.684  -0.867  0.00  0.00    +0.114 A 
ATOM      3  N   LIG    1       -5.104  -0.019   0.018  0.00  0.00    -0.243 NA
ATOM      4  C   LIG    1       -4.522  -0.541   1.127  0.00  0.00    +0.073 A 
ATOM      5  C   LIG    1       -5.343  -1.268   2.023  0.00  0.00    +0.028 A 
ATOM      6  C   LIG    1       -4.798  -1.834   3.171  0.00  0.00    +0.002 A 
ATOM      7  C   LIG    1       -3.445  -1.695   3.451  0.00  0.00    +0.001 A 
ATOM      8  C   LIG    1       -2.613  -0.984   2.591  0.00  0.00    +0.011 A 
ATOM      9  C   LIG    1       -3.128  -0.381   1.403  0.00  0.00    +0.016 A 
ATOM     10  C   LIG    1       -2.343   0.362   0.456  0.00  0.00    +0.089 A 
ENDROOT
BRANCH   2  11
ATOM     11  C   LIG    1       -5.122   1.214  -2.035  0.00  0.00    +0.004 A 
ATOM     12  C   LIG    1       -5.014   2.559  -2.410  0.00  0.00    +0.010 A 
ATOM     13  C   LIG    1       -5.732   3.054  -3.497  0.00  0.00    +0.001 A 
ATOM     14  C   LIG    1       -6.567   2.203  -4.216  0.00  0.00    +0.000 A 
ATOM     15  C   LIG    1       -6.690   0.864  -3.856  0.00  0.00    +0.001 A 
ATOM     16  C   LIG    1       -5.971   0.374  -2.769  0.00  0.00    +0.010 A 
ENDBRANCH   2  11
BRANCH  10  17
ATOM     17  C   LIG    1       -0.866   0.570   0.690  0.00  0.00    +0.249 C 
ATOM     18  N   LIG    1       -0.060   0.001  -0.227  0.00  0.00    -0.304 N 
ATOM     19  H   LIG    1       -0.492  -0.386  -1.054  0.00  0.00    +0.150 HD
ATOM     20  O   LIG    1       -0.466   1.213   1.662  0.00  0.00    -0.270 OA
BRANCH  18  21
ATOM     21  C   LIG    1        1.409   0.062  -0.246  0.00  0.00    +0.103 C 
BRANCH  21  22
ATOM     22  C   LIG    1        2.092  -0.469   1.023  0.00  0.00    -0.027 A 
ATOM     23  C   LIG    1        1.621  -1.622   1.664  0.00  0.00    +0.005 A 
ATOM     24  C   LIG    1        2.238  -2.079   2.825  0.00  0.00    +0.000 A 
ATOM     25  C   LIG    1        3.324  -1.382   3.349  0.00  0.00    +0.000 A 
ATOM     26  C   LIG    1        3.799  -0.233   2.722  0.00  0.00    +0.000 A 
ATOM     27  C   LIG    1        3.183   0.224   1.560  0.00  0.00    +0.005 A 
ENDBRANCH  21  22
BRANCH  21  28
ATOM     28  C   LIG    1        1.990  -0.629  -1.502  0.00  0.00    +0.024 C 
ATOM     29  C   LIG    1        1.389  -0.155  -2.837  0.00  0.00    +0.006 C 
ENDBRANCH  21  28
ENDBRANCH  18  21
ENDBRANCH  10  17
BRANCH   1  30
ATOM     30  O   LIG    1       -2.261   1.591  -1.632  0.00  0.00    -0.504 OA
ATOM     31  H   LIG    1       -1.335   1.690  -1.401  0.00  0.00    +0.292 HD
ENDBRANCH   1  30
TORSDOF 6
