REMARK  Name = DB06182
REMARK                            x       y       z     vdW  Elec       q    Type
REMARK                         _______ _______ _______ _____ _____    ______ ____
ROOT
ATOM      1  C   LIG    1       -1.769   1.576  -0.574  0.00  0.00    +0.000 C 
ATOM      2  N   LIG    1       -0.432   1.178  -0.117  0.00  0.00    +0.000 N 
ATOM      3  C   LIG    1       -0.042  -0.113   0.043  0.00  0.00    +0.000 C 
ATOM      4  O   LIG    1       -0.809  -1.068  -0.122  0.00  0.00    +0.000 OA
ATOM      5  C   LIG    1        0.482   2.330  -0.101  0.00  0.00    +0.000 C 
ATOM      6  C   LIG    1       -0.297   3.436  -0.827  0.00  0.00    +0.000 C 
ATOM      7  C   LIG    1       -1.474   2.748  -1.505  0.00  0.00    +0.000 C 
ENDROOT
BRANCH   1   8
ATOM      8  B   LIG    1       -3.237   1.040  -0.226  0.00  0.00    +0.000 B 
BRANCH   8   9
ATOM      9  O   LIG    1       -3.433  -0.015   0.637  0.00  0.00    +0.000 OA
ATOM     10  H   LIG    1       -4.349  -0.299   0.646  0.00  0.00    +0.000 HD
ENDBRANCH   8   9
BRANCH   8  11
ATOM     11  O   LIG    1       -4.287   1.435  -1.011  0.00  0.00    +0.000 OA
ATOM     12  H   LIG    1       -4.026   2.107  -1.644  0.00  0.00    +0.000 HD
ENDBRANCH   8  11
ENDBRANCH   1   8
BRANCH   3  13
ATOM     13  C   LIG    1        1.445  -0.397   0.426  0.00  0.00    +0.000 C 
BRANCH  13  14
ATOM     14  N   LIG    1        1.401  -1.345   1.598  0.00  0.00    +0.000 N 
ATOM     15  H   LIG    1        0.946  -2.200   1.311  0.00  0.00    +0.000 HD
ATOM     16  H   LIG    1        2.345  -1.544   1.894  0.00  0.00    +0.000 HD
ATOM     17  H   LIG    1        0.890  -0.913   2.355  0.00  0.00    +0.000 HD
ENDBRANCH  13  14
BRANCH  13  18
ATOM     18  C   LIG    1        2.270  -0.962  -0.787  0.00  0.00    +0.000 C 
ATOM     19  C   LIG    1        1.943  -0.368  -2.179  0.00  0.00    +0.000 C 
ATOM     20  C   LIG    1        3.783  -0.790  -0.543  0.00  0.00    +0.000 C 
ENDBRANCH  13  18
ENDBRANCH   3  13
TORSDOF 6
