REMARK  Name = DB06199
REMARK                            x       y       z     vdW  Elec       q    Type
REMARK                         _______ _______ _______ _____ _____    ______ ____
ROOT
ATOM      1  C   LIG    1       -2.552   3.203  -0.438  0.00  0.00    +0.128 C 
ATOM      2  C   LIG    1       -2.204   1.715  -0.126  0.00  0.00    +0.102 C 
ATOM      3  N   LIG    1       -0.758   1.602  -0.335  0.00  0.00    -0.286 NA
ATOM      4  C   LIG    1       -0.516   2.430  -1.510  0.00  0.00    +0.094 C 
ATOM      5  C   LIG    1       -1.364   3.690  -1.317  0.00  0.00    +0.049 C 
ENDROOT
BRANCH   5   6
ATOM      6  C   LIG    1       -0.619   4.901  -0.743  0.00  0.00    -0.039 A 
ATOM      7  C   LIG    1       -0.766   6.163  -1.354  0.00  0.00    +0.008 A 
ATOM      8  C   LIG    1       -0.098   7.290  -0.856  0.00  0.00    +0.050 A 
ATOM      9  C   LIG    1        0.704   7.119   0.267  0.00  0.00    +0.166 A 
ATOM     10  C   LIG    1        0.848   5.902   0.869  0.00  0.00    +0.166 A 
ATOM     11  O   LIG    1        1.706   6.016   1.916  0.00  0.00    -0.453 OA
ATOM     12  C   LIG    1        1.923   7.393   2.077  0.00  0.00    +0.466 C 
ATOM     13  O   LIG    1        1.465   8.037   0.917  0.00  0.00    -0.453 OA
ATOM     14  C   LIG    1        0.205   4.766   0.390  0.00  0.00    +0.053 A 
ENDBRANCH   5   6
BRANCH   2  15
ATOM     15  C   LIG    1       -2.650   1.224   1.256  0.00  0.00    -0.029 A 
ATOM     16  C   LIG    1       -2.095   1.766   2.419  0.00  0.00    +0.009 A 
ATOM     17  C   LIG    1       -2.507   1.311   3.669  0.00  0.00    +0.046 A 
ATOM     18  C   LIG    1       -3.482   0.306   3.769  0.00  0.00    +0.120 A 
ATOM     19  C   LIG    1       -4.032  -0.228   2.603  0.00  0.00    +0.046 A 
ATOM     20  C   LIG    1       -3.621   0.227   1.353  0.00  0.00    +0.009 A 
BRANCH  18  21
ATOM     21  O   LIG    1       -3.952  -0.207   4.963  0.00  0.00    -0.495 OA
ATOM     22  C   LIG    1       -3.437   0.303   6.188  0.00  0.00    +0.277 C 
ENDBRANCH  18  21
ENDBRANCH   2  15
BRANCH   1  23
ATOM     23  C   LIG    1       -3.988   3.555  -0.913  0.00  0.00    +0.310 C 
ATOM     24  O   LIG    1       -4.882   2.682  -0.830  0.00  0.00    -0.251 OA
BRANCH  23  25
ATOM     25  O   LIG    1       -4.188   4.716  -1.337  0.00  0.00    -0.480 OA
ATOM     26  H   LIG    1       -4.812   4.864  -2.020  0.00  0.00    +0.295 HD
ENDBRANCH  23  25
ENDBRANCH   1  23
BRANCH   3  27
ATOM     27  C   LIG    1       -0.257   0.222  -0.458  0.00  0.00    +0.181 C 
BRANCH  27  28
ATOM     28  C   LIG    1        1.284   0.141  -0.277  0.00  0.00    +0.230 C 
ATOM     29  N   LIG    1        1.918  -1.026  -0.580  0.00  0.00    -0.300 N 
ATOM     30  O   LIG    1        1.903   1.116   0.163  0.00  0.00    -0.274 OA
BRANCH  29  31
ATOM     31  C   LIG    1        1.235  -2.208  -1.130  0.00  0.00    +0.108 C 
BRANCH  31  32
ATOM     32  C   LIG    1        1.215  -2.250  -2.672  0.00  0.00    +0.019 C 
BRANCH  32  33
ATOM     33  C   LIG    1        0.390  -3.415  -3.249  0.00  0.00    -0.002 C 
ATOM     34  C   LIG    1        0.953  -4.807  -2.922  0.00  0.00    +0.004 C 
ENDBRANCH  32  33
ENDBRANCH  31  32
ENDBRANCH  29  31
BRANCH  29  35
ATOM     35  C   LIG    1        3.381  -1.160  -0.467  0.00  0.00    +0.108 C 
BRANCH  35  36
ATOM     36  C   LIG    1        4.182  -0.406  -1.550  0.00  0.00    +0.019 C 
BRANCH  36  37
ATOM     37  C   LIG    1        5.700  -0.586  -1.386  0.00  0.00    -0.002 C 
ATOM     38  C   LIG    1        6.510   0.164  -2.452  0.00  0.00    +0.004 C 
ENDBRANCH  36  37
ENDBRANCH  35  36
ENDBRANCH  29  35
ENDBRANCH  27  28
ENDBRANCH   3  27
TORSDOF 13
