REMARK  Name = DB06328
REMARK                            x       y       z     vdW  Elec       q    Type
REMARK                         _______ _______ _______ _____ _____    ______ ____
ROOT
ATOM      1  N   LIG    1        1.841  -1.349  -0.213  0.00  0.00    -0.215 NA
ATOM      2  H   LIG    1        2.613  -1.265   0.433  0.00  0.00    +0.150 HD
ATOM      3  H   LIG    1        2.208  -1.535  -1.136  0.00  0.00    +0.150 HD
ENDROOT
BRANCH   1   5
ATOM      4  C   LIG    1       -0.011   0.010   0.033  0.00  0.00    +0.221 C 
ATOM      5  O   LIG    1        1.362  -0.011  -0.319  0.00  0.00    -0.306 OA
ENDBRANCH   1   5
TORSDOF 1
