REMARK  Name = DB06751
REMARK                            x       y       z     vdW  Elec       q    Type
REMARK                         _______ _______ _______ _____ _____    ______ ____
ROOT
ATOM      1  C   LIG    1       -5.068   1.478  -0.080  0.00  0.00    +0.162 A 
ATOM      2  C   LIG    1       -4.378   0.263  -0.105  0.00  0.00    +0.163 A 
ATOM      3  C   LIG    1       -2.976   0.268  -0.034  0.00  0.00    +0.059 A 
ATOM      4  C   LIG    1       -2.234   1.457   0.068  0.00  0.00    +0.003 A 
ATOM      5  C   LIG    1       -0.721   1.430   0.086  0.00  0.00    +0.035 C 
ATOM      6  C   LIG    1        0.025   0.309  -0.086  0.00  0.00    +0.031 C 
ATOM      7  N   LIG    1       -0.172   2.690   0.237  0.00  0.00    -0.343 N 
ATOM      8  H   LIG    1        0.830   2.773   0.338  0.00  0.00    +0.146 HD
ATOM      9  C   LIG    1       -0.778   3.892  -0.310  0.00  0.00    +0.106 C 
ATOM     10  C   LIG    1       -2.193   3.998   0.279  0.00  0.00    +0.054 C 
ATOM     11  C   LIG    1       -2.948   2.678   0.117  0.00  0.00    -0.033 A 
ATOM     12  C   LIG    1       -4.342   2.671   0.032  0.00  0.00    +0.053 A 
ENDROOT
BRANCH   6  13
ATOM     13  C   LIG    1        1.500   0.192  -0.059  0.00  0.00    -0.020 A 
ATOM     14  C   LIG    1        2.122  -0.679  -0.953  0.00  0.00    +0.012 A 
ATOM     15  C   LIG    1        3.508  -0.816  -0.963  0.00  0.00    +0.050 A 
ATOM     16  C   LIG    1        4.307  -0.085  -0.068  0.00  0.00    +0.162 A 
ATOM     17  C   LIG    1        3.693   0.788   0.843  0.00  0.00    +0.162 A 
ATOM     18  C   LIG    1        2.293   0.917   0.837  0.00  0.00    +0.057 A 
BRANCH  17  19
ATOM     19  O   LIG    1        4.524   1.477   1.709  0.00  0.00    -0.489 OA
BRANCH  19  20
ATOM     20  C   LIG    1        3.962   2.369   2.667  0.00  0.00    +0.226 C 
ATOM     21  C   LIG    1        5.095   2.975   3.500  0.00  0.00    +0.048 C 
ENDBRANCH  19  20
ENDBRANCH  17  19
BRANCH  16  22
ATOM     22  O   LIG    1        5.687  -0.174  -0.022  0.00  0.00    -0.489 OA
BRANCH  22  23
ATOM     23  C   LIG    1        6.368  -1.049  -0.917  0.00  0.00    +0.226 C 
ATOM     24  C   LIG    1        7.871  -0.969  -0.632  0.00  0.00    +0.048 C 
ENDBRANCH  22  23
ENDBRANCH  16  22
ENDBRANCH   6  13
BRANCH   1  25
ATOM     25  O   LIG    1       -6.449   1.422  -0.163  0.00  0.00    -0.489 OA
BRANCH  25  26
ATOM     26  C   LIG    1       -7.209   2.627  -0.143  0.00  0.00    +0.226 C 
ATOM     27  C   LIG    1       -8.693   2.271  -0.265  0.00  0.00    +0.048 C 
ENDBRANCH  25  26
ENDBRANCH   1  25
BRANCH   2  28
ATOM     28  O   LIG    1       -5.143  -0.887  -0.203  0.00  0.00    -0.489 OA
BRANCH  28  29
ATOM     29  C   LIG    1       -4.511  -2.164  -0.223  0.00  0.00    +0.226 C 
ATOM     30  C   LIG    1       -5.592  -3.245  -0.310  0.00  0.00    +0.048 C 
ENDBRANCH  28  29
ENDBRANCH   2  28
TORSDOF 9
