REMARK  Name = DB06582
REMARK                            x       y       z     vdW  Elec       q    Type
REMARK                         _______ _______ _______ _____ _____    ______ ____
ROOT
ATOM      1  C   LIG    1       -2.561  -0.503   1.534  0.00  0.00    +0.065 C 
ATOM      2  C   LIG    1       -2.791   0.771   0.695  0.00  0.00    +0.045 C 
ATOM      3  C   LIG    1       -4.244   1.193   0.551  0.00  0.00    +0.063 C 
ATOM      4  N   LIG    1       -1.876   1.432   0.073  0.00  0.00    -0.158 NA
ATOM      5  N   LIG    1       -0.580   1.237   0.237  0.00  0.00    -0.149 NA
ATOM      6  C   LIG    1        0.026   0.096   0.141  0.00  0.00    +0.101 C 
ATOM      7  C   LIG    1       -0.631  -1.238  -0.002  0.00  0.00    +0.010 A 
ATOM      8  C   LIG    1       -0.042  -2.220  -0.814  0.00  0.00    +0.059 A 
ATOM      9  C   LIG    1       -0.584  -3.508  -0.936  0.00  0.00    +0.162 A 
ATOM     10  C   LIG    1       -1.751  -3.825  -0.235  0.00  0.00    +0.162 A 
ATOM     11  C   LIG    1       -2.356  -2.843   0.563  0.00  0.00    +0.054 A 
ATOM     12  C   LIG    1       -1.827  -1.554   0.682  0.00  0.00    -0.026 A 
ENDROOT
BRANCH   6  13
ATOM     13  C   LIG    1        1.504   0.101   0.243  0.00  0.00    +0.006 A 
ATOM     14  C   LIG    1        2.266   1.059  -0.441  0.00  0.00    +0.059 A 
ATOM     15  C   LIG    1        3.669   1.076  -0.353  0.00  0.00    +0.162 A 
ATOM     16  C   LIG    1        4.321   0.119   0.438  0.00  0.00    +0.162 A 
ATOM     17  C   LIG    1        3.558  -0.836   1.130  0.00  0.00    +0.050 A 
ATOM     18  C   LIG    1        2.169  -0.842   1.035  0.00  0.00    +0.014 A 
BRANCH  15  19
ATOM     19  O   LIG    1        4.468   1.995  -1.013  0.00  0.00    -0.491 OA
ATOM     20  C   LIG    1        3.864   2.995  -1.826  0.00  0.00    +0.277 C 
ENDBRANCH  15  19
BRANCH  16  21
ATOM     21  O   LIG    1        5.703   0.179   0.490  0.00  0.00    -0.491 OA
ATOM     22  C   LIG    1        6.416  -0.762   1.284  0.00  0.00    +0.277 C 
ENDBRANCH  16  21
ENDBRANCH   6  13
BRANCH   1  24
ATOM     23  C   LIG    1       -2.685   0.647   3.866  0.00  0.00    +0.005 C 
ATOM     24  C   LIG    1       -1.877  -0.242   2.906  0.00  0.00    +0.011 C 
ENDBRANCH   1  24
BRANCH   9  25
ATOM     25  O   LIG    1       -0.026  -4.506  -1.717  0.00  0.00    -0.491 OA
ATOM     26  C   LIG    1        1.166  -4.243  -2.449  0.00  0.00    +0.277 C 
ENDBRANCH   9  25
BRANCH  10  27
ATOM     27  O   LIG    1       -2.245  -5.110  -0.380  0.00  0.00    -0.491 OA
ATOM     28  C   LIG    1       -3.427  -5.491   0.316  0.00  0.00    +0.277 C 
ENDBRANCH  10  27
TORSDOF 6
