REMARK  Name = DB06195
REMARK                            x       y       z     vdW  Elec       q    Type
REMARK                         _______ _______ _______ _____ _____    ______ ____
ROOT
ATOM      1  C   LIG    1        1.740  -0.220  -0.016  0.00  0.00    +0.219 A 
ATOM      2  N   LIG    1        2.339  -1.428   0.149  0.00  0.00    -0.197 NA
ATOM      3  C   LIG    1        3.664  -1.461   0.467  0.00  0.00    +0.152 A 
ATOM      4  C   LIG    1        4.371  -0.255   0.622  0.00  0.00    +0.148 A 
ATOM      5  C   LIG    1        3.636   0.937   0.427  0.00  0.00    +0.167 A 
ATOM      6  N   LIG    1        4.540   1.963   0.634  0.00  0.00    -0.312 N 
ATOM      7  C   LIG    1        5.736   1.327   0.925  0.00  0.00    +0.201 A 
ATOM      8  N   LIG    1        5.677   0.018   0.931  0.00  0.00    -0.231 NA
ATOM      9  N   LIG    1        2.337   1.000   0.112  0.00  0.00    -0.195 NA
ENDROOT
BRANCH   6  10
ATOM     10  C   LIG    1        4.271   3.407   0.538  0.00  0.00    +0.084 C 
ATOM     11  C   LIG    1        5.385   4.264   1.175  0.00  0.00    +0.030 C 
ATOM     12  C   LIG    1        4.020   3.797  -0.932  0.00  0.00    +0.030 C 
ENDBRANCH   6  10
BRANCH   1  13
ATOM     13  N   LIG    1        0.377  -0.292  -0.346  0.00  0.00    -0.308 N 
ATOM     14  H   LIG    1       -0.037  -1.207  -0.452  0.00  0.00    +0.149 HD
BRANCH  13  15
ATOM     15  CA  LIG    1       -0.461   0.874  -0.641  0.00  0.00    +0.098 C 
BRANCH  15  16
ATOM     16  C   LIG    1       -1.284   1.334   0.589  0.00  0.00    +0.021 C 
ATOM     17  C   LIG    1       -0.443   1.842   1.772  0.00  0.00    +0.006 C 
ENDBRANCH  15  16
BRANCH  15  18
ATOM     18  C   LIG    1       -1.359   0.588  -1.864  0.00  0.00    +0.178 C 
BRANCH  18  19
ATOM     19  O   LIG    1       -1.895   1.785  -2.391  0.00  0.00    -0.393 OA
ATOM     20  H   LIG    1       -2.418   1.571  -3.168  0.00  0.00    +0.209 HD
ENDBRANCH  18  19
ENDBRANCH  15  18
ENDBRANCH  13  15
ENDBRANCH   1  13
BRANCH   3  21
ATOM     21  N   LIG    1        4.327  -2.691   0.631  0.00  0.00    -0.323 N 
ATOM     22  H   LIG    1        5.287  -2.686   0.944  0.00  0.00    +0.148 HD
BRANCH  21  23
ATOM     23  C   LIG    1        3.645  -3.977   0.503  0.00  0.00    +0.138 C 
BRANCH  23  24
ATOM     24  C   LIG    1        3.428  -4.348  -0.959  0.00  0.00    -0.030 A 
ATOM     25  C   LIG    1        2.146  -4.287  -1.513  0.00  0.00    +0.005 A 
ATOM     26  C   LIG    1        1.951  -4.609  -2.853  0.00  0.00    +0.000 A 
ATOM     27  C   LIG    1        3.038  -4.994  -3.636  0.00  0.00    +0.000 A 
ATOM     28  C   LIG    1        4.319  -5.058  -3.090  0.00  0.00    +0.000 A 
ATOM     29  C   LIG    1        4.514  -4.734  -1.750  0.00  0.00    +0.005 A 
ENDBRANCH  23  24
ENDBRANCH  21  23
ENDBRANCH   3  21
TORSDOF 9
