REMARK  Name = DB06290
REMARK                            x       y       z     vdW  Elec       q    Type
REMARK                         _______ _______ _______ _____ _____    ______ ____
ROOT
ATOM      1  C   LIG    1       -4.229   4.497  -0.744  0.00  0.00    +0.132 C 
ATOM      2  N   LIG    1       -4.546   3.675   0.431  0.00  0.00    -0.304 N 
ATOM      3  C   LIG    1       -5.992   3.455   0.645  0.00  0.00    +0.107 C 
ATOM      4  C   LIG    1       -6.919   4.698   0.624  0.00  0.00    +0.019 C 
ATOM      5  C   LIG    1       -6.880   5.609   1.871  0.00  0.00    +0.006 C 
ATOM      6  C   LIG    1       -5.747   6.647   1.885  0.00  0.00    +0.027 C 
ATOM      7  C   LIG    1       -5.791   7.571   3.099  0.00  0.00    -0.031 C 
ATOM      8  C   LIG    1       -4.986   7.487   4.176  0.00  0.00    -0.025 C 
ATOM      9  C   LIG    1       -3.947   6.396   4.347  0.00  0.00    +0.046 C 
ATOM     10  C   LIG    1       -2.715   6.582   5.204  0.00  0.00    +0.046 C 
ATOM     11  C   LIG    1       -2.579   6.508   3.689  0.00  0.00    +0.119 C 
ATOM     12  N   LIG    1       -2.204   5.314   2.947  0.00  0.00    -0.301 N 
ATOM     13  H   LIG    1       -2.692   5.209   2.070  0.00  0.00    +0.150 HD
ATOM     14  C   LIG    1       -1.296   4.371   3.234  0.00  0.00    +0.218 C 
ATOM     15  O   LIG    1       -0.579   4.402   4.234  0.00  0.00    -0.275 OA
ATOM     16  C   LIG    1       -1.220   3.177   2.248  0.00  0.00    +0.090 C 
ATOM     17  C   LIG    1        0.209   2.964   1.714  0.00  0.00    +0.058 C 
ATOM     18  C   LIG    1        0.061   2.340   0.306  0.00  0.00    +0.175 C 
ATOM     19  C   LIG    1       -1.451   2.281   0.008  0.00  0.00    +0.058 C 
ATOM     20  C   LIG    1       -2.091   3.299   0.963  0.00  0.00    +0.091 C 
ATOM     21  C   LIG    1       -3.611   3.020   1.177  0.00  0.00    +0.219 C 
ATOM     22  O   LIG    1       -3.928   2.203   2.044  0.00  0.00    -0.275 OA
ENDROOT
BRANCH  11  23
ATOM     23  C   LIG    1       -2.055   7.817   3.075  0.00  0.00    +0.256 C 
ATOM     24  N   LIG    1       -0.677   8.028   3.305  0.00  0.00    -0.188 N 
ATOM     25  H   LIG    1       -0.181   7.385   3.928  0.00  0.00    +0.176 HD
ATOM     26  O   LIG    1       -2.758   8.552   2.382  0.00  0.00    -0.272 OA
BRANCH  24  27
ATOM     27  S   LIG    1        0.364   9.159   2.437  0.00  0.00    +0.048 S 
ATOM     28  O   LIG    1       -0.455  10.283   1.969  0.00  0.00    -0.155 OA
ATOM     29  O   LIG    1        1.530   9.399   3.293  0.00  0.00    -0.155 OA
BRANCH  27  30
ATOM     30  C   LIG    1        0.978   8.194   0.915  0.00  0.00    +0.151 C 
ATOM     31  C   LIG    1        1.283   6.732   1.096  0.00  0.00    +0.030 C 
ATOM     32  C   LIG    1        0.077   7.173   0.271  0.00  0.00    +0.030 C 
ENDBRANCH  27  30
ENDBRANCH  24  27
ENDBRANCH  11  23
BRANCH  18  33
ATOM     33  O   LIG    1        0.569   1.005   0.260  0.00  0.00    -0.488 OA
BRANCH  33  34
ATOM     34  C   LIG    1        1.935   0.774   0.237  0.00  0.00    +0.132 A 
ATOM     35  C   LIG    1        2.901   1.791   0.250  0.00  0.00    +0.076 A 
ATOM     36  C   LIG    1        4.258   1.470   0.227  0.00  0.00    +0.100 A 
ATOM     37  N   LIG    1        4.692   0.186   0.183  0.00  0.00    -0.244 NA
ATOM     38  C   LIG    1        3.791  -0.838   0.168  0.00  0.00    +0.082 A 
ATOM     39  C   LIG    1        4.257  -2.191   0.122  0.00  0.00    +0.017 A 
ATOM     40  C   LIG    1        5.766  -2.449   0.086  0.00  0.00    +0.050 C 
ATOM     41  C   LIG    1        3.342  -3.256   0.110  0.00  0.00    +0.125 A 
ATOM     42  C   LIG    1        1.969  -2.979   0.143  0.00  0.00    +0.047 A 
ATOM     43  C   LIG    1        1.492  -1.675   0.185  0.00  0.00    +0.017 A 
ATOM     44  C   LIG    1        2.386  -0.578   0.197  0.00  0.00    +0.043 A 
BRANCH  36  45
ATOM     45  C   LIG    1        5.339   2.514   0.241  0.00  0.00    +0.127 A 
ATOM     46  N   LIG    1        6.577   2.302  -0.147  0.00  0.00    -0.242 NA
ATOM     47  C   LIG    1        7.352   3.369  -0.043  0.00  0.00    +0.052 A 
ATOM     48  C   LIG    1        6.710   4.502   0.461  0.00  0.00    +0.070 A 
ATOM     49  S   LIG    1        5.045   4.138   0.794  0.00  0.00    -0.074 S 
BRANCH  47  50
ATOM     50  C   LIG    1        8.811   3.199  -0.468  0.00  0.00    +0.032 C 
ATOM     51  C   LIG    1        8.940   2.779  -1.946  0.00  0.00    +0.014 C 
ATOM     52  C   LIG    1        9.666   4.450  -0.179  0.00  0.00    +0.014 C 
ENDBRANCH  47  50
ENDBRANCH  36  45
BRANCH  41  53
ATOM     53  O   LIG    1        3.851  -4.543   0.066  0.00  0.00    -0.495 OA
ATOM     54  C   LIG    1        2.963  -5.656   0.059  0.00  0.00    +0.277 C 
ENDBRANCH  41  53
ENDBRANCH  33  34
ENDBRANCH  18  33
TORSDOF 8
