REMARK  Name = DB06705
REMARK                            x       y       z     vdW  Elec       q    Type
REMARK                         _______ _______ _______ _____ _____    ______ ____
ROOT
ATOM      1  C   LIG    1       -0.121   0.025   0.181  0.00  0.00    +0.098 C 
ENDROOT
BRANCH   1   2
ATOM      2  C   LIG    1       -0.640   1.400   0.694  0.00  0.00    +0.192 C 
BRANCH   2   3
ATOM      3  O   LIG    1       -0.464   2.401  -0.301  0.00  0.00    -0.285 OA
BRANCH   3   4
ATOM      4  P   LIG    1       -1.808   2.756  -1.331  0.00  0.00    +0.475 P 
ATOM      5  O   LIG    1       -2.547   3.929  -0.723  0.00  0.00    -0.227 OA
BRANCH   4   6
ATOM      6  O   LIG    1       -2.506   1.464  -1.698  0.00  0.00    -0.302 OA
ATOM      7  H   LIG    1       -2.997   1.133  -0.930  0.00  0.00    +0.222 HD
ENDBRANCH   4   6
BRANCH   4   8
ATOM      8  O   LIG    1       -0.951   3.300  -2.735  0.00  0.00    -0.283 OA
BRANCH   8   9
ATOM      9  C   LIG    1       -0.099   4.430  -2.617  0.00  0.00    +0.130 C 
ATOM     10  C   LIG    1        1.026   4.323  -3.659  0.00  0.00    +0.033 C 
ATOM     11  C   LIG    1        2.000   5.523  -3.548  0.00  0.00    +0.019 C 
ATOM     12  C   LIG    1        1.333   6.945  -3.671  0.00  0.00    +0.021 C 
ATOM     13  C   LIG    1        0.141   6.941  -2.641  0.00  0.00    +0.019 C 
ATOM     14  C   LIG    1       -0.844   5.764  -2.811  0.00  0.00    +0.033 C 
BRANCH  12  15
ATOM     15  C   LIG    1        2.413   8.009  -3.328  0.00  0.00    -0.037 A 
ATOM     16  C   LIG    1        3.584   8.066  -4.101  0.00  0.00    +0.004 A 
ATOM     17  C   LIG    1        4.579   8.998  -3.826  0.00  0.00    +0.000 A 
ATOM     18  C   LIG    1        4.414   9.891  -2.772  0.00  0.00    +0.000 A 
ATOM     19  C   LIG    1        3.261   9.858  -1.995  0.00  0.00    +0.000 A 
ATOM     20  C   LIG    1        2.266   8.924  -2.271  0.00  0.00    +0.004 A 
ENDBRANCH  12  15
BRANCH  12  21
ATOM     21  C   LIG    1        0.795   7.268  -5.097  0.00  0.00    -0.037 A 
ATOM     22  C   LIG    1        0.021   8.423  -5.292  0.00  0.00    +0.004 A 
ATOM     23  C   LIG    1       -0.472   8.753  -6.551  0.00  0.00    +0.000 A 
ATOM     24  C   LIG    1       -0.190   7.932  -7.638  0.00  0.00    +0.000 A 
ATOM     25  C   LIG    1        0.589   6.791  -7.474  0.00  0.00    +0.000 A 
ATOM     26  C   LIG    1        1.081   6.463  -6.214  0.00  0.00    +0.004 A 
ENDBRANCH  12  21
ENDBRANCH   8   9
ENDBRANCH   4   8
ENDBRANCH   3   4
ENDBRANCH   2   3
ENDBRANCH   1   2
BRANCH   1  27
ATOM     27  N   LIG    1       -0.344  -1.118   1.110  0.00  0.00    -0.276 NA
BRANCH  27  28
ATOM     28  C   LIG    1       -0.098  -2.404   0.409  0.00  0.00    +0.206 C 
BRANCH  28  29
ATOM     29  C   LIG    1        0.214  -3.624   1.322  0.00  0.00    +0.319 C 
ATOM     30  O   LIG    1        0.160  -4.744   0.765  0.00  0.00    -0.250 OA
BRANCH  29  31
ATOM     31  O   LIG    1        0.530  -3.463   2.525  0.00  0.00    -0.480 OA
ATOM     32  H   LIG    1        0.555  -2.601   2.891  0.00  0.00    +0.295 HD
ENDBRANCH  29  31
ENDBRANCH  28  29
ENDBRANCH  27  28
BRANCH  27  33
ATOM     33  C   LIG    1       -1.696  -1.154   1.726  0.00  0.00    +0.206 C 
BRANCH  33  34
ATOM     34  C   LIG    1       -1.826  -0.432   3.096  0.00  0.00    +0.319 C 
ATOM     35  O   LIG    1       -0.806  -0.096   3.744  0.00  0.00    -0.250 OA
BRANCH  34  36
ATOM     36  O   LIG    1       -2.996  -0.247   3.502  0.00  0.00    -0.480 OA
ATOM     37  H   LIG    1       -3.722  -0.519   2.977  0.00  0.00    +0.295 HD
ENDBRANCH  34  36
ENDBRANCH  33  34
ENDBRANCH  27  33
ENDBRANCH   1  27
BRANCH   1  38
ATOM     38  C   LIG    1        1.404   0.164  -0.150  0.00  0.00    +0.106 C 
BRANCH  38  39
ATOM     39  N   LIG    1        1.666   0.515  -1.557  0.00  0.00    -0.290 NA
BRANCH  39  40
ATOM     40  C   LIG    1        1.427  -0.658  -2.429  0.00  0.00    +0.205 C 
BRANCH  40  41
ATOM     41  C   LIG    1        1.236  -0.353  -3.940  0.00  0.00    +0.319 C 
ATOM     42  O   LIG    1        1.332  -1.337  -4.708  0.00  0.00    -0.250 OA
BRANCH  41  43
ATOM     43  O   LIG    1        0.956   0.805  -4.329  0.00  0.00    -0.480 OA
ATOM     44  H   LIG    1        0.896   1.506  -3.710  0.00  0.00    +0.295 HD
ENDBRANCH  41  43
ENDBRANCH  40  41
ENDBRANCH  39  40
BRANCH  39  45
ATOM     45  C   LIG    1        3.048   1.001  -1.726  0.00  0.00    +0.100 C 
BRANCH  45  46
ATOM     46  C   LIG    1        3.271   2.416  -1.133  0.00  0.00    +0.101 C 
BRANCH  46  47
ATOM     47  N   LIG    1        4.628   2.958  -1.310  0.00  0.00    -0.281 NA
BRANCH  47  48
ATOM     48  C   LIG    1        5.671   2.403  -0.424  0.00  0.00    +0.206 C 
BRANCH  48  49
ATOM     49  C   LIG    1        5.567   2.841   1.062  0.00  0.00    +0.319 C 
ATOM     50  O   LIG    1        6.127   2.092   1.894  0.00  0.00    -0.250 OA
BRANCH  49  51
ATOM     51  O   LIG    1        4.998   3.917   1.366  0.00  0.00    -0.480 OA
ATOM     52  H   LIG    1        4.595   4.438   0.700  0.00  0.00    +0.295 HD
ENDBRANCH  49  51
ENDBRANCH  48  49
ENDBRANCH  47  48
BRANCH  47  53
ATOM     53  C   LIG    1        5.027   3.301  -2.692  0.00  0.00    +0.206 C 
BRANCH  53  54
ATOM     54  C   LIG    1        5.643   2.201  -3.607  0.00  0.00    +0.319 C 
ATOM     55  O   LIG    1        5.946   1.069  -3.162  0.00  0.00    -0.250 OA
BRANCH  54  56
ATOM     56  O   LIG    1        5.833   2.544  -4.796  0.00  0.00    -0.480 OA
ATOM     57  H   LIG    1        5.589   3.403  -5.080  0.00  0.00    +0.295 HD
ENDBRANCH  54  56
ENDBRANCH  53  54
ENDBRANCH  47  53
ENDBRANCH  46  47
ENDBRANCH  45  46
ENDBRANCH  39  45
ENDBRANCH  38  39
ENDBRANCH   1  38
TORSDOF 29
