REMARK  Name = DB06169
REMARK                            x       y       z     vdW  Elec       q    Type
REMARK                         _______ _______ _______ _____ _____    ______ ____
ROOT
ATOM      1  C   LIG    1       -1.687   3.155   0.093  0.00  0.00    +0.001 A 
ATOM      2  C   LIG    1       -0.712   2.193   0.343  0.00  0.00    +0.011 A 
ATOM      3  C   LIG    1       -1.053   0.828   0.290  0.00  0.00    +0.011 A 
ATOM      4  C   LIG    1       -0.321  -0.407   0.478  0.00  0.00    +0.052 A 
ATOM      5  C   LIG    1       -1.252  -1.415   0.272  0.00  0.00    +0.099 A 
ATOM      6  N   LIG    1       -2.496  -0.897   0.001  0.00  0.00    -0.342 N 
ATOM      7  C   LIG    1       -2.409   0.483  -0.018  0.00  0.00    +0.050 A 
ATOM      8  C   LIG    1       -3.387   1.456  -0.272  0.00  0.00    +0.026 A 
ATOM      9  C   LIG    1       -2.994   2.791  -0.209  0.00  0.00    +0.002 A 
ENDROOT
BRANCH   4  10
ATOM     10  C   LIG    1        1.115  -0.518   0.798  0.00  0.00    +0.250 C 
ATOM     11  O   LIG    1        1.822   0.488   0.911  0.00  0.00    -0.282 OA
BRANCH  10  12
ATOM     12  C   LIG    1        1.788  -1.953   1.011  0.00  0.00    +0.289 C 
ATOM     13  N   LIG    1        3.114  -1.847   1.260  0.00  0.00    -0.279 N 
ATOM     14  H   LIG    1        3.488  -0.909   1.270  0.00  0.00    +0.155 HD
ATOM     15  O   LIG    1        1.134  -2.993   0.946  0.00  0.00    -0.266 OA
BRANCH  13  16
ATOM     16  C   LIG    1        4.063  -2.856   1.506  0.00  0.00    +0.037 A 
ATOM     17  C   LIG    1        3.782  -4.233   1.575  0.00  0.00    +0.043 A 
ATOM     18  C   LIG    1        4.831  -5.119   1.829  0.00  0.00    +0.112 A 
ATOM     19  N   LIG    1        6.113  -4.715   2.015  0.00  0.00    -0.263 NA
ATOM     20  C   LIG    1        6.371  -3.386   1.947  0.00  0.00    +0.112 A 
ATOM     21  C   LIG    1        5.383  -2.432   1.698  0.00  0.00    +0.043 A 
ENDBRANCH  13  16
ENDBRANCH  10  12
ENDBRANCH   4  10
BRANCH   6  22
ATOM     22  C   LIG    1       -3.676  -1.695  -0.317  0.00  0.00    +0.157 C 
BRANCH  22  23
ATOM     23  C   LIG    1       -3.929  -1.822  -1.813  0.00  0.00    -0.028 A 
ATOM     24  C   LIG    1       -5.002  -1.150  -2.404  0.00  0.00    +0.007 A 
ATOM     25  C   LIG    1       -5.226  -1.266  -3.774  0.00  0.00    +0.020 A 
ATOM     26  C   LIG    1       -4.378  -2.055  -4.550  0.00  0.00    +0.041 A 
ATOM     27 CL   LIG    1       -4.656  -2.199  -6.247  0.00  0.00    -0.084 Cl
ATOM     28  C   LIG    1       -3.306  -2.728  -3.965  0.00  0.00    +0.020 A 
ATOM     29  C   LIG    1       -3.082  -2.612  -2.596  0.00  0.00    +0.007 A 
ENDBRANCH  22  23
ENDBRANCH   6  22
TORSDOF 5
