REMARK  Name = DB06823
REMARK                            x       y       z     vdW  Elec       q    Type
REMARK                         _______ _______ _______ _____ _____    ______ ____
ROOT
ATOM      1  C   LIG    1        1.525   0.131  -0.138  0.00  0.00    +0.226 C 
ATOM      2  O   LIG    1        2.215  -0.877  -0.306  0.00  0.00    -0.275 OA
ATOM      3  N   LIG    1        2.047   1.360   0.037  0.00  0.00    -0.304 N 
ATOM      4  H   LIG    1        1.415   2.136   0.168  0.00  0.00    +0.149 HD
ENDROOT
BRANCH   1   6
ATOM      5  C   LIG    1       -0.572  -0.908  -1.197  0.00  0.00    +0.028 C 
ATOM      6  C   LIG    1       -0.010   0.033  -0.113  0.00  0.00    +0.126 C 
BRANCH   6   7
ATOM      7  S   LIG    1       -0.494  -0.613   1.516  0.00  0.00    -0.166 S 
ATOM      8  H   LIG    1       -0.167   0.484   2.206  0.00  0.00    +0.102 HD
ENDBRANCH   6   7
ENDBRANCH   1   6
BRANCH   3   9
ATOM      9  C   LIG    1        3.477   1.682   0.065  0.00  0.00    +0.224 C 
BRANCH   9  10
ATOM     10  C   LIG    1        3.960   1.613   1.521  0.00  0.00    +0.322 C 
ATOM     11  O   LIG    1        3.869   2.539   2.300  0.00  0.00    -0.249 OA
BRANCH  10  12
ATOM     12  O   LIG    1        4.491   0.386   1.793  0.00  0.00    -0.480 OA
ATOM     13  H   LIG    1        4.794   0.311   2.700  0.00  0.00    +0.295 HD
ENDBRANCH  10  12
ENDBRANCH   9  10
ENDBRANCH   3   9
TORSDOF 5
