REMARK  Name = DB06763
REMARK                            x       y       z     vdW  Elec       q    Type
REMARK                         _______ _______ _______ _____ _____    ______ ____
ROOT
ATOM      1  CA  ARG A  1        0.257   0.564  -0.993  0.00  0.00    +0.163 C 
ENDROOT
BRANCH   1   4
ATOM      2  N   ARG A  1        2.181   1.883  -1.698  0.00  0.00    -0.302 N 
ATOM      3  H   ARG A  1        2.536   1.676  -0.776  0.00  0.00    +0.150 HD
ATOM      4  C   ARG A  1        0.974   1.419  -2.055  0.00  0.00    +0.234 C 
ATOM      5  O   ARG A  1        0.454   1.599  -3.157  0.00  0.00    -0.274 OA
BRANCH   2   6
ATOM      6  CA  ARG A  1        3.097   2.604  -2.576  0.00  0.00    +0.161 C 
BRANCH   6   9
ATOM      7  N   ARG A  1        5.407   2.202  -3.256  0.00  0.00    -0.302 N 
ATOM      8  H   ARG A  1        5.067   2.400  -4.187  0.00  0.00    +0.150 HD
ATOM      9  C   ARG A  1        4.550   2.232  -2.224  0.00  0.00    +0.234 C 
ATOM     10  O   ARG A  1        4.860   1.998  -1.055  0.00  0.00    -0.274 OA
BRANCH   7  11
ATOM     11  CA  ARG A  1        6.845   1.976  -3.147  0.00  0.00    +0.165 C 
BRANCH  11  13
ATOM     12  O   ARG A  1        7.662   2.953  -5.169  0.00  0.00    -0.274 OA
ATOM     13  C   ARG A  1        7.549   3.088  -3.949  0.00  0.00    +0.237 C 
ATOM     14  N   PRO A  2        8.016   4.162  -3.267  0.00  0.00    -0.288 N 
ATOM     15  CD  PRO A  2        7.711   4.492  -1.874  0.00  0.00    +0.109 C 
ATOM     16  CG  PRO A  2        7.973   5.986  -1.771  0.00  0.00    +0.021 C 
ATOM     17  CB  PRO A  2        9.138   6.189  -2.724  0.00  0.00    +0.033 C 
ATOM     18  CA  PRO A  2        8.885   5.191  -3.873  0.00  0.00    +0.162 C 
BRANCH  18  19
ATOM     19  C   PRO A  2       10.196   4.615  -4.441  0.00  0.00    +0.234 C 
ATOM     20  N   ALA A  3       10.383   4.771  -5.763  0.00  0.00    -0.301 N 
ATOM     21  H   ALA A  3        9.679   5.251  -6.305  0.00  0.00    +0.150 HD
ATOM     22  O   PRO A  2       10.977   4.023  -3.694  0.00  0.00    -0.274 OA
BRANCH  20  23
ATOM     23  CA  ALA A  3       11.551   4.294  -6.523  0.00  0.00    +0.179 C 
ATOM     24  CB  ALA A  3       11.177   4.251  -8.019  0.00  0.00    +0.040 C 
BRANCH  23  25
ATOM     25  C   ALA A  3       12.835   5.177  -6.294  0.00  0.00    +0.325 C 
ATOM     26  OXT ALA A  3       12.663   6.419  -6.245  0.00  0.00    -0.249 OA
BRANCH  25  27
ATOM     27  O   ALA A  3       13.904   4.526  -6.256  0.00  0.00    -0.479 OA
ATOM     28  H   ALA A  3       13.882   3.593  -6.176  0.00  0.00    +0.295 HD
ENDBRANCH  25  27
ENDBRANCH  23  25
ENDBRANCH  20  23
ENDBRANCH  18  19
ENDBRANCH  11  13
BRANCH  11  29
ATOM     29  CB  ARG A  1        7.173   0.555  -3.664  0.00  0.00    +0.086 C 
BRANCH  29  30
ATOM     30  CG  ARG A  1        8.602   0.102  -3.456  0.00  0.00    +0.038 A 
ATOM     31  CD2 ARG A  1        9.130  -0.924  -2.702  0.00  0.00    +0.133 A 
ATOM     32  NE2 ARG A  1       10.522  -0.942  -2.826  0.00  0.00    -0.244 NA
ATOM     33  CE1 ARG A  1       10.786   0.066  -3.648  0.00  0.00    +0.196 A 
ATOM     34  ND1 ARG A  1        9.691   0.712  -4.057  0.00  0.00    -0.348 N 
ATOM     35  HD1 ARG A  1        9.665   1.509  -4.677  0.00  0.00    +0.166 HD
ENDBRANCH  29  30
ENDBRANCH  11  29
ENDBRANCH   7  11
ENDBRANCH   6   9
BRANCH   6  36
ATOM     36  CB  ARG A  1        2.884   4.147  -2.476  0.00  0.00    +0.012 C 
ATOM     37  CG2 ARG A  1        3.173   4.742  -1.082  0.00  0.00    +0.009 C 
ATOM     38  CG1 ARG A  1        3.661   4.934  -3.549  0.00  0.00    +0.009 C 
ENDBRANCH   6  36
ENDBRANCH   2   6
ENDBRANCH   1   4
BRANCH   1  39
ATOM     39  N   ARG A  1       -1.196   0.649  -1.125  0.00  0.00    -0.302 N 
ATOM     40  H   ARG A  1       -1.634  -0.081  -1.667  0.00  0.00    +0.150 HD
ATOM     41  C   ARG A  1       -1.950   1.638  -0.618  0.00  0.00    +0.234 C 
ATOM     42  O   ARG A  1       -1.514   2.578   0.049  0.00  0.00    -0.274 OA
BRANCH  41  43
ATOM     43  CA  ARG A  1       -3.461   1.556  -0.917  0.00  0.00    +0.161 C 
BRANCH  43  44
ATOM     44  N   ARG A  1       -4.230   1.664   0.324  0.00  0.00    -0.302 N 
ATOM     45  H   ARG A  1       -4.657   2.563   0.497  0.00  0.00    +0.150 HD
ATOM     46  C   ARG A  1       -4.319   0.699   1.254  0.00  0.00    +0.234 C 
ATOM     47  O   ARG A  1       -3.828  -0.426   1.136  0.00  0.00    -0.274 OA
BRANCH  46  48
ATOM     48  CA  ARG A  1       -5.057   1.088   2.544  0.00  0.00    +0.159 C 
BRANCH  48  49
ATOM     49  N   ARG A  1       -5.457  -0.116   3.275  0.00  0.00    -0.306 N 
ATOM     50  H   ARG A  1       -4.945  -0.953   3.035  0.00  0.00    +0.149 HD
ATOM     51  C   UNK A  0       -6.435  -0.175   4.197  0.00  0.00    +0.197 C 
ATOM     52  O   UNK A  0       -7.086   0.807   4.548  0.00  0.00    -0.278 OA
BRANCH  51  53
ATOM     53  C   UNK A  0       -6.720  -1.539   4.851  0.00  0.00    +0.014 C 
BRANCH  53  54
ATOM     54  N   UNK A  0       -7.092  -2.549   3.811  0.00  0.00    +0.383 N 
ATOM     55  H   UNK A  0       -7.079  -3.471   4.225  0.00  0.00    -0.086 HD
ATOM     56  H   UNK A  0       -6.412  -2.557   3.063  0.00  0.00    -0.086 HD
ATOM     57  C   UNK A  0       -8.495  -2.338   3.214  0.00  0.00    -0.100 C 
ENDBRANCH  53  54
ENDBRANCH  51  53
ENDBRANCH  48  49
BRANCH  48  58
ATOM     58  CB  ARG A  1       -4.204   2.012   3.451  0.00  0.00    +0.033 C 
BRANCH  58  59
ATOM     59  CG  ARG A  1       -2.830   1.441   3.876  0.00  0.00    +0.017 C 
BRANCH  59  60
ATOM     60  CD  ARG A  1       -2.035   2.360   4.824  0.00  0.00    +0.084 C 
BRANCH  60  61
ATOM     61  NE  ARG A  1       -2.615   2.431   6.179  0.00  0.00    -0.283 NA
ATOM     62  HE  ARG A  1       -3.289   3.170   6.323  0.00  0.00    +0.125 HD
BRANCH  61  63
ATOM     63  CZ  ARG A  1       -2.374   1.601   7.214  0.00  0.00    +0.167 C 
BRANCH  63  64
ATOM     64  NH2 ARG A  1       -3.011   1.816   8.374  0.00  0.00    -0.297 NA
ATOM     65 HH21 ARG A  1       -2.844   1.210   9.165  0.00  0.00    +0.121 HD
ATOM     66 HH22 ARG A  1       -3.655   2.589   8.464  0.00  0.00    +0.121 HD
ENDBRANCH  63  64
BRANCH  63  67
ATOM     67  NH1 ARG A  1       -1.521   0.567   7.126  0.00  0.00    -0.297 NA
ATOM     68 HH11 ARG A  1       -1.026   0.391   6.263  0.00  0.00    +0.121 HD
ATOM     69 HH12 ARG A  1       -1.363  -0.033   7.924  0.00  0.00    +0.121 HD
ENDBRANCH  63  67
ENDBRANCH  61  63
ENDBRANCH  60  61
ENDBRANCH  59  60
ENDBRANCH  58  59
ENDBRANCH  48  58
ENDBRANCH  46  48
ENDBRANCH  43  44
BRANCH  43  70
ATOM     70  CB  ARG A  1       -3.851   2.686  -1.917  0.00  0.00    +0.012 C 
ATOM     71  CG2 ARG A  1       -2.942   2.796  -3.162  0.00  0.00    +0.009 C 
ATOM     72  CG1 ARG A  1       -5.316   2.541  -2.366  0.00  0.00    +0.009 C 
ENDBRANCH  43  70
ENDBRANCH  41  43
ENDBRANCH   1  39
BRANCH   1  73
ATOM     73  CB  ARG A  1        0.672  -0.924  -1.069  0.00  0.00    +0.067 C 
BRANCH  73  74
ATOM     74  CG  ARG A  1        2.166  -1.183  -0.943  0.00  0.00    -0.045 A 
ATOM     75  CD2 ARG A  1        2.812  -0.983   0.294  0.00  0.00    +0.007 A 
ATOM     76  CE2 ARG A  1        4.204  -1.165   0.405  0.00  0.00    +0.045 A 
ATOM     77  CZ  ARG A  1        4.955  -1.554  -0.721  0.00  0.00    +0.117 A 
ATOM     78  CE1 ARG A  1        4.311  -1.769  -1.956  0.00  0.00    +0.045 A 
ATOM     79  CD1 ARG A  1        2.920  -1.583  -2.067  0.00  0.00    +0.007 A 
BRANCH  77  80
ATOM     80  OH  ARG A  1        6.304  -1.720  -0.618  0.00  0.00    -0.507 OA
ATOM     81  HH  ARG A  1        6.639  -1.536   0.263  0.00  0.00    +0.292 HD
ENDBRANCH  77  80
ENDBRANCH  73  74
ENDBRANCH   1  73
TORSDOF 30
