REMARK  Name = DB06816
REMARK                            x       y       z     vdW  Elec       q    Type
REMARK                         _______ _______ _______ _____ _____    ______ ____
ROOT
ATOM      1  C   LIG    1       -0.816   0.831   0.266  0.00  0.00    +0.007 C 
ATOM      2  C   LIG    1       -0.057  -0.231  -0.073  0.00  0.00    -0.002 C 
ENDROOT
BRANCH   2   3
ATOM      3  C   LIG    1        1.425  -0.241  -0.168  0.00  0.00    +0.067 C 
ATOM      4  C   LIG    1        2.169   0.540   0.718  0.00  0.00    +0.025 C 
ATOM      5  C   LIG    1        3.555   0.514   0.702  0.00  0.00    +0.008 C 
ATOM      6  C   LIG    1        4.229  -0.323  -0.211  0.00  0.00    +0.008 C 
ATOM      7  C   LIG    1        5.644  -0.395  -0.230  0.00  0.00    +0.026 C 
ATOM      8  C   LIG    1        6.334  -1.229  -1.124  0.00  0.00    +0.047 C 
ATOM      9  C   LIG    1        5.573  -2.006  -2.010  0.00  0.00    +0.022 C 
ATOM     10  C   LIG    1        4.183  -1.963  -2.028  0.00  0.00    +0.022 C 
ATOM     11  C   LIG    1        3.475  -1.115  -1.130  0.00  0.00    +0.052 C 
ATOM     12  N   LIG    1        2.079  -1.016  -1.095  0.00  0.00    -0.286 NA
ATOM     13  C   LIG    1        1.307  -1.781  -2.122  0.00  0.00    +0.106 C 
BRANCH   8  14
ATOM     14  N   LIG    1        7.756  -1.296  -1.119  0.00  0.00    -0.300 NA
ATOM     15  C   LIG    1        8.537  -0.344  -0.327  0.00  0.00    +0.105 C 
ATOM     16  C   LIG    1        8.464  -1.979  -2.203  0.00  0.00    +0.105 C 
ENDBRANCH   8  14
ENDBRANCH   2   3
BRANCH   1  21
ATOM     17  N   LIG    1       -4.393   1.568   0.735  0.00  0.00    -0.317 N 
ATOM     18  C   LIG    1       -4.455   0.223   0.420  0.00  0.00    +0.022 A 
ATOM     19  C   LIG    1       -5.754  -0.555   0.362  0.00  0.00    +0.064 C 
ATOM     20  C   LIG    1       -3.157  -0.200   0.208  0.00  0.00    +0.031 A 
ATOM     21  C   LIG    1       -2.265   0.864   0.388  0.00  0.00    -0.004 A 
ATOM     22  C   LIG    1       -3.062   1.965   0.712  0.00  0.00    +0.028 A 
ATOM     23  C   LIG    1       -2.662   3.402   1.003  0.00  0.00    +0.064 C 
BRANCH  17  24
ATOM     24  C   LIG    1       -5.499   2.394   1.030  0.00  0.00    +0.047 A 
ATOM     25  C   LIG    1       -6.466   2.636   0.049  0.00  0.00    +0.026 A 
ATOM     26  C   LIG    1       -7.556   3.451   0.343  0.00  0.00    +0.002 A 
ATOM     27  C   LIG    1       -7.674   4.017   1.610  0.00  0.00    +0.000 A 
ATOM     28  C   LIG    1       -6.712   3.777   2.590  0.00  0.00    +0.002 A 
ATOM     29  C   LIG    1       -5.620   2.963   2.301  0.00  0.00    +0.026 A 
ENDBRANCH  17  24
ENDBRANCH   1  21
TORSDOF 4
