REMARK  Name = DB06153
REMARK                            x       y       z     vdW  Elec       q    Type
REMARK                         _______ _______ _______ _____ _____    ______ ____
ROOT
ATOM      1  C   LIG    1       -0.022  -0.070  -0.191  0.00  0.00    +0.104 C 
ATOM      2  N   LIG    1        1.430  -0.013  -0.068  0.00  0.00    -0.305 NA
ATOM      3  C   LIG    1        2.018   0.776  -1.157  0.00  0.00    +0.088 C 
ATOM      4  C   LIG    1        3.561   0.826  -1.092  0.00  0.00    +0.047 C 
ATOM      5  C   LIG    1        4.119  -0.601  -1.081  0.00  0.00    -0.059 C 
ATOM      6  C   LIG    1        5.000  -1.112  -1.989  0.00  0.00    -0.010 C 
ATOM      7  C   LIG    1        5.503  -2.486  -1.938  0.00  0.00    -0.007 A 
ATOM      8  C   LIG    1        6.863  -2.848  -1.977  0.00  0.00    -0.002 A 
ATOM      9  S   LIG    1        7.006  -4.587  -1.908  0.00  0.00    -0.101 S 
ATOM     10  C   LIG    1        5.298  -4.805  -1.876  0.00  0.00    +0.046 A 
ATOM     11  C   LIG    1        8.088  -1.952  -2.076  0.00  0.00    +0.047 C 
ATOM     12  C   LIG    1        7.849  -0.427  -2.102  0.00  0.00    +0.041 C 
ATOM     13  C   LIG    1        6.878   0.075  -3.170  0.00  0.00    -0.039 A 
ATOM     14  C   LIG    1        7.324   0.859  -4.241  0.00  0.00    +0.004 A 
ATOM     15  C   LIG    1        6.443   1.290  -5.231  0.00  0.00    +0.000 A 
ATOM     16  C   LIG    1        5.100   0.933  -5.167  0.00  0.00    +0.001 A 
ATOM     17  C   LIG    1        4.641   0.150  -4.111  0.00  0.00    +0.009 A 
ATOM     18  C   LIG    1        4.639  -3.595  -1.913  0.00  0.00    +0.016 A 
ATOM     19  C   LIG    1        5.515  -0.278  -3.102  0.00  0.00    -0.014 A 
ATOM     20  C   LIG    1        3.545  -1.346   0.128  0.00  0.00    +0.047 C 
ATOM     21  C   LIG    1        2.003  -1.360   0.043  0.00  0.00    +0.088 C 
ENDROOT
TORSDOF 0
