REMARK  Name = DB06347
REMARK                            x       y       z     vdW  Elec       q    Type
REMARK                         _______ _______ _______ _____ _____    ______ ____
ROOT
ATOM      1  C   LIG    1       -2.285  -1.236  -0.504  0.00  0.00    +0.160 A 
ATOM      2  C   LIG    1       -2.902  -0.011  -0.785  0.00  0.00    +0.181 A 
ATOM      3  F   LIG    1       -4.165   0.063  -1.267  0.00  0.00    -0.200 F 
ATOM      4  C   LIG    1       -2.160   1.149  -0.549  0.00  0.00    +0.156 A 
ATOM      5  N   LIG    1       -0.891   1.116  -0.062  0.00  0.00    -0.220 NA
ATOM      6  C   LIG    1       -0.363  -0.111   0.184  0.00  0.00    +0.221 A 
ATOM      7  N   LIG    1       -1.013  -1.286  -0.021  0.00  0.00    -0.197 NA
ENDROOT
BRANCH   1   8
ATOM      8  N   LIG    1       -2.988  -2.435  -0.720  0.00  0.00    -0.323 N 
ATOM      9  H   LIG    1       -3.934  -2.398  -1.072  0.00  0.00    +0.148 HD
BRANCH   8  10
ATOM     10  C   LIG    1       -2.387  -3.751  -0.462  0.00  0.00    +0.091 C 
ATOM     11  C   LIG    1       -2.274  -4.222   1.044  0.00  0.00    +0.102 C 
ATOM     12  C   LIG    1       -3.101  -5.546   1.030  0.00  0.00    +0.026 C 
ATOM     13  C   LIG    1       -4.204  -5.273   0.012  0.00  0.00    +0.017 C 
ATOM     14  C   LIG    1       -2.311  -6.566   0.213  0.00  0.00    -0.027 C 
ATOM     15  C   LIG    1       -2.384  -6.168  -1.075  0.00  0.00    -0.026 C 
ATOM     16  C   LIG    1       -3.229  -4.897  -1.093  0.00  0.00    +0.033 C 
BRANCH  11  17
ATOM     17  C   LIG    1       -2.793  -3.248   2.138  0.00  0.00    +0.216 C 
ATOM     18  O   LIG    1       -3.987  -2.974   2.240  0.00  0.00    -0.276 OA
ATOM     19  N   LIG    1       -1.887  -2.718   2.964  0.00  0.00    -0.329 N 
ATOM     20  H   LIG    1       -2.179  -2.080   3.690  0.00  0.00    +0.145 HD
ATOM     21  H   LIG    1       -0.908  -2.942   2.863  0.00  0.00    +0.145 HD
ENDBRANCH  11  17
ENDBRANCH   8  10
ENDBRANCH   1   8
BRANCH   6  22
ATOM     22  N   LIG    1        0.932  -0.122   0.726  0.00  0.00    -0.284 N 
ATOM     23  H   LIG    1        1.303   0.799   0.913  0.00  0.00    +0.155 HD
BRANCH  22  24
ATOM     24  C   LIG    1        1.792  -1.177   1.081  0.00  0.00    +0.034 A 
ATOM     25  C   LIG    1        1.762  -2.431   0.462  0.00  0.00    +0.028 A 
ATOM     26  C   LIG    1        2.631  -3.455   0.851  0.00  0.00    -0.028 A 
ATOM     27  C   LIG    1        2.443  -4.815   0.182  0.00  0.00    +0.046 C 
ATOM     28  C   LIG    1        3.582  -3.228   1.874  0.00  0.00    +0.033 A 
ATOM     29  C   LIG    1        3.602  -1.961   2.481  0.00  0.00    +0.025 A 
ATOM     30  C   LIG    1        2.727  -0.951   2.087  0.00  0.00    +0.025 A 
BRANCH  28  31
ATOM     31  N   LIG    1        4.502  -4.205   2.261  0.00  0.00    -0.333 N 
ATOM     32  C   LIG    1        5.133  -4.241   3.595  0.00  0.00    +0.086 C 
ATOM     33  C   LIG    1        6.505  -3.528   3.672  0.00  0.00    -0.060 C 
ATOM     34  N   LIG    1        7.456  -4.174   2.647  0.00  0.00    +0.380 N 
ATOM     35  H   LIG    1        7.563  -5.153   2.875  0.00  0.00    -0.082 HD
ATOM     36  C   LIG    1        8.834  -3.486   2.670  0.00  0.00    -0.096 C 
ATOM     37  C   LIG    1        6.813  -4.063   1.252  0.00  0.00    -0.060 C 
ATOM     38  C   LIG    1        5.444  -4.779   1.280  0.00  0.00    +0.086 C 
ENDBRANCH  28  31
ENDBRANCH  22  24
ENDBRANCH   6  22
TORSDOF 6
