REMARK  Name = DB06403
REMARK                            x       y       z     vdW  Elec       q    Type
REMARK                         _______ _______ _______ _____ _____    ______ ____
ROOT
ATOM      1  C   LIG    1        0.095   0.084  -0.306  0.00  0.00    +0.166 C 
ENDROOT
BRANCH   1   2
ATOM      2  C   LIG    1       -0.489   1.525  -0.222  0.00  0.00    -0.007 A 
ATOM      3  C   LIG    1       -0.897   2.208  -1.379  0.00  0.00    +0.007 A 
ATOM      4  C   LIG    1       -1.412   3.499  -1.298  0.00  0.00    +0.000 A 
ATOM      5  C   LIG    1       -1.521   4.121  -0.058  0.00  0.00    +0.000 A 
ATOM      6  C   LIG    1       -1.115   3.464   1.100  0.00  0.00    +0.000 A 
ATOM      7  C   LIG    1       -0.600   2.174   1.018  0.00  0.00    +0.007 A 
ENDBRANCH   1   2
BRANCH   1   8
ATOM      8  C   LIG    1       -0.623  -0.755  -1.406  0.00  0.00    -0.007 A 
ATOM      9  C   LIG    1        0.072  -1.517  -2.359  0.00  0.00    +0.007 A 
ATOM     10  C   LIG    1       -0.616  -2.265  -3.310  0.00  0.00    +0.000 A 
ATOM     11  C   LIG    1       -2.007  -2.271  -3.313  0.00  0.00    +0.000 A 
ATOM     12  C   LIG    1       -2.716  -1.541  -2.366  0.00  0.00    +0.000 A 
ATOM     13  C   LIG    1       -2.027  -0.793  -1.416  0.00  0.00    +0.007 A 
ENDBRANCH   1   8
BRANCH   1  15
ATOM     14  C   LIG    1        0.252  -1.865   1.225  0.00  0.00    +0.195 C 
ATOM     15  O   LIG    1       -0.246  -0.557   0.942  0.00  0.00    -0.363 OA
ENDBRANCH   1  15
BRANCH   1  16
ATOM     16  C   LIG    1        1.674   0.172  -0.412  0.00  0.00    +0.325 C 
BRANCH  16  17
ATOM     17  C   LIG    1        2.217   1.046  -1.579  0.00  0.00    +0.350 C 
ATOM     18  O   LIG    1        2.409   0.609  -2.712  0.00  0.00    -0.247 OA
BRANCH  17  19
ATOM     19  O   LIG    1        2.467   2.336  -1.206  0.00  0.00    -0.478 OA
ATOM     20  H   LIG    1        2.805   2.868  -1.930  0.00  0.00    +0.295 HD
ENDBRANCH  17  19
ENDBRANCH  16  17
BRANCH  16  21
ATOM     21  O   LIG    1        2.171   0.673   0.848  0.00  0.00    -0.444 OA
BRANCH  21  22
ATOM     22  C   LIG    1        3.486   0.484   1.239  0.00  0.00    +0.319 A 
ATOM     23  N   LIG    1        4.323  -0.277   0.476  0.00  0.00    -0.200 NA
ATOM     24  C   LIG    1        5.596  -0.415   0.931  0.00  0.00    +0.045 A 
ATOM     25  C   LIG    1        6.516  -1.265   0.076  0.00  0.00    +0.066 C 
ATOM     26  C   LIG    1        6.039   0.182   2.116  0.00  0.00    +0.046 A 
ATOM     27  C   LIG    1        5.101   0.940   2.827  0.00  0.00    +0.045 A 
ATOM     28  C   LIG    1        5.462   1.634   4.126  0.00  0.00    +0.066 C 
ATOM     29  N   LIG    1        3.819   1.100   2.403  0.00  0.00    -0.200 NA
ENDBRANCH  21  22
ENDBRANCH  16  21
ENDBRANCH   1  16
TORSDOF 8
