REMARK  Name = DB06680
REMARK                            x       y       z     vdW  Elec       q    Type
REMARK                         _______ _______ _______ _____ _____    ______ ____
ROOT
ATOM      1  C   LIG    1        3.630   0.555   0.842  0.00  0.00    +0.014 C 
ATOM      2  C   LIG    1        2.111   0.398   1.200  0.00  0.00    +0.003 C 
ATOM      3  C   LIG    1        1.365  -0.239  -0.034  0.00  0.00    +0.098 C 
ATOM      4  C   LIG    1        1.703  -1.757   0.109  0.00  0.00    +0.038 C 
ATOM      5  C   LIG    1        2.117  -2.005   1.573  0.00  0.00    +0.007 C 
ATOM      6  C   LIG    1        1.836  -0.676   2.284  0.00  0.00    +0.005 C 
ATOM      7  C   LIG    1        2.542  -0.356   3.629  0.00  0.00    +0.020 C 
ATOM      8  C   LIG    1        1.984   1.002   4.148  0.00  0.00    -0.055 C 
ATOM      9  C   LIG    1        2.156   2.172   3.143  0.00  0.00    +0.046 C 
ATOM     10  C   LIG    1        1.357   1.121   5.355  0.00  0.00    -0.044 C 
ATOM     11  C   LIG    1        1.071  -0.066   6.178  0.00  0.00    -0.041 C 
ATOM     12  C   LIG    1        0.713   0.040   7.480  0.00  0.00    +0.050 C 
ATOM     13  C   LIG    1        0.575   1.303   8.194  0.00  0.00    +0.157 C 
ATOM     14  O   LIG    1        0.141   1.356   9.343  0.00  0.00    -0.293 OA
ATOM     15  C   LIG    1        1.131   2.533   7.465  0.00  0.00    +0.083 C 
ATOM     16  C   LIG    1        1.165  -1.435   5.522  0.00  0.00    +0.036 C 
ATOM     17  C   LIG    1        0.912   2.475   5.933  0.00  0.00    +0.043 C 
ATOM     18  C   LIG    1        2.450  -1.481   4.693  0.00  0.00    +0.013 C 
ATOM     19  C   LIG    1        1.558   1.738   1.763  0.00  0.00    +0.022 C 
ENDROOT
BRANCH   9  20
ATOM     20  C   LIG    1        3.538   2.850   3.088  0.00  0.00    -0.040 A 
ATOM     21  C   LIG    1        4.589   2.448   3.922  0.00  0.00    +0.005 A 
ATOM     22  C   LIG    1        5.826   3.083   3.857  0.00  0.00    +0.010 A 
ATOM     23  C   LIG    1        6.039   4.144   2.965  0.00  0.00    -0.004 A 
ATOM     24  C   LIG    1        4.982   4.555   2.147  0.00  0.00    +0.010 A 
ATOM     25  C   LIG    1        3.745   3.920   2.212  0.00  0.00    +0.005 A 
BRANCH  23  26
ATOM     26  C   LIG    1        7.331   4.838   2.867  0.00  0.00    +0.160 C 
ATOM     27  N   LIG    1        8.350   4.540   3.565  0.00  0.00    -0.095 NA
BRANCH  27  28
ATOM     28  O   LIG    1        9.439   5.368   3.261  0.00  0.00    -0.409 OA
ATOM     29  H   LIG    1       10.117   5.033   3.853  0.00  0.00    +0.328 HD
ENDBRANCH  27  28
ENDBRANCH  23  26
ENDBRANCH   9  20
BRANCH   3  30
ATOM     30  O   LIG    1        1.898   0.309  -1.256  0.00  0.00    -0.374 OA
ATOM     31  C   LIG    1        1.479  -0.239  -2.505  0.00  0.00    +0.194 C 
ENDBRANCH   3  30
BRANCH   3  32
ATOM     32  C   LIG    1       -0.182  -0.003  -0.061  0.00  0.00    +0.194 C 
BRANCH  32  33
ATOM     33  O   LIG    1       -0.488   1.353  -0.371  0.00  0.00    -0.380 OA
ATOM     34  C   LIG    1       -1.878   1.639  -0.370  0.00  0.00    +0.194 C 
ENDBRANCH  32  33
ENDBRANCH   3  32
TORSDOF 6
