REMARK  Name = DB06468
REMARK                            x       y       z     vdW  Elec       q    Type
REMARK                         _______ _______ _______ _____ _____    ______ ____
ROOT
ATOM      1  C   LIG    1       -2.692   0.047   0.153  0.00  0.00    -0.020 A 
ATOM      2  C   LIG    1       -1.920  -1.137   0.201  0.00  0.00    +0.092 A 
ATOM      3  C   LIG    1       -0.534  -1.046   0.393  0.00  0.00    +0.041 A 
ATOM      4  C   LIG    1        0.114   0.190   0.540  0.00  0.00    +0.058 A 
ATOM      5  C   LIG    1       -0.662   1.351   0.483  0.00  0.00    +0.015 A 
ATOM      6  C   LIG    1       -2.038   1.279   0.290  0.00  0.00    +0.006 A 
ENDROOT
BRANCH   2   7
ATOM      7  S   LIG    1       -2.618  -2.795  -0.004  0.00  0.00    -0.006 S 
ATOM      8  C   LIG    1       -3.611  -3.077   1.581  0.00  0.00    +0.200 C 
ATOM      9  O   LIG    1       -1.510  -3.757  -0.003  0.00  0.00    -0.170 OA
ATOM     10  O   LIG    1       -3.533  -2.758  -1.150  0.00  0.00    -0.170 OA
ENDBRANCH   2   7
BRANCH   1  12
ATOM     11  C   LIG    1       -4.587   0.604  -1.453  0.00  0.00    +0.012 C 
ATOM     12  C   LIG    1       -4.215   0.070  -0.057  0.00  0.00    +0.015 C 
ATOM     13  C   LIG    1       -4.958   0.825   1.064  0.00  0.00    +0.012 C 
ENDBRANCH   1  12
BRANCH   4  14
ATOM     14  C   LIG    1        1.614   0.298   0.746  0.00  0.00    +0.341 C 
ATOM     15  O   LIG    1        2.168   1.391   0.905  0.00  0.00    -0.248 OA
BRANCH  14  16
ATOM     16  N   LIG    1        2.312  -0.900   0.836  0.00  0.00    -0.000 NA
ATOM     17  C   LIG    1        3.251  -1.187   0.014  0.00  0.00    +0.375 C 
BRANCH  17  18
ATOM     18  N   LIG    1        3.957  -2.404   0.109  0.00  0.00    -0.291 N 
ATOM     19  H   LIG    1        4.278  -2.825  -0.750  0.00  0.00    +0.254 HD
ATOM     20  H   LIG    1        3.587  -3.105   0.735  0.00  0.00    +0.254 HD
ENDBRANCH  17  18
BRANCH  17  21
ATOM     21  N   LIG    1        3.735  -0.413  -1.076  0.00  0.00    -0.291 N 
ATOM     22  H   LIG    1        4.715  -0.492  -1.302  0.00  0.00    +0.254 HD
ATOM     23  H   LIG    1        3.431   0.549  -1.129  0.00  0.00    +0.254 HD
ENDBRANCH  17  21
ENDBRANCH  14  16
ENDBRANCH   4  14
TORSDOF 6
