REMARK  Name = DB06633
REMARK                            x       y       z     vdW  Elec       q    Type
REMARK                         _______ _______ _______ _____ _____    ______ ____
ROOT
ATOM      1  C   LIG    1        1.492   0.009   0.036  0.00  0.00    +0.214 C 
ENDROOT
BRANCH   1   2
ATOM      2  S   LIG    1        2.193   0.882  -1.502  0.00  0.00    +0.081 S 
ATOM      3  O   LIG    1        1.826   2.291  -1.323  0.00  0.00    -0.147 OA
ATOM      4  O   LIG    1        1.526   0.211  -2.623  0.00  0.00    -0.147 OA
BRANCH   2   5
ATOM      5  O   LIG    1        3.633   0.620  -1.409  0.00  0.00    -0.254 OA
ATOM      6  H   LIG    1        3.798  -0.328  -1.537  0.00  0.00    +0.244 HD
ENDBRANCH   2   5
ENDBRANCH   1   2
BRANCH   1   7
ATOM      7  C   LIG    1       -0.050  -0.057   0.055  0.00  0.00    +0.124 C 
BRANCH   7   9
ATOM      8 CL   LIG    1       -2.436   1.142   0.145  0.00  0.00    -0.024 Cl
ATOM      9  N   LIG    1       -0.656   1.260  -0.029  0.00  0.00    -0.231 NA
ATOM     10  H   LIG    1       -0.404   1.804   0.784  0.00  0.00    +0.141 HD
ENDBRANCH   7   9
ENDBRANCH   1   7
TORSDOF 4
