REMARK  Name = DB06777
REMARK                            x       y       z     vdW  Elec       q    Type
REMARK                         _______ _______ _______ _____ _____    ______ ____
ROOT
ATOM      1  C   LIG    1       -0.456  -1.075   1.321  0.00  0.00    -0.026 C 
ATOM      2  C   LIG    1        0.400  -2.362   1.555  0.00  0.00    +0.012 C 
ATOM      3  C   LIG    1       -0.638  -0.258   2.632  0.00  0.00    +0.007 C 
ATOM      4  C   LIG    1       -1.416  -1.050   3.710  0.00  0.00    +0.005 C 
ATOM      5  C   LIG    1       -2.801  -1.574   3.212  0.00  0.00    +0.001 C 
ATOM      6  C   LIG    1       -2.712  -2.273   1.807  0.00  0.00    +0.025 C 
ATOM      7  C   LIG    1       -4.130  -2.641   1.265  0.00  0.00    +0.118 C 
ATOM      8  C   LIG    1       -4.980  -3.396   2.323  0.00  0.00    +0.035 C 
ATOM      9  C   LIG    1       -5.020  -2.732   3.730  0.00  0.00    +0.000 C 
ATOM     10  C   LIG    1       -5.929  -1.466   3.773  0.00  0.00    +0.035 C 
ATOM     11  C   LIG    1       -5.948  -0.745   5.137  0.00  0.00    +0.115 C 
ATOM     12  C   LIG    1       -4.527  -0.494   5.679  0.00  0.00    +0.032 C 
ATOM     13  C   LIG    1       -3.704  -1.793   5.675  0.00  0.00    +0.010 C 
ATOM     14  C   LIG    1       -3.571  -2.458   4.268  0.00  0.00    -0.026 C 
ATOM     15  C   LIG    1       -2.849  -3.818   4.517  0.00  0.00    +0.012 C 
ATOM     16  C   LIG    1        0.085  -0.266   0.092  0.00  0.00    -0.002 C 
ATOM     17  C   LIG    1       -0.539  -1.000  -1.130  0.00  0.00    +0.004 C 
ATOM     18  C   LIG    1       -1.738  -1.817  -0.625  0.00  0.00    +0.005 C 
ATOM     19  C   LIG    1       -1.898  -1.372   0.829  0.00  0.00    +0.001 C 
ENDROOT
BRANCH   7  20
ATOM     20  O   LIG    1       -4.837  -1.520   0.766  0.00  0.00    -0.391 OA
ATOM     21  H   LIG    1       -4.318  -1.121   0.064  0.00  0.00    +0.210 HD
ENDBRANCH   7  20
BRANCH  11  22
ATOM     22  O   LIG    1       -6.672   0.466   5.059  0.00  0.00    -0.392 OA
ATOM     23  H   LIG    1       -7.431   0.406   5.643  0.00  0.00    +0.210 HD
ENDBRANCH  11  22
BRANCH  16  24
ATOM     24  C   LIG    1        1.631  -0.041  -0.049  0.00  0.00    -0.010 C 
ATOM     25  C   LIG    1        2.271   0.605   1.201  0.00  0.00    +0.008 C 
BRANCH  24  26
ATOM     26  C   LIG    1        1.970   0.791  -1.322  0.00  0.00    +0.014 C 
BRANCH  26  27
ATOM     27  C   LIG    1        3.473   0.837  -1.689  0.00  0.00    +0.121 C 
BRANCH  27  28
ATOM     28  C   LIG    1        3.718   1.431  -3.081  0.00  0.00    +0.305 C 
ATOM     29  O   LIG    1        3.497   0.816  -4.122  0.00  0.00    -0.251 OA
BRANCH  28  30
ATOM     30  O   LIG    1        4.198   2.706  -3.015  0.00  0.00    -0.481 OA
ATOM     31  H   LIG    1        4.355   3.082  -3.884  0.00  0.00    +0.295 HD
ENDBRANCH  28  30
ENDBRANCH  27  28
ENDBRANCH  26  27
ENDBRANCH  24  26
ENDBRANCH  16  24
TORSDOF 7
