REMARK  Name = DB06636
REMARK                            x       y       z     vdW  Elec       q    Type
REMARK                         _______ _______ _______ _____ _____    ______ ____
ROOT
ATOM      1  C   LIG    1        4.103  -1.080   0.402  0.00  0.00    +0.144 C 
ENDROOT
BRANCH   1   2
ATOM      2  N   LIG    1        2.826  -0.789  -0.257  0.00  0.00    -0.218 NA
ATOM      3  N   LIG    1        2.803  -0.246  -1.496  0.00  0.00    -0.232 NA
ATOM      4  H   LIG    1        3.366   0.604  -1.532  0.00  0.00    +0.143 HD
ATOM      5  C   LIG    1        1.531   0.026  -1.695  0.00  0.00    +0.176 C 
ATOM      6  N   LIG    1        0.704  -0.317  -0.632  0.00  0.00    -0.229 NA
ATOM      7  C   LIG    1        1.564  -0.890   0.278  0.00  0.00    +0.179 C 
BRANCH   6   8
ATOM      8  C   LIG    1       -0.714  -0.051  -0.498  0.00  0.00    +0.249 C 
ATOM      9  C   LIG    1       -1.530  -1.134   0.222  0.00  0.00    +0.070 C 
BRANCH   8  10
ATOM     10  O   LIG    1       -0.978   1.246   0.007  0.00  0.00    -0.431 OA
BRANCH  10  11
ATOM     11  C   LIG    1       -0.664   1.589   1.317  0.00  0.00    +0.410 C 
ATOM     12  O   LIG    1       -0.139   0.820   2.128  0.00  0.00    -0.226 OA
ATOM     13  N   LIG    1       -0.995   2.930   1.591  0.00  0.00    -0.224 N 
ATOM     14  C   LIG    1       -0.774   3.442   2.948  0.00  0.00    +0.143 C 
BRANCH  13  15
ATOM     15  C   LIG    1       -1.672   3.772   0.689  0.00  0.00    +0.136 A 
ATOM     16  N   LIG    1       -2.976   3.469   0.430  0.00  0.00    -0.239 NA
ATOM     17  C   LIG    1       -3.665   4.256  -0.432  0.00  0.00    +0.113 A 
ATOM     18  C   LIG    1       -3.098   5.362  -1.062  0.00  0.00    +0.020 A 
ATOM     19  C   LIG    1       -1.765   5.669  -0.792  0.00  0.00    +0.012 A 
ATOM     20  C   LIG    1       -1.024   4.873   0.091  0.00  0.00    +0.030 A 
BRANCH  20  21
ATOM     21  C   LIG    1        0.436   5.237   0.355  0.00  0.00    +0.271 C 
BRANCH  21  22
ATOM     22  O   LIG    1        1.230   4.992  -0.803  0.00  0.00    -0.459 OA
BRANCH  22  23
ATOM     23  C   LIG    1        1.912   3.837  -0.971  0.00  0.00    +0.321 C 
ATOM     24  O   LIG    1        1.972   2.908  -0.160  0.00  0.00    -0.249 OA
BRANCH  23  25
ATOM     25  C   LIG    1        2.661   3.824  -2.310  0.00  0.00    +0.202 C 
BRANCH  25  26
ATOM     26  N   LIG    1        3.651   2.759  -2.411  0.00  0.00    -0.310 NA
ATOM     27  H   LIG    1        4.362   2.887  -1.704  0.00  0.00    +0.122 HD
ATOM     28  C   LIG    1        4.274   2.763  -3.724  0.00  0.00    +0.101 C 
ENDBRANCH  25  26
ENDBRANCH  23  25
ENDBRANCH  22  23
ENDBRANCH  21  22
ENDBRANCH  20  21
ENDBRANCH  13  15
ENDBRANCH  10  11
ENDBRANCH   8  10
ENDBRANCH   6   8
ENDBRANCH   1   2
BRANCH   1  29
ATOM     29  C   LIG    1        4.743   0.152   1.154  0.00  0.00    +0.116 C 
BRANCH  29  30
ATOM     30  C   LIG    1        6.099  -0.238   1.813  0.00  0.00    +0.024 A 
ATOM     31  C   LIG    1        7.207   0.639   1.829  0.00  0.00    +0.130 A 
ATOM     32  F   LIG    1        7.141   1.871   1.274  0.00  0.00    -0.205 F 
ATOM     33  C   LIG    1        8.404   0.269   2.443  0.00  0.00    +0.041 A 
ATOM     34  C   LIG    1        8.526  -0.973   3.059  0.00  0.00    +0.041 A 
ATOM     35  C   LIG    1        7.444  -1.847   3.067  0.00  0.00    +0.124 A 
ATOM     36  F   LIG    1        7.553  -3.050   3.675  0.00  0.00    -0.205 F 
ATOM     37  C   LIG    1        6.246  -1.482   2.454  0.00  0.00    +0.047 A 
ENDBRANCH  29  30
BRANCH  29  39
ATOM     38  C   LIG    1        3.307  -0.121   3.333  0.00  0.00    +0.018 C 
ATOM     39  C   LIG    1        3.768   0.825   2.197  0.00  0.00    +0.079 C 
BRANCH  39  40
ATOM     40  C   LIG    1        4.297   2.141   2.774  0.00  0.00    +0.085 A 
ATOM     41  S   LIG    1        3.855   3.709   2.170  0.00  0.00    -0.080 S 
ATOM     42  C   LIG    1        4.921   4.413   3.358  0.00  0.00    +0.075 A 
ATOM     43  C   LIG    1        5.539   3.411   4.108  0.00  0.00    +0.078 A 
ATOM     44  N   LIG    1        5.155   2.192   3.767  0.00  0.00    -0.244 NA
BRANCH  43  45
ATOM     45  C   LIG    1        6.554   3.609   5.199  0.00  0.00    +0.001 A 
ATOM     46  C   LIG    1        7.298   2.530   5.699  0.00  0.00    +0.011 A 
ATOM     47  C   LIG    1        8.240   2.724   6.706  0.00  0.00    +0.019 A 
ATOM     48  C   LIG    1        8.448   4.003   7.223  0.00  0.00    +0.052 A 
ATOM     49  C   LIG    1        7.715   5.085   6.736  0.00  0.00    +0.019 A 
ATOM     50  C   LIG    1        6.773   4.887   5.729  0.00  0.00    +0.011 A 
BRANCH  48  51
ATOM     51  C   LIG    1        9.433   4.208   8.275  0.00  0.00    +0.099 C 
ATOM     52  N   LIG    1       10.217   4.372   9.111  0.00  0.00    -0.191 NA
ENDBRANCH  48  51
ENDBRANCH  43  45
ENDBRANCH  39  40
ENDBRANCH  29  39
BRANCH  29  53
ATOM     53  O   LIG    1        4.938   1.091   0.101  0.00  0.00    -0.382 OA
ATOM     54  H   LIG    1        4.080   1.328  -0.260  0.00  0.00    +0.211 HD
ENDBRANCH  29  53
ENDBRANCH   1  29
TORSDOF 17
