REMARK  Name = DB06554
REMARK                            x       y       z     vdW  Elec       q    Type
REMARK                         _______ _______ _______ _____ _____    ______ ____
ROOT
ATOM      1  C   LIG    1       -2.105   0.677  -0.871  0.00  0.00    +0.056 A 
ATOM      2  C   LIG    1       -1.492  -0.285   0.138  0.00  0.00    +0.025 C 
ATOM      3  C   LIG    1       -0.123   0.251   0.641  0.00  0.00    -0.077 C 
ATOM      4  N   LIG    1        0.736   0.743  -0.546  0.00  0.00    +0.384 N 
ATOM      5  H   LIG    1        1.648   1.026  -0.219  0.00  0.00    -0.085 HD
ATOM      6  H   LIG    1        0.873  -0.031  -1.181  0.00  0.00    -0.085 HD
ATOM      7  C   LIG    1        0.077   1.911  -1.319  0.00  0.00    -0.004 C 
ATOM      8  C   LIG    1       -1.412   1.634  -1.487  0.00  0.00    +0.125 A 
ATOM      9  O   LIG    1       -2.142   2.358  -2.326  0.00  0.00    -0.383 OA
ATOM     10  N   LIG    1       -3.478   1.793  -2.220  0.00  0.00    -0.184 N 
ATOM     11  H   LIG    1       -4.271   2.103  -2.713  0.00  0.00    +0.211 HD
ATOM     12  C   LIG    1       -3.451   0.803  -1.361  0.00  0.00    +0.283 A 
ATOM     13  O   LIG    1       -4.398   0.096  -1.022  0.00  0.00    -0.265 OA
ENDROOT
TORSDOF 0
