REMARK  Name = DB06179
REMARK                            x       y       z     vdW  Elec       q    Type
REMARK                         _______ _______ _______ _____ _____    ______ ____
ROOT
ATOM      1  C   UNK A  1       -0.385   0.185   0.213  0.00  0.00    +0.000 C 
ENDROOT
BRANCH   1   2
ATOM      2  N   UNK A  1        1.067   0.046   0.342  0.00  0.00    +0.000 N 
ATOM      3  H   UNK A  1        1.453   0.346   1.225  0.00  0.00    +0.000 HD
ATOM      4  C   UNK A  1        1.902  -0.331  -0.641  0.00  0.00    +0.000 C 
ATOM      5  O   UNK A  1        1.516  -0.712  -1.747  0.00  0.00    +0.000 OA
BRANCH   4   6
ATOM      6  C   UNK A  1        3.402  -0.262  -0.327  0.00  0.00    +0.000 C 
BRANCH   6   7
ATOM      7  C   UNK A  1        4.230   0.377  -1.467  0.00  0.00    +0.000 C 
BRANCH   7   8
ATOM      8  C   UNK A  1        5.637   0.862  -1.036  0.00  0.00    +0.000 C 
BRANCH   8   9
ATOM      9  N   UNK A  1        6.187   1.787  -2.137  0.00  0.00    +0.000 N 
ATOM     10  H   UNK A  1        6.272   1.280  -3.006  0.00  0.00    +0.000 HD
ATOM     11  H   UNK A  1        5.558   2.565  -2.277  0.00  0.00    +0.000 HD
ATOM     12  H   UNK A  1        7.092   2.148  -1.869  0.00  0.00    +0.000 HD
ENDBRANCH   8   9
BRANCH   8  13
ATOM     13  C   UNK A  1        6.633  -0.311  -0.826  0.00  0.00    +0.000 C 
ATOM     14  O   UNK A  1        6.557  -0.904   0.273  0.00  0.00    +0.000 OA
BRANCH  13  15
ATOM     15  O   UNK A  1        7.436  -0.631  -1.734  0.00  0.00    +0.000 OA
ATOM     16  H   UNK A  1        7.450  -0.150  -2.539  0.00  0.00    +0.000 HD
ENDBRANCH  13  15
ENDBRANCH   8  13
ENDBRANCH   7   8
ENDBRANCH   6   7
ENDBRANCH   4   6
ENDBRANCH   1   2
BRANCH   1  17
ATOM     17  C   UNK A  1       -0.676   1.613  -0.282  0.00  0.00    +0.000 C 
ATOM     18  N   GLY A  2       -0.598   1.797  -1.612  0.00  0.00    +0.000 N 
ATOM     19  H   GLY A  2       -0.404   0.999  -2.200  0.00  0.00    +0.000 HD
ATOM     20  O   UNK A  1       -0.916   2.508   0.529  0.00  0.00    +0.000 OA
BRANCH  18  21
ATOM     21  CA  GLY A  2       -0.714   3.095  -2.292  0.00  0.00    +0.000 C 
BRANCH  21  22
ATOM     22  C   GLY A  2        0.608   3.909  -2.361  0.00  0.00    +0.000 C 
ATOM     23  O   GLY A  2        0.504   5.077  -2.799  0.00  0.00    +0.000 OA
BRANCH  22  24
ATOM     24  OXT GLY A  2        1.697   3.391  -2.014  0.00  0.00    +0.000 OA
ATOM     25  HXT GLY A  2        1.715   2.511  -1.692  0.00  0.00    +0.000 HD
ENDBRANCH  22  24
ENDBRANCH  21  22
ENDBRANCH  18  21
ENDBRANCH   1  17
BRANCH   1  26
ATOM     26  C   UNK A  1       -1.124  -0.132   1.538  0.00  0.00    +0.000 C 
BRANCH  26  27
ATOM     27  S   UNK A  1       -1.006  -1.886   2.012  0.00  0.00    +0.000 S 
BRANCH  27  29
ATOM     28  C   UNK A  1        0.738  -2.292   5.013  0.00  0.00    +0.000 C 
ATOM     29 AS   UNK A  1        0.913  -1.880   3.144  0.00  0.00    +0.000 As
ATOM     30  C   UNK A  1        2.363  -2.781   2.261  0.00  0.00    +0.000 C 
ENDBRANCH  27  29
ENDBRANCH  26  27
ENDBRANCH   1  26
TORSDOF 14
