REMARK  Name = DB06190
REMARK                            x       y       z     vdW  Elec       q    Type
REMARK                         _______ _______ _______ _____ _____    ______ ____
ROOT
ATOM      1  N   LIG    1        3.462  -1.458   0.329  0.00  0.00    -0.346 N 
ATOM      2  H   LIG    1        4.045  -0.743  -0.084  0.00  0.00    +0.146 HD
ENDROOT
BRANCH   1   3
ATOM      3  C   LIG    1        4.120  -2.642   0.704  0.00  0.00    +0.028 A 
ATOM      4  C   LIG    1        5.506  -2.587   0.884  0.00  0.00    +0.031 A 
ATOM      5  C   LIG    1        6.243  -3.720   1.257  0.00  0.00    -0.016 A 
ATOM      6  C   LIG    1        5.556  -4.926   1.448  0.00  0.00    +0.008 A 
ATOM      7  C   LIG    1        4.176  -4.998   1.274  0.00  0.00    +0.002 A 
ATOM      8  C   LIG    1        3.459  -3.862   0.903  0.00  0.00    +0.023 A 
BRANCH   5   9
ATOM      9  C   LIG    1        7.720  -3.644   1.446  0.00  0.00    -0.017 A 
ATOM     10  C   LIG    1        8.559  -4.665   0.977  0.00  0.00    +0.023 A 
ATOM     11  C   LIG    1        9.959  -4.625   1.141  0.00  0.00    +0.059 A 
ATOM     12  C   LIG    1       10.498  -3.505   1.802  0.00  0.00    +0.015 A 
ATOM     13  C   LIG    1        9.681  -2.481   2.273  0.00  0.00    +0.001 A 
ATOM     14  C   LIG    1        8.303  -2.551   2.095  0.00  0.00    +0.008 A 
BRANCH  11  15
ATOM     15  C   LIG    1       10.847  -5.740   0.626  0.00  0.00    +0.337 C 
ATOM     16  O   LIG    1       10.315  -6.727   0.063  0.00  0.00    -0.245 OA
BRANCH  15  17
ATOM     17  O   LIG    1       12.088  -5.644   0.780  0.00  0.00    -0.477 OA
ATOM     18  H   LIG    1       12.450  -4.892   1.206  0.00  0.00    +0.295 HD
ENDBRANCH  15  17
ENDBRANCH  11  15
ENDBRANCH   5   9
ENDBRANCH   1   3
BRANCH   1  19
ATOM     19  C   LIG    1        2.056  -1.463  -0.059  0.00  0.00    +0.082 C 
BRANCH  19  20
ATOM     20  C   LIG    1        1.525  -0.058  -0.395  0.00  0.00    -0.064 C 
BRANCH  20  21
ATOM     21  N   LIG    1        0.085   0.102   0.120  0.00  0.00    +0.382 N 
ATOM     22  H   LIG    1       -0.494  -0.607  -0.308  0.00  0.00    -0.086 HD
ATOM     23  H   LIG    1        0.076  -0.050   1.119  0.00  0.00    -0.086 HD
BRANCH  21  24
ATOM     24  C   LIG    1       -0.528   1.483  -0.181  0.00  0.00    -0.046 C 
BRANCH  24  25
ATOM     25  C   LIG    1       -1.991   1.564   0.314  0.00  0.00    +0.128 C 
BRANCH  25  29
ATOM     26 CL   LIG    1       -3.298   6.262   2.232  0.00  0.00    -0.084 Cl
ATOM     27  C   LIG    1       -3.177   5.150   0.917  0.00  0.00    +0.041 A 
ATOM     28  C   LIG    1       -2.666   3.869   1.131  0.00  0.00    +0.026 A 
ATOM     29  C   LIG    1       -2.567   2.958   0.072  0.00  0.00    -0.020 A 
ATOM     30  C   LIG    1       -2.977   3.354  -1.208  0.00  0.00    +0.006 A 
ATOM     31  C   LIG    1       -3.487   4.635  -1.422  0.00  0.00    +0.002 A 
ATOM     32  C   LIG    1       -3.588   5.532  -0.360  0.00  0.00    +0.020 A 
ENDBRANCH  25  29
BRANCH  25  33
ATOM     33  O   LIG    1       -2.776   0.549  -0.292  0.00  0.00    -0.389 OA
ATOM     34  H   LIG    1       -3.649   0.560   0.107  0.00  0.00    +0.210 HD
ENDBRANCH  25  33
ENDBRANCH  24  25
ENDBRANCH  21  24
ENDBRANCH  20  21
ENDBRANCH  19  20
ENDBRANCH   1  19
TORSDOF 11
