REMARK  Name = DB06070
REMARK                            x       y       z     vdW  Elec       q    Type
REMARK                         _______ _______ _______ _____ _____    ______ ____
ROOT
ATOM      1  C   LIG    1        1.443   0.056   0.018  0.00  0.00    +0.042 A 
ATOM      2  C   LIG    1        2.168  -1.151   0.194  0.00  0.00    +0.057 A 
ATOM      3  C   LIG    1        3.568  -1.095   0.290  0.00  0.00    +0.017 A 
ATOM      4  C   LIG    1        4.250   0.115   0.219  0.00  0.00    +0.028 A 
ATOM      5  C   LIG    1        3.544   1.307   0.052  0.00  0.00    +0.067 A 
ATOM      6  C   LIG    1        2.151   1.269  -0.045  0.00  0.00    +0.051 A 
ENDROOT
BRANCH   5   7
ATOM      7  N   LIG    1        4.229   2.542  -0.012  0.00  0.00    -0.235 N 
ATOM      8  N   LIG    1        5.234   2.797   0.842  0.00  0.00    -0.161 NA
ATOM      9  C   LIG    1        5.690   4.000   0.554  0.00  0.00    +0.176 A 
ATOM     10  C   LIG    1        4.986   4.542  -0.541  0.00  0.00    +0.070 A 
ATOM     11  C   LIG    1        5.156   5.787  -1.291  0.00  0.00    +0.167 C 
ATOM     12  O   LIG    1        6.082   6.574  -1.106  0.00  0.00    -0.292 OA
ATOM     13  C   LIG    1        4.102   5.996  -2.400  0.00  0.00    +0.086 C 
ATOM     14  C   LIG    1        3.612   4.687  -3.103  0.00  0.00    -0.022 C 
ATOM     15  C   LIG    1        2.455   5.079  -4.047  0.00  0.00    +0.011 C 
ATOM     16  C   LIG    1        4.789   4.027  -3.868  0.00  0.00    +0.011 C 
ATOM     17  C   LIG    1        3.052   3.680  -2.045  0.00  0.00    +0.063 C 
ATOM     18  C   LIG    1        4.015   3.603  -0.863  0.00  0.00    +0.056 A 
BRANCH   9  19
ATOM     19  C   LIG    1        6.865   4.571   1.339  0.00  0.00    +0.437 C 
ATOM     20  F   LIG    1        7.019   3.973   2.522  0.00  0.00    -0.164 F 
ATOM     21  F   LIG    1        6.704   5.871   1.582  0.00  0.00    -0.164 F 
ATOM     22  F   LIG    1        8.003   4.420   0.661  0.00  0.00    -0.164 F 
ENDBRANCH   9  19
ENDBRANCH   5   7
BRANCH   2  23
ATOM     23  C   LIG    1        1.488  -2.504   0.298  0.00  0.00    +0.243 C 
ATOM     24  O   LIG    1        0.426  -2.653   0.900  0.00  0.00    -0.270 OA
ATOM     25  N   LIG    1        2.096  -3.527  -0.313  0.00  0.00    -0.325 N 
ATOM     26  H   LIG    1        1.688  -4.449  -0.282  0.00  0.00    +0.145 HD
ATOM     27  H   LIG    1        2.961  -3.381  -0.813  0.00  0.00    +0.145 HD
ENDBRANCH   2  23
BRANCH   1  28
ATOM     28  N   LIG    1        0.035   0.034  -0.112  0.00  0.00    -0.340 N 
ATOM     29  H   LIG    1       -0.412  -0.809   0.222  0.00  0.00    +0.146 HD
BRANCH  28  33
ATOM     30  C   LIG    1       -3.363   2.515   0.675  0.00  0.00    +0.176 C 
ATOM     31  C   LIG    1       -3.165   2.004  -0.767  0.00  0.00    +0.046 C 
ATOM     32  C   LIG    1       -2.165   0.831  -0.797  0.00  0.00    +0.026 C 
ATOM     33  C   LIG    1       -0.811   1.226  -0.163  0.00  0.00    +0.071 C 
ATOM     34  C   LIG    1       -1.002   1.789   1.269  0.00  0.00    +0.026 C 
ATOM     35  C   LIG    1       -2.009   2.957   1.283  0.00  0.00    +0.046 C 
BRANCH  30  36
ATOM     36  O   LIG    1       -4.327   3.567   0.670  0.00  0.00    -0.463 OA
BRANCH  36  38
ATOM     37  O   LIG    1       -4.902   3.375   2.891  0.00  0.00    -0.253 OA
ATOM     38  C   LIG    1       -5.030   3.905   1.787  0.00  0.00    +0.290 C 
BRANCH  38  39
ATOM     39  C   LIG    1       -6.030   5.065   1.614  0.00  0.00    +0.036 C 
BRANCH  39  40
ATOM     40  N   LIG    1       -6.320   5.504   0.168  0.00  0.00    +0.385 N 
ATOM     41  H   LIG    1       -5.468   5.802  -0.286  0.00  0.00    -0.089 HD
ATOM     42  H   LIG    1       -6.726   4.741  -0.355  0.00  0.00    -0.089 HD
ATOM     43  H   LIG    1       -6.971   6.276   0.165  0.00  0.00    -0.089 HD
ENDBRANCH  39  40
ENDBRANCH  38  39
ENDBRANCH  36  38
ENDBRANCH  30  36
ENDBRANCH  28  33
ENDBRANCH   1  28
TORSDOF 9
