REMARK  Name = DB06623
REMARK                            x       y       z     vdW  Elec       q    Type
REMARK                         _______ _______ _______ _____ _____    ______ ____
ROOT
ATOM      1  C   LIG    1        1.325  -0.028   0.105  0.00  0.00    +0.121 A 
ATOM      2  C   LIG    1        2.008  -1.217   0.369  0.00  0.00    +0.045 A 
ATOM      3  C   LIG    1        3.400  -1.232   0.288  0.00  0.00    +0.030 A 
ATOM      4  C   LIG    1        4.095  -0.063  -0.067  0.00  0.00    +0.076 A 
ATOM      5  C   LIG    1        3.338   1.099  -0.308  0.00  0.00    +0.140 A 
ATOM      6  N   LIG    1        1.985   1.115  -0.227  0.00  0.00    -0.216 NA
ENDROOT
BRANCH   4   7
ATOM      7  N   LIG    1        5.501  -0.013  -0.145  0.00  0.00    -0.248 N 
ATOM      8  H   LIG    1        5.912   0.903  -0.043  0.00  0.00    +0.158 HD
ATOM      9  C   LIG    1        6.384  -1.050  -0.429  0.00  0.00    +0.405 C 
ATOM     10  O   LIG    1        6.095  -2.220  -0.690  0.00  0.00    -0.226 OA
BRANCH   9  11
ATOM     11  O   LIG    1        7.641  -0.564  -0.386  0.00  0.00    -0.450 OA
BRANCH  11  12
ATOM     12  C   LIG    1        8.759  -1.407  -0.637  0.00  0.00    +0.230 C 
ATOM     13  C   LIG    1       10.050  -0.598  -0.488  0.00  0.00    +0.048 C 
ENDBRANCH  11  12
ENDBRANCH   9  11
ENDBRANCH   4   7
BRANCH   5  14
ATOM     14  N   LIG    1        3.931   2.315  -0.653  0.00  0.00    -0.342 N 
ATOM     15  H   LIG    1        3.341   3.116  -0.826  0.00  0.00    +0.144 HD
ATOM     16  H   LIG    1        4.934   2.374  -0.751  0.00  0.00    +0.144 HD
ENDBRANCH   5  14
BRANCH   1  17
ATOM     17  N   LIG    1       -0.079  -0.038   0.179  0.00  0.00    -0.325 N 
ATOM     18  H   LIG    1       -0.515  -0.833   0.621  0.00  0.00    +0.148 HD
BRANCH  17  19
ATOM     19  C   LIG    1       -0.867   1.191   0.070  0.00  0.00    +0.138 C 
BRANCH  19  24
ATOM     20  F   LIG    1       -1.153   3.231  -5.206  0.00  0.00    -0.205 F 
ATOM     21  C   LIG    1       -1.087   2.739  -3.948  0.00  0.00    +0.123 A 
ATOM     22  C   LIG    1       -1.301   1.380  -3.726  0.00  0.00    +0.038 A 
ATOM     23  C   LIG    1       -1.233   0.873  -2.431  0.00  0.00    +0.008 A 
ATOM     24  C   LIG    1       -0.946   1.725  -1.358  0.00  0.00    -0.030 A 
ATOM     25  C   LIG    1       -0.740   3.088  -1.590  0.00  0.00    +0.008 A 
ATOM     26  C   LIG    1       -0.807   3.595  -2.885  0.00  0.00    +0.038 A 
ENDBRANCH  19  24
ENDBRANCH  17  19
ENDBRANCH   1  17
TORSDOF 7
