REMARK  Name = DB06691
REMARK                            x       y       z     vdW  Elec       q    Type
REMARK                         _______ _______ _______ _____ _____    ______ ____
ROOT
ATOM      1  N   LIG    1       -0.005  -0.476  -0.258  0.00  0.00    -0.310 N 
ENDROOT
BRANCH   1   2
ATOM      2  C   LIG    1       -0.518  -1.801  -0.160  0.00  0.00    +0.122 A 
ATOM      3  N   LIG    1        0.270  -2.759   0.412  0.00  0.00    -0.240 NA
ATOM      4  C   LIG    1       -0.197  -4.028   0.522  0.00  0.00    +0.113 A 
ATOM      5  C   LIG    1       -1.459  -4.407   0.069  0.00  0.00    +0.020 A 
ATOM      6  C   LIG    1       -2.268  -3.439  -0.522  0.00  0.00    +0.005 A 
ATOM      7  C   LIG    1       -1.799  -2.130  -0.642  0.00  0.00    +0.043 A 
ENDBRANCH   1   2
BRANCH   1   8
ATOM      8  C   LIG    1        1.400  -0.185   0.058  0.00  0.00    +0.122 C 
BRANCH   8   9
ATOM      9  C   LIG    1        1.612   0.212   1.534  0.00  0.00    +0.102 C 
BRANCH   9  10
ATOM     10  N   LIG    1        2.998   0.588   1.828  0.00  0.00    -0.307 NA
ATOM     11  C   LIG    1        3.911  -0.551   1.742  0.00  0.00    +0.104 C 
ATOM     12  C   LIG    1        3.075   1.159   3.170  0.00  0.00    +0.104 C 
ENDBRANCH   9  10
ENDBRANCH   8   9
ENDBRANCH   1   8
BRANCH   1  13
ATOM     13  C   LIG    1       -0.867   0.658  -0.631  0.00  0.00    +0.141 C 
BRANCH  13  14
ATOM     14  C   LIG    1       -2.040   0.931   0.318  0.00  0.00    -0.030 A 
ATOM     15  C   LIG    1       -3.169   1.574  -0.192  0.00  0.00    +0.009 A 
ATOM     16  C   LIG    1       -4.254   1.850   0.636  0.00  0.00    +0.046 A 
ATOM     17  C   LIG    1       -4.226   1.494   1.984  0.00  0.00    +0.120 A 
ATOM     18  C   LIG    1       -3.089   0.855   2.499  0.00  0.00    +0.046 A 
ATOM     19  C   LIG    1       -2.004   0.579   1.673  0.00  0.00    +0.009 A 
BRANCH  17  20
ATOM     20  O   LIG    1       -5.348   1.808   2.729  0.00  0.00    -0.495 OA
ATOM     21  C   LIG    1       -5.379   1.469   4.112  0.00  0.00    +0.277 C 
ENDBRANCH  17  20
ENDBRANCH  13  14
ENDBRANCH   1  13
TORSDOF 7
