REMARK  Name = DB06364
REMARK                            x       y       z     vdW  Elec       q    Type
REMARK                         _______ _______ _______ _____ _____    ______ ____
ROOT
ATOM      1  C   LIG    1       -0.183  -0.601   0.012  0.00  0.00    -0.067 C 
ENDROOT
BRANCH   1   2
ATOM      2  N   LIG    1       -1.046   0.640   0.316  0.00  0.00    +0.381 N 
ATOM      3  H   LIG    1       -0.700   1.425  -0.217  0.00  0.00    -0.086 HD
ATOM      4  H   LIG    1       -0.925   0.861   1.295  0.00  0.00    -0.086 HD
BRANCH   2   5
ATOM      5  C   LIG    1       -2.548   0.480   0.034  0.00  0.00    -0.064 C 
BRANCH   5   6
ATOM      6  C   LIG    1       -3.328   1.584   0.775  0.00  0.00    +0.085 C 
BRANCH   6   9
ATOM      7  O   LIG    1       -4.725   2.662  -1.494  0.00  0.00    -0.270 OA
ATOM      8  C   LIG    1       -3.915   3.357  -0.878  0.00  0.00    +0.246 C 
ATOM      9  N   LIG    1       -3.208   2.914   0.176  0.00  0.00    -0.313 N 
ATOM     10  H   LIG    1       -2.555   3.549   0.613  0.00  0.00    +0.149 HD
BRANCH   8  11
ATOM     11  C   LIG    1       -3.721   4.813  -1.234  0.00  0.00    +0.064 A 
ATOM     12  C   LIG    1       -4.862   5.597  -1.445  0.00  0.00    +0.015 A 
ATOM     13  C   LIG    1       -4.773   6.945  -1.773  0.00  0.00    +0.003 A 
ATOM     14  C   LIG    1       -3.536   7.558  -1.919  0.00  0.00    +0.030 A 
ATOM     15  C   LIG    1       -2.353   6.809  -1.739  0.00  0.00    +0.091 A 
ATOM     16  N   LIG    1       -1.153   7.422  -1.920  0.00  0.00    -0.244 NA
ATOM     17  C   LIG    1       -0.009   6.706  -1.778  0.00  0.00    +0.090 A 
ATOM     18  C   LIG    1        1.240   7.335  -1.984  0.00  0.00    +0.030 A 
ATOM     19  C   LIG    1        2.418   6.609  -1.831  0.00  0.00    +0.002 A 
ATOM     20  C   LIG    1        2.381   5.263  -1.478  0.00  0.00    +0.005 A 
ATOM     21  C   LIG    1        1.165   4.609  -1.275  0.00  0.00    -0.023 A 
ATOM     22  C   LIG    1        1.142   3.136  -0.898  0.00  0.00    +0.046 C 
ATOM     23  C   LIG    1       -0.058   5.327  -1.423  0.00  0.00    +0.093 A 
ATOM     24  N   LIG    1       -1.266   4.723  -1.235  0.00  0.00    -0.243 NA
ATOM     25  C   LIG    1       -2.428   5.426  -1.389  0.00  0.00    +0.102 A 
ENDBRANCH   8  11
ENDBRANCH   6   9
ENDBRANCH   5   6
ENDBRANCH   2   5
ENDBRANCH   1   2
BRANCH   1  26
ATOM     26  C   LIG    1        1.317  -0.308   0.246  0.00  0.00    +0.062 C 
BRANCH  26  27
ATOM     27  N   LIG    1        1.549   0.330   1.538  0.00  0.00    -0.316 NA
ATOM     28  H   LIG    1        1.413  -0.351   2.273  0.00  0.00    +0.122 HD
BRANCH  27  29
ATOM     29  C   LIG    1        2.890   0.888   1.660  0.00  0.00    +0.099 C 
BRANCH  29  30
ATOM     30  C   LIG    1        2.956   1.946   2.784  0.00  0.00    +0.119 C 
BRANCH  30  31
ATOM     31  N   LIG    1        2.006   3.055   2.624  0.00  0.00    -0.310 N 
ATOM     32  H   LIG    1        2.336   3.854   2.101  0.00  0.00    +0.149 HD
ATOM     33  C   LIG    1        0.770   3.118   3.158  0.00  0.00    +0.246 C 
ATOM     34  O   LIG    1        0.325   2.226   3.884  0.00  0.00    -0.270 OA
BRANCH  33  35
ATOM     35  C   LIG    1       -0.106   4.304   2.773  0.00  0.00    +0.064 A 
ATOM     36  C   LIG    1       -1.497   4.154   2.894  0.00  0.00    +0.015 A 
ATOM     37  C   LIG    1       -2.386   5.167   2.558  0.00  0.00    +0.003 A 
ATOM     38  C   LIG    1       -1.925   6.389   2.092  0.00  0.00    +0.030 A 
ATOM     39  C   LIG    1       -0.539   6.612   1.963  0.00  0.00    +0.091 A 
ATOM     40  N   LIG    1       -0.112   7.825   1.524  0.00  0.00    -0.244 NA
ATOM     41  C   LIG    1        1.219   8.060   1.394  0.00  0.00    +0.090 A 
ATOM     42  C   LIG    1        1.670   9.317   0.930  0.00  0.00    +0.030 A 
ATOM     43  C   LIG    1        3.034   9.553   0.781  0.00  0.00    +0.002 A 
ATOM     44  C   LIG    1        3.965   8.563   1.086  0.00  0.00    +0.005 A 
ATOM     45  C   LIG    1        3.555   7.311   1.549  0.00  0.00    -0.023 A 
ATOM     46  C   LIG    1        4.582   6.233   1.869  0.00  0.00    +0.046 C 
ATOM     47  C   LIG    1        2.164   7.044   1.712  0.00  0.00    +0.093 A 
ATOM     48  N   LIG    1        1.723   5.835   2.156  0.00  0.00    -0.243 NA
ATOM     49  C   LIG    1        0.389   5.575   2.295  0.00  0.00    +0.102 A 
ENDBRANCH  33  35
ENDBRANCH  30  31
ENDBRANCH  29  30
ENDBRANCH  27  29
ENDBRANCH  26  27
ENDBRANCH   1  26
TORSDOF 11
