REMARK  Name = DB06819
REMARK                            x       y       z     vdW  Elec       q    Type
REMARK                         _______ _______ _______ _____ _____    ______ ____
ROOT
ATOM      1  C   LIG    1        2.053  -1.390   0.040  0.00  0.00    +0.035 C 
ENDROOT
BRANCH   1   2
ATOM      2  C   LIG    1        3.574  -1.430   0.005  0.00  0.00    -0.047 A 
ATOM      3  C   LIG    1        4.299  -1.438   1.200  0.00  0.00    +0.003 A 
ATOM      4  C   LIG    1        5.691  -1.470   1.168  0.00  0.00    +0.000 A 
ATOM      5  C   LIG    1        6.353  -1.493  -0.058  0.00  0.00    +0.000 A 
ATOM      6  C   LIG    1        5.636  -1.484  -1.253  0.00  0.00    +0.000 A 
ATOM      7  C   LIG    1        4.244  -1.452  -1.222  0.00  0.00    +0.003 A 
ENDBRANCH   1   2
BRANCH   1   8
ATOM      8  C   LIG    1        1.497   0.045   0.061  0.00  0.00    +0.016 C 
BRANCH   8   9
ATOM      9  C   LIG    1       -0.047   0.082   0.100  0.00  0.00    +0.121 C 
BRANCH   9  10
ATOM     10  C   LIG    1       -0.639   1.497   0.118  0.00  0.00    +0.305 C 
ATOM     11  O   LIG    1        0.030   2.529   0.114  0.00  0.00    -0.251 OA
BRANCH  10  12
ATOM     12  O   LIG    1       -2.002   1.457   0.138  0.00  0.00    -0.481 OA
ATOM     13  H   LIG    1       -2.391   2.334   0.151  0.00  0.00    +0.295 HD
ENDBRANCH  10  12
ENDBRANCH   9  10
ENDBRANCH   8   9
ENDBRANCH   1   8
TORSDOF 5
