REMARK  Name = DB06251
REMARK                            x       y       z     vdW  Elec       q    Type
REMARK                         _______ _______ _______ _____ _____    ______ ____
ROOT
ATOM      1  C   LIG    1       -0.385   0.992   1.283  0.00  0.00    +0.076 C 
ATOM      2  C   LIG    1        0.292  -0.120   0.885  0.00  0.00    -0.006 C 
ENDROOT
BRANCH   1   7
ATOM      3  C   LIG    1       -2.573   5.125   2.162  0.00  0.00    +0.012 C 
ATOM      4  C   LIG    1       -2.880   3.708   1.610  0.00  0.00    +0.024 C 
ATOM      5  C   LIG    1       -1.892   3.307   0.491  0.00  0.00    +0.108 C 
ATOM      6  N   LIG    1       -0.538   3.383   1.079  0.00  0.00    -0.298 N 
ATOM      7  C   LIG    1        0.181   2.309   1.515  0.00  0.00    +0.240 C 
ATOM      8  O   LIG    1        1.267   2.431   2.088  0.00  0.00    -0.271 OA
ATOM      9  C   LIG    1       -0.132   4.752   1.452  0.00  0.00    +0.108 C 
ATOM     10  C   LIG    1       -1.085   5.202   2.585  0.00  0.00    +0.024 C 
BRANCH   3  11
ATOM     11  C   LIG    1       -3.516   5.570   3.307  0.00  0.00    +0.127 C 
BRANCH  11  21
ATOM     12  C   LIG    1       -5.693   3.515   4.171  0.00  0.00    +0.086 C 
ATOM     13  C   LIG    1       -5.914   4.690   3.240  0.00  0.00    +0.108 A 
ATOM     14  N   LIG    1       -7.073   4.950   2.688  0.00  0.00    -0.231 NA
ATOM     15  C   LIG    1       -6.850   6.065   1.929  0.00  0.00    +0.107 A 
ATOM     16  C   LIG    1       -7.721   6.797   1.110  0.00  0.00    +0.140 A 
ATOM     17  N   LIG    1       -7.298   7.891   0.426  0.00  0.00    -0.261 NA
ATOM     18  C   LIG    1       -6.002   8.276   0.544  0.00  0.00    +0.113 A 
ATOM     19  C   LIG    1       -5.046   7.624   1.331  0.00  0.00    +0.047 A 
ATOM     20  C   LIG    1       -5.505   6.498   2.027  0.00  0.00    +0.072 A 
ATOM     21  N   LIG    1       -4.919   5.589   2.888  0.00  0.00    -0.327 N 
ENDBRANCH  11  21
ENDBRANCH   3  11
ENDBRANCH   1   7
BRANCH   2  22
ATOM     22  C   LIG    1       -0.444  -1.413   0.769  0.00  0.00    -0.017 A 
ATOM     23  C   LIG    1       -0.217  -2.261  -0.324  0.00  0.00    +0.008 A 
ATOM     24  C   LIG    1       -0.913  -3.461  -0.447  0.00  0.00    +0.001 A 
ATOM     25  C   LIG    1       -1.845  -3.820   0.523  0.00  0.00    +0.000 A 
ATOM     26  C   LIG    1       -2.087  -2.989   1.612  0.00  0.00    +0.001 A 
ATOM     27  C   LIG    1       -1.391  -1.789   1.734  0.00  0.00    +0.008 A 
ENDBRANCH   2  22
BRANCH   2  28
ATOM     28  C   LIG    1        1.744  -0.165   0.535  0.00  0.00    -0.017 A 
ATOM     29  C   LIG    1        2.569  -1.144   1.095  0.00  0.00    +0.010 A 
ATOM     30  C   LIG    1        3.921  -1.200   0.771  0.00  0.00    +0.030 A 
ATOM     31  C   LIG    1        4.494  -0.279  -0.127  0.00  0.00    +0.086 A 
ATOM     32  C   LIG    1        3.655   0.691  -0.684  0.00  0.00    +0.030 A 
ATOM     33  C   LIG    1        2.302   0.752  -0.361  0.00  0.00    +0.010 A 
BRANCH  31  34
ATOM     34  N   LIG    1        5.844  -0.263  -0.522  0.00  0.00    -0.149 NA
ATOM     35  N   LIG    1        6.614  -1.069   0.091  0.00  0.00    -0.149 NA
BRANCH  35  36
ATOM     36  C   LIG    1        7.964  -1.067  -0.305  0.00  0.00    +0.087 A 
ATOM     37  C   LIG    1        8.831  -1.899   0.401  0.00  0.00    +0.033 A 
ATOM     38  C   LIG    1       10.181  -1.972   0.085  0.00  0.00    +0.048 A 
ATOM     39  C   LIG    1       10.711  -1.212  -0.957  0.00  0.00    +0.131 A 
ATOM     40  C   LIG    1        9.879  -0.348  -1.718  0.00  0.00    +0.102 A 
ATOM     41  C   LIG    1        8.512  -0.307  -1.356  0.00  0.00    +0.048 A 
BRANCH  39  42
ATOM     42  O   LIG    1       12.060  -1.366  -1.170  0.00  0.00    -0.506 OA
ATOM     43  H   LIG    1       12.465  -1.989  -0.563  0.00  0.00    +0.292 HD
ENDBRANCH  39  42
BRANCH  40  44
ATOM     44  C   LIG    1       10.379   0.510  -2.876  0.00  0.00    +0.340 C 
ATOM     45  O   LIG    1       11.574   0.435  -3.243  0.00  0.00    -0.245 OA
BRANCH  44  46
ATOM     46  O   LIG    1        9.573   1.283  -3.448  0.00  0.00    -0.477 OA
ATOM     47  H   LIG    1        8.682   1.327  -3.161  0.00  0.00    +0.295 HD
ENDBRANCH  44  46
ENDBRANCH  40  44
ENDBRANCH  35  36
ENDBRANCH  31  34
ENDBRANCH   2  28
TORSDOF 10
