REMARK  Name = DB06620
REMARK                            x       y       z     vdW  Elec       q    Type
REMARK                         _______ _______ _______ _____ _____    ______ ____
ROOT
ATOM      1  C   LIG    1        3.485  -1.526  -0.004  0.00  0.00    +0.194 C 
ATOM      2  O   LIG    1        3.954  -0.822  -1.166  0.00  0.00    -0.483 OA
ATOM      3  C   LIG    1        3.867  -1.541  -2.343  0.00  0.00    +0.168 A 
ATOM      4  C   LIG    1        3.956  -0.849  -3.550  0.00  0.00    +0.028 A 
ATOM      5  C   LIG    1        4.101   0.608  -3.864  0.00  0.00    +0.137 C 
ATOM      6  C   LIG    1        4.125   0.628  -5.394  0.00  0.00    +0.222 C 
ATOM      7  N   LIG    1        4.016  -0.652  -5.798  0.00  0.00    -0.285 N 
ATOM      8  H   LIG    1        4.011  -0.925  -6.770  0.00  0.00    +0.155 HD
ATOM      9  O   LIG    1        4.225   1.629  -6.100  0.00  0.00    -0.275 OA
ATOM     10  C   LIG    1        3.915  -1.547  -4.743  0.00  0.00    +0.041 A 
ATOM     11  C   LIG    1        3.790  -2.937  -4.772  0.00  0.00    +0.027 A 
ATOM     12  C   LIG    1        3.705  -3.638  -3.565  0.00  0.00    +0.051 A 
ATOM     13  C   LIG    1        3.751  -2.944  -2.352  0.00  0.00    +0.162 A 
ATOM     14  O   LIG    1        3.608  -3.669  -1.186  0.00  0.00    -0.485 OA
ATOM     15  C   LIG    1        4.058  -2.968  -0.021  0.00  0.00    +0.271 C 
ENDROOT
BRANCH   1  16
ATOM     16  C   LIG    1        1.941  -1.501   0.097  0.00  0.00    -0.034 C 
BRANCH  16  17
ATOM     17  N   LIG    1        1.436  -0.050   0.034  0.00  0.00    +0.384 N 
ATOM     18  H   LIG    1        1.826   0.467   0.809  0.00  0.00    -0.085 HD
ATOM     19  H   LIG    1        1.775   0.374  -0.819  0.00  0.00    -0.085 HD
BRANCH  17  20
ATOM     20  C   LIG    1       -0.094   0.082   0.072  0.00  0.00    -0.047 C 
BRANCH  20  24
ATOM     21  C   LIG    1       -1.450   4.160  -0.046  0.00  0.00    +0.000 A 
ATOM     22  C   LIG    1       -1.246   3.536   1.183  0.00  0.00    +0.000 A 
ATOM     23  C   LIG    1       -0.803   2.216   1.222  0.00  0.00    +0.002 A 
ATOM     24  C   LIG    1       -0.559   1.528   0.030  0.00  0.00    -0.064 A 
ATOM     25  C   LIG    1       -0.773   2.156  -1.200  0.00  0.00    +0.002 A 
ATOM     26  C   LIG    1       -1.217   3.476  -1.237  0.00  0.00    +0.000 A 
ENDBRANCH  20  24
ENDBRANCH  17  20
ENDBRANCH  16  17
ENDBRANCH   1  16
TORSDOF 4
