REMARK  Name = DB06512
REMARK                            x       y       z     vdW  Elec       q    Type
REMARK                         _______ _______ _______ _____ _____    ______ ____
ROOT
ATOM      1  C   LIG    1       -0.543  -0.753  -1.166  0.00  0.00    +0.007 C 
ATOM      2  C   LIG    1        0.220  -0.422  -2.470  0.00  0.00    +0.015 C 
ATOM      3  C   LIG    1       -2.090  -0.610  -1.349  0.00  0.00    +0.010 C 
ATOM      4  C   LIG    1       -2.653  -1.426  -0.168  0.00  0.00    +0.005 C 
ATOM      5  C   LIG    1       -1.367  -1.981   0.489  0.00  0.00    -0.002 C 
ATOM      6  C   LIG    1       -0.678  -0.816   1.245  0.00  0.00    +0.044 C 
ATOM      7  C   LIG    1       -0.427  -2.249  -0.708  0.00  0.00    -0.024 C 
ATOM      8  C   LIG    1        0.996  -2.759  -0.318  0.00  0.00    +0.012 C 
ATOM      9  C   LIG    1       -0.961  -3.319  -1.718  0.00  0.00    +0.012 C 
ATOM     10  C   LIG    1       -0.121   0.107   0.101  0.00  0.00    +0.100 C 
ENDROOT
BRANCH  10  11
ATOM     11  C   LIG    1       -0.598   1.588   0.046  0.00  0.00    -0.015 A 
ATOM     12  C   LIG    1        0.100   2.495  -0.765  0.00  0.00    +0.006 A 
ATOM     13  C   LIG    1       -0.294   3.827  -0.851  0.00  0.00    +0.000 A 
ATOM     14  C   LIG    1       -1.400   4.264  -0.129  0.00  0.00    +0.000 A 
ATOM     15  C   LIG    1       -2.113   3.380   0.673  0.00  0.00    +0.000 A 
ATOM     16  C   LIG    1       -1.717   2.048   0.759  0.00  0.00    +0.006 A 
ENDBRANCH  10  11
BRANCH  10  17
ATOM     17  O   LIG    1        1.319   0.084   0.181  0.00  0.00    -0.370 OA
BRANCH  17  18
ATOM     18  C   LIG    1        1.964   0.749   1.276  0.00  0.00    +0.142 C 
BRANCH  18  19
ATOM     19  C   LIG    1        3.490   0.578   1.162  0.00  0.00    -0.051 C 
BRANCH  19  20
ATOM     20  N   LIG    1        3.896  -0.910   1.037  0.00  0.00    +0.377 N 
ATOM     21  H   LIG    1        3.311  -1.311   0.316  0.00  0.00    -0.083 HD
ATOM     22  C   LIG    1        5.355  -1.061   0.565  0.00  0.00    -0.097 C 
ATOM     23  C   LIG    1        3.654  -1.712   2.332  0.00  0.00    -0.097 C 
ENDBRANCH  19  20
ENDBRANCH  18  19
ENDBRANCH  17  18
ENDBRANCH  10  17
TORSDOF 5
