REMARK  Name = DB06465
REMARK                            x       y       z     vdW  Elec       q    Type
REMARK                         _______ _______ _______ _____ _____    ______ ____
ROOT
ATOM      1  N   LIG    1       -0.051  -0.236   0.249  0.00  0.00    -0.244 N 
ATOM      2  H   LIG    1       -0.418  -1.176   0.281  0.00  0.00    +0.170 HD
ATOM      3  C   LIG    1       -0.813   0.859   0.039  0.00  0.00    +0.258 C 
ATOM      4  O   LIG    1       -0.350   1.995  -0.097  0.00  0.00    -0.269 OA
ENDROOT
BRANCH   1  11
ATOM      5  C   LIG    1        5.208  -2.930  -1.489  0.00  0.00    +0.109 C 
ATOM      6  C   LIG    1        4.734  -2.414  -0.126  0.00  0.00    +0.213 C 
ATOM      7  O   LIG    1        5.136  -3.010   0.875  0.00  0.00    -0.276 OA
ATOM      8  N   LIG    1        3.955  -1.300  -0.063  0.00  0.00    -0.299 N 
ATOM      9  C   LIG    1        3.535  -0.751   1.239  0.00  0.00    +0.125 C 
ATOM     10  C   LIG    1        1.992  -0.777   1.320  0.00  0.00    +0.124 C 
ATOM     11  N   LIG    1        1.348  -0.173   0.154  0.00  0.00    -0.224 NA
ATOM     12  C   LIG    1        1.832  -0.679  -1.133  0.00  0.00    +0.124 C 
ATOM     13  C   LIG    1        3.373  -0.659  -1.255  0.00  0.00    +0.125 C 
ENDBRANCH   1  11
BRANCH   3  14
ATOM     14  C   LIG    1       -2.310   0.633   0.011  0.00  0.00    +0.038 A 
ATOM     15  C   LIG    1       -2.857  -0.638  -0.234  0.00  0.00    +0.016 A 
ATOM     16  C   LIG    1       -4.237  -0.819  -0.262  0.00  0.00    +0.039 A 
ATOM     17  C   LIG    1       -5.083   0.265  -0.047  0.00  0.00    +0.123 A 
ATOM     18  F   LIG    1       -6.423   0.087  -0.073  0.00  0.00    -0.205 F 
ATOM     19  C   LIG    1       -4.558   1.532   0.194  0.00  0.00    +0.039 A 
ATOM     20  C   LIG    1       -3.178   1.715   0.221  0.00  0.00    +0.016 A 
ENDBRANCH   3  14
TORSDOF 2
