REMARK  Name = DB06800
REMARK                            x       y       z     vdW  Elec       q    Type
REMARK                         _______ _______ _______ _____ _____    ______ ____
ROOT
ATOM      1  C   LIG    1       -2.301   1.411  -0.204  0.00  0.00    +0.069 C 
ATOM      2  C   LIG    1       -2.929   2.830  -0.347  0.00  0.00    +0.042 C 
ATOM      3  C   LIG    1       -4.460   2.863  -0.106  0.00  0.00    +0.081 C 
ATOM      4  C   LIG    1       -4.826   2.345   1.290  0.00  0.00    +0.175 C 
ATOM      5  C   LIG    1       -4.186   0.989   1.699  0.00  0.00    +0.252 C 
ATOM      6  O   LIG    1       -4.044   0.942   3.143  0.00  0.00    -0.476 OA
ATOM      7  C   LIG    1       -2.767   1.379   3.423  0.00  0.00    +0.167 A 
ATOM      8  C   LIG    1       -2.232   1.767   4.649  0.00  0.00    +0.159 A 
ATOM      9  C   LIG    1       -0.928   2.283   4.668  0.00  0.00    +0.049 A 
ATOM     10  C   LIG    1       -0.203   2.437   3.472  0.00  0.00    +0.007 A 
ATOM     11  C   LIG    1       -0.750   2.038   2.243  0.00  0.00    -0.041 A 
ATOM     12  C   LIG    1       -0.126   2.292   0.870  0.00  0.00    +0.023 C 
ATOM     13  C   LIG    1       -2.011   1.447   2.281  0.00  0.00    +0.014 A 
ATOM     14  O   LIG    1       -5.535   2.999   2.053  0.00  0.00    -0.293 OA
ATOM     15  C   LIG    1       -0.711   1.330  -0.236  0.00  0.00    -0.028 C 
ATOM     16  N   LIG    1       -0.158  -0.160  -0.068  0.00  0.00    +0.382 N 
ATOM     17  C   LIG    1       -0.385  -0.941  -1.398  0.00  0.00    -0.091 C 
ATOM     18  C   LIG    1       -0.830  -0.978   1.085  0.00  0.00    -0.074 C 
ATOM     19  C   LIG    1       -2.356  -0.742   1.146  0.00  0.00    +0.000 C 
ATOM     20  C   LIG    1       -2.743   0.769   1.153  0.00  0.00    +0.069 C 
ENDROOT
BRANCH   1  21
ATOM     21  O   LIG    1       -2.930   0.697  -1.258  0.00  0.00    -0.389 OA
ATOM     22  H   LIG    1       -2.710   1.124  -2.089  0.00  0.00    +0.210 HD
ENDBRANCH   1  21
BRANCH   8  23
ATOM     23  O   LIG    1       -2.975   1.671   5.796  0.00  0.00    -0.503 OA
ATOM     24  H   LIG    1       -3.855   1.321   5.641  0.00  0.00    +0.292 HD
ENDBRANCH   8  23
BRANCH  16  25
ATOM     25  C   LIG    1        1.388  -0.127   0.208  0.00  0.00    -0.071 C 
BRANCH  25  26
ATOM     26  C   LIG    1        2.108  -1.497   0.145  0.00  0.00    -0.027 C 
ATOM     27  C   LIG    1        2.748  -1.975  -1.137  0.00  0.00    +0.002 C 
ATOM     28  C   LIG    1        3.611  -1.517   0.022  0.00  0.00    +0.002 C 
ENDBRANCH  25  26
ENDBRANCH  16  25
TORSDOF 4
