REMARK  Name = DB06619
REMARK                            x       y       z     vdW  Elec       q    Type
REMARK                         _______ _______ _______ _____ _____    ______ ____
ROOT
ATOM      1  C   LIG    1       -1.215   1.043  -1.241  0.00  0.00    +0.203 A 
ATOM      2  N   LIG    1       -0.246   0.177  -0.871  0.00  0.00    -0.286 N 
ATOM      3  C   LIG    1       -0.904  -0.880  -0.306  0.00  0.00    +0.169 A 
ATOM      4  N   LIG    1       -0.391  -2.015   0.229  0.00  0.00    -0.195 NA
ATOM      5  C   LIG    1       -1.347  -2.836   0.692  0.00  0.00    +0.216 A 
ATOM      6  N   LIG    1       -2.674  -2.650   0.679  0.00  0.00    -0.198 NA
ATOM      7  C   LIG    1       -3.166  -1.503   0.138  0.00  0.00    +0.149 A 
ATOM      8  C   LIG    1       -2.248  -0.564  -0.384  0.00  0.00    +0.147 A 
ATOM      9  N   LIG    1       -2.428   0.630  -0.967  0.00  0.00    -0.231 NA
ENDROOT
BRANCH   2  10
ATOM     10  C   LIG    1        1.261   0.287  -1.000  0.00  0.00    +0.251 C 
ATOM     11  O   LIG    1        1.835   0.667   0.195  0.00  0.00    -0.323 OA
ATOM     12  C   LIG    1        3.146   1.000  -0.111  0.00  0.00    +0.278 C 
ATOM     13  O   LIG    1        3.079   1.638  -1.347  0.00  0.00    -0.345 OA
ATOM     14  C   LIG    1        1.827   1.334  -1.938  0.00  0.00    +0.217 C 
BRANCH  12  15
ATOM     15  C   LIG    1        3.698   1.943   0.948  0.00  0.00    +0.217 C 
BRANCH  15  16
ATOM     16  O   LIG    1        5.064   2.220   0.716  0.00  0.00    -0.390 OA
ATOM     17  H   LIG    1        5.369   2.844   1.378  0.00  0.00    +0.210 HD
ENDBRANCH  15  16
ENDBRANCH  12  15
ENDBRANCH   2  10
BRANCH   5  18
ATOM     18  N   LIG    1       -0.909  -4.018   1.250  0.00  0.00    -0.327 N 
ATOM     19  H   LIG    1       -1.531  -4.715   1.632  0.00  0.00    +0.145 HD
ATOM     20  H   LIG    1        0.065  -4.272   1.317  0.00  0.00    +0.145 HD
ENDBRANCH   5  18
BRANCH   7  21
ATOM     21  N   LIG    1       -4.545  -1.308   0.124  0.00  0.00    -0.341 N 
ATOM     22  H   LIG    1       -5.147  -2.017   0.516  0.00  0.00    +0.144 HD
ATOM     23  H   LIG    1       -4.922  -0.460  -0.274  0.00  0.00    +0.144 HD
ENDBRANCH   7  21
TORSDOF 5
