REMARK  Name = DB06780
REMARK                            x       y       z     vdW  Elec       q    Type
REMARK                         _______ _______ _______ _____ _____    ______ ____
ROOT
ATOM      1  C   LIG    1       -5.160  -1.958   6.350  0.00  0.00    +0.080 C 
ATOM      2  C   LIG    1       -4.012  -1.413   5.478  0.00  0.00    +0.019 C 
ATOM      3  C   LIG    1       -3.609  -2.314   4.262  0.00  0.00    -0.007 C 
ATOM      4  C   LIG    1       -2.775  -3.519   4.777  0.00  0.00    +0.016 C 
ATOM      5  C   LIG    1       -2.821  -1.441   3.207  0.00  0.00    +0.002 C 
ATOM      6  C   LIG    1       -1.474  -0.859   3.749  0.00  0.00    +0.005 C 
ATOM      7  C   LIG    1       -0.712  -0.012   2.700  0.00  0.00    +0.008 C 
ATOM      8  C   LIG    1       -0.467  -0.810   1.393  0.00  0.00    -0.019 C 
ATOM      9  C   LIG    1        0.486  -2.025   1.653  0.00  0.00    +0.012 C 
ATOM     10  C   LIG    1       -0.014   0.049   0.173  0.00  0.00    +0.065 C 
ATOM     11  C   LIG    1       -0.456  -0.767  -1.072  0.00  0.00    +0.012 C 
ATOM     12  C   LIG    1       -1.624  -1.654  -0.596  0.00  0.00    +0.005 C 
ATOM     13  C   LIG    1       -1.861  -1.223   0.859  0.00  0.00    -0.001 C 
ATOM     14  C   LIG    1       -2.620  -2.165   1.834  0.00  0.00    -0.003 C 
ATOM     15  C   LIG    1       -3.995  -2.578   1.278  0.00  0.00    +0.008 C 
ATOM     16  C   LIG    1       -4.704  -3.548   2.231  0.00  0.00    +0.032 C 
ATOM     17  C   LIG    1       -4.899  -2.882   3.596  0.00  0.00    -0.060 C 
ATOM     18  C   LIG    1       -6.118  -2.844   4.184  0.00  0.00    +0.046 C 
ATOM     19  C   LIG    1       -6.390  -2.285   5.499  0.00  0.00    +0.156 C 
ATOM     20  O   LIG    1       -7.535  -2.186   5.935  0.00  0.00    -0.293 OA
ENDROOT
BRANCH  10  21
ATOM     21  C   LIG    1        1.488   0.415   0.179  0.00  0.00    +0.174 C 
ATOM     22  O   LIG    1        2.333  -0.275  -0.395  0.00  0.00    -0.293 OA
BRANCH  21  23
ATOM     23  C   LIG    1        1.872   1.729   0.883  0.00  0.00    +0.306 C 
BRANCH  23  24
ATOM     24  O   LIG    1        3.257   1.791   1.238  0.00  0.00    -0.457 OA
BRANCH  24  25
ATOM     25  C   LIG    1        3.753   1.127   2.312  0.00  0.00    +0.304 C 
ATOM     26  O   LIG    1        3.109   0.438   3.104  0.00  0.00    -0.251 OA
ATOM     27  C   LIG    1        5.256   1.319   2.468  0.00  0.00    +0.136 C 
ENDBRANCH  24  25
ENDBRANCH  23  24
ENDBRANCH  21  23
ENDBRANCH  10  21
TORSDOF 4
