REMARK  Name = DB06280
REMARK                            x       y       z     vdW  Elec       q    Type
REMARK                         _______ _______ _______ _____ _____    ______ ____
ROOT
ATOM      1  C   LIG    1        1.522   0.066   0.018  0.00  0.00    +0.121 C 
ENDROOT
BRANCH   1   2
ATOM      2  C   LIG    1        2.060   1.547  -0.016  0.00  0.00    -0.024 A 
ATOM      3  C   LIG    1        1.885   2.391   1.100  0.00  0.00    +0.008 A 
ATOM      4  C   LIG    1        2.355   3.700   1.099  0.00  0.00    +0.038 A 
ATOM      5  C   LIG    1        3.012   4.196  -0.022  0.00  0.00    +0.123 A 
ATOM      6  F   LIG    1        3.469   5.468  -0.027  0.00  0.00    -0.205 F 
ATOM      7  C   LIG    1        3.201   3.388  -1.138  0.00  0.00    +0.038 A 
ATOM      8  C   LIG    1        2.731   2.078  -1.135  0.00  0.00    +0.008 A 
ENDBRANCH   1   2
BRANCH   1   9
ATOM      9  C   LIG    1        2.042  -0.743  -1.230  0.00  0.00    -0.024 A 
ATOM     10  C   LIG    1        1.356  -0.634  -2.455  0.00  0.00    +0.008 A 
ATOM     11  C   LIG    1        1.777  -1.325  -3.587  0.00  0.00    +0.038 A 
ATOM     12  C   LIG    1        2.902  -2.139  -3.519  0.00  0.00    +0.123 A 
ATOM     13  F   LIG    1        3.314  -2.811  -4.617  0.00  0.00    -0.205 F 
ATOM     14  C   LIG    1        3.608  -2.260  -2.328  0.00  0.00    +0.038 A 
ATOM     15  C   LIG    1        3.185  -1.568  -1.196  0.00  0.00    +0.008 A 
ENDBRANCH   1   9
BRANCH   1  19
ATOM     16  C   LIG    1       -2.862  -0.141  -0.045  0.00  0.00    +0.000 A 
ATOM     17  C   LIG    1       -2.105  -1.306  -0.069  0.00  0.00    +0.000 A 
ATOM     18  C   LIG    1       -0.716  -1.224  -0.045  0.00  0.00    +0.005 A 
ATOM     19  C   LIG    1       -0.053   0.017   0.018  0.00  0.00    -0.024 A 
ATOM     20  C   LIG    1       -0.849   1.179   0.014  0.00  0.00    +0.005 A 
ATOM     21  C   LIG    1       -2.238   1.101  -0.010  0.00  0.00    +0.000 A 
ENDBRANCH   1  19
BRANCH   1  22
ATOM     22  C   LIG    1        2.033  -0.627   1.352  0.00  0.00    +0.230 C 
ATOM     23  N   LIG    1        3.222  -0.271   1.859  0.00  0.00    -0.328 N 
ATOM     24  H   LIG    1        3.576  -0.729   2.686  0.00  0.00    +0.145 HD
ATOM     25  H   LIG    1        3.765   0.460   1.422  0.00  0.00    +0.145 HD
ATOM     26  O   LIG    1        1.415  -1.545   1.891  0.00  0.00    -0.274 OA
ENDBRANCH   1  22
TORSDOF 4
