REMARK  Name = DB06580
REMARK                            x       y       z     vdW  Elec       q    Type
REMARK                         _______ _______ _______ _____ _____    ______ ____
ROOT
ATOM      1  C   LIG    1        1.593   0.192  -0.218  0.00  0.00    +0.191 C 
ATOM      2  C   LIG    1        2.090  -0.632  -1.437  0.00  0.00    +0.180 C 
ATOM      3  C   LIG    1        3.609  -0.944  -1.359  0.00  0.00    +0.135 C 
ATOM      4  C   LIG    1        4.005  -1.550   0.011  0.00  0.00    -0.008 C 
ATOM      5  C   LIG    1        5.495  -1.781   0.331  0.00  0.00    +0.102 C 
ATOM      6  C   LIG    1        5.486  -1.903   1.865  0.00  0.00    +0.011 C 
ATOM      7  C   LIG    1        4.233  -1.176   2.384  0.00  0.00    -0.076 C 
ATOM      8  N   LIG    1        3.580  -0.579   1.126  0.00  0.00    +0.387 N 
ATOM      9  H   LIG    1        4.027   0.310   0.948  0.00  0.00    -0.081 HD
ATOM     10  C   LIG    1        2.053  -0.379   1.147  0.00  0.00    -0.030 C 
ENDROOT
BRANCH   2  11
ATOM     11  O   LIG    1        1.783   0.042  -2.645  0.00  0.00    -0.386 OA
ATOM     12  H   LIG    1        0.842   0.229  -2.662  0.00  0.00    +0.210 HD
ENDBRANCH   2  11
BRANCH   3  13
ATOM     13  O   LIG    1        4.021  -1.836  -2.379  0.00  0.00    -0.391 OA
ATOM     14  H   LIG    1        3.473  -2.623  -2.342  0.00  0.00    +0.210 HD
ENDBRANCH   3  13
BRANCH   5  15
ATOM     15  O   LIG    1        6.286  -0.673  -0.069  0.00  0.00    -0.393 OA
ATOM     16  H   LIG    1        6.400  -0.706  -1.023  0.00  0.00    +0.210 HD
ENDBRANCH   5  15
BRANCH   1  17
ATOM     17  O   LIG    1        0.165   0.260  -0.241  0.00  0.00    -0.461 OA
BRANCH  17  18
ATOM     18  C   LIG    1       -0.504   1.364   0.168  0.00  0.00    +0.307 C 
ATOM     19  O   LIG    1       -0.001   2.404   0.596  0.00  0.00    -0.251 OA
BRANCH  18  20
ATOM     20  C   LIG    1       -2.021   1.201   0.067  0.00  0.00    +0.120 C 
BRANCH  20  22
ATOM     21  C   LIG    1       -4.155   0.440   1.250  0.00  0.00    +0.004 C 
ATOM     22  C   LIG    1       -2.630   0.581   1.339  0.00  0.00    +0.008 C 
ENDBRANCH  20  22
ENDBRANCH  18  20
ENDBRANCH  17  18
ENDBRANCH   1  17
TORSDOF 7
