REMARK  Name = DB06281
REMARK                            x       y       z     vdW  Elec       q    Type
REMARK                         _______ _______ _______ _____ _____    ______ ____
ROOT
ATOM      1  C   LIG    1        2.456  -3.224  -1.368  0.00  0.00    +0.055 A 
ATOM      2  C   LIG    1        3.001  -3.891  -0.274  0.00  0.00    +0.014 A 
ATOM      3  C   LIG    1        2.845  -3.378   1.010  0.00  0.00    +0.024 A 
ATOM      4  C   LIG    1        2.118  -2.194   1.257  0.00  0.00    +0.045 A 
ATOM      5  C   LIG    1        1.599  -1.502   0.138  0.00  0.00    -0.005 A 
ATOM      6  C   LIG    1        0.872  -0.172   0.311  0.00  0.00    +0.113 C 
ATOM      7  C   LIG    1        1.485   0.543   1.531  0.00  0.00    +0.050 C 
ATOM      8  C   LIG    1        1.445  -0.278   2.848  0.00  0.00    +0.087 C 
ATOM      9  N   LIG    1        1.964  -1.668   2.588  0.00  0.00    -0.234 N 
ATOM     10  C   LIG    1        2.147  -2.464   3.751  0.00  0.00    +0.407 C 
ATOM     11  O   LIG    1        2.006  -3.689   3.811  0.00  0.00    -0.226 OA
ATOM     12  C   LIG    1        1.765  -2.033  -1.147  0.00  0.00    +0.019 A 
ENDROOT
BRANCH   1  14
ATOM     13  F   LIG    1        2.667  -5.121  -2.766  0.00  0.00    -0.166 F 
ATOM     14  C   LIG    1        2.606  -3.788  -2.780  0.00  0.00    +0.417 C 
ATOM     15  F   LIG    1        1.582  -3.433  -3.559  0.00  0.00    -0.166 F 
ATOM     16  F   LIG    1        3.731  -3.318  -3.318  0.00  0.00    -0.166 F 
ENDBRANCH   1  14
BRANCH   6  17
ATOM     17  N   LIG    1       -0.612  -0.133   0.225  0.00  0.00    -0.256 N 
ATOM     18  C   LIG    1       -1.442  -1.246   0.493  0.00  0.00    +0.403 C 
ATOM     19  O   LIG    1       -1.057  -2.367   0.834  0.00  0.00    -0.226 OA
BRANCH  18  20
ATOM     20  O   LIG    1       -2.759  -0.941   0.339  0.00  0.00    -0.454 OA
ATOM     21  C   LIG    1       -3.769  -1.914   0.563  0.00  0.00    +0.282 C 
ENDBRANCH  18  20
BRANCH  17  22
ATOM     22  C   LIG    1       -1.179   1.186  -0.133  0.00  0.00    +0.146 C 
BRANCH  22  23
ATOM     23  C   LIG    1       -1.694   1.308  -1.566  0.00  0.00    -0.029 A 
ATOM     24  C   LIG    1       -1.016   0.712  -2.635  0.00  0.00    +0.017 A 
ATOM     25  C   LIG    1       -1.509   0.809  -3.941  0.00  0.00    +0.056 A 
ATOM     26  C   LIG    1       -2.693   1.518  -4.170  0.00  0.00    +0.024 A 
ATOM     27  C   LIG    1       -3.383   2.125  -3.112  0.00  0.00    +0.056 A 
ATOM     28  C   LIG    1       -2.874   2.013  -1.814  0.00  0.00    +0.017 A 
BRANCH  25  29
ATOM     29  C   LIG    1       -0.781   0.155  -5.114  0.00  0.00    +0.417 C 
ATOM     30  F   LIG    1       -0.455   1.083  -6.013  0.00  0.00    -0.166 F 
ATOM     31  F   LIG    1        0.337  -0.469  -4.737  0.00  0.00    -0.166 F 
ATOM     32  F   LIG    1       -1.581  -0.742  -5.692  0.00  0.00    -0.166 F 
ENDBRANCH  25  29
BRANCH  27  33
ATOM     33  C   LIG    1       -4.677   2.902  -3.349  0.00  0.00    +0.417 C 
ATOM     34  F   LIG    1       -5.646   2.417  -2.570  0.00  0.00    -0.166 F 
ATOM     35  F   LIG    1       -4.485   4.185  -3.046  0.00  0.00    -0.166 F 
ATOM     36  F   LIG    1       -5.091   2.831  -4.616  0.00  0.00    -0.166 F 
ENDBRANCH  27  33
ENDBRANCH  22  23
ENDBRANCH  17  22
ENDBRANCH   6  17
BRANCH   8  37
ATOM     37  C   LIG    1        0.069  -0.205   3.581  0.00  0.00    +0.020 C 
ATOM     38  C   LIG    1       -0.481   1.210   3.826  0.00  0.00    +0.006 C 
ENDBRANCH   8  37
BRANCH  10  39
ATOM     39  O   LIG    1        2.526  -1.721   4.829  0.00  0.00    -0.450 OA
BRANCH  39  40
ATOM     40  C   LIG    1        2.757  -2.324   6.096  0.00  0.00    +0.230 C 
ATOM     41  C   LIG    1        3.092  -1.235   7.119  0.00  0.00    +0.048 C 
ENDBRANCH  39  40
ENDBRANCH  10  39
TORSDOF 10
