REMARK  Name = DB06155
REMARK                            x       y       z     vdW  Elec       q    Type
REMARK                         _______ _______ _______ _____ _____    ______ ____
ROOT
ATOM      1  N   LIG    1        3.613  -0.814  -0.011  0.00  0.00    -0.230 N 
ATOM      2  C   LIG    1        3.688   0.562  -0.016  0.00  0.00    +0.078 A 
ATOM      3  C   LIG    1        2.364   1.008   0.028  0.00  0.00    +0.008 A 
ATOM      4  C   LIG    1        1.905   2.455  -0.025  0.00  0.00    +0.048 C 
ATOM      5  C   LIG    1        1.577  -0.175   0.016  0.00  0.00    +0.152 A 
ATOM      6  N   LIG    1        2.350  -1.245   0.026  0.00  0.00    -0.161 NA
ENDROOT
BRANCH   1  14
ATOM      7 CL   LIG    1        3.755  -2.876  -2.305  0.00  0.00    -0.081 Cl
ATOM      8  C   LIG    1        4.818  -2.752  -0.943  0.00  0.00    +0.068 A 
ATOM      9  C   LIG    1        5.877  -3.659  -0.846  0.00  0.00    +0.042 A 
ATOM     10  C   LIG    1        6.782  -3.579   0.212  0.00  0.00    +0.042 A 
ATOM     11  C   LIG    1        6.633  -2.589   1.183  0.00  0.00    +0.022 A 
ATOM     12  C   LIG    1        5.579  -1.681   1.098  0.00  0.00    +0.031 A 
ATOM     13 CL   LIG    1        8.088  -4.701   0.318  0.00  0.00    -0.083 Cl
ATOM     14  C   LIG    1        4.664  -1.756   0.040  0.00  0.00    +0.084 A 
ENDBRANCH   1  14
BRANCH   2  15
ATOM     15  C   LIG    1        4.964   1.340  -0.058  0.00  0.00    +0.001 A 
ATOM     16  C   LIG    1        5.162   2.392   0.842  0.00  0.00    +0.011 A 
ATOM     17  C   LIG    1        6.348   3.121   0.813  0.00  0.00    +0.020 A 
ATOM     18  C   LIG    1        7.334   2.800  -0.118  0.00  0.00    +0.041 A 
ATOM     19  C   LIG    1        7.142   1.757  -1.022  0.00  0.00    +0.020 A 
ATOM     20 CL   LIG    1        8.805   3.703  -0.152  0.00  0.00    -0.084 Cl
ATOM     21  C   LIG    1        5.956   1.029  -0.993  0.00  0.00    +0.011 A 
ENDBRANCH   2  15
BRANCH   5  22
ATOM     22  C   LIG    1        0.123  -0.230   0.053  0.00  0.00    +0.278 C 
ATOM     23  N   LIG    1       -0.404  -1.447  -0.210  0.00  0.00    -0.243 N 
ATOM     24  H   LIG    1        0.146  -2.290  -0.287  0.00  0.00    +0.170 HD
ATOM     25  O   LIG    1       -0.554   0.775   0.285  0.00  0.00    -0.267 OA
BRANCH  23  26
ATOM     26  N   LIG    1       -1.786  -1.672  -0.116  0.00  0.00    -0.227 NA
ATOM     27  C   LIG    1       -2.271  -2.381  -1.305  0.00  0.00    +0.105 C 
ATOM     28  C   LIG    1       -3.804  -2.552  -1.256  0.00  0.00    +0.017 C 
ATOM     29  C   LIG    1       -4.262  -3.246   0.037  0.00  0.00    +0.003 C 
ATOM     30  C   LIG    1       -3.648  -2.553   1.265  0.00  0.00    +0.017 C 
ATOM     31  C   LIG    1       -2.120  -2.382   1.126  0.00  0.00    +0.105 C 
ENDBRANCH  23  26
ENDBRANCH   5  22
TORSDOF 4
