REMARK  Name = DB06441
REMARK                            x       y       z     vdW  Elec       q    Type
REMARK                         _______ _______ _______ _____ _____    ______ ____
ROOT
ATOM      1  C   LIG    1       -0.673   1.426  -1.281  0.00  0.00    +0.253 C 
ATOM      2  C   LIG    1       -0.115   0.299  -2.155  0.00  0.00    +0.195 C 
ATOM      3  C   LIG    1       -0.164  -0.857  -1.153  0.00  0.00    +0.178 C 
ATOM      4  C   LIG    1        0.186  -0.196   0.185  0.00  0.00    +0.178 C 
ATOM      5  O   LIG    1       -0.169   1.168  -0.003  0.00  0.00    -0.346 OA
ENDROOT
BRANCH   1   9
ATOM      6  C   LIG    1       -1.266   3.877  -4.982  0.00  0.00    +0.192 A 
ATOM      7  N   LIG    1       -1.204   2.970  -3.970  0.00  0.00    -0.202 NA
ATOM      8  C   LIG    1       -0.574   3.421  -2.877  0.00  0.00    +0.169 A 
ATOM      9  N   LIG    1       -0.313   2.781  -1.675  0.00  0.00    -0.285 N 
ATOM     10  C   LIG    1        0.327   3.742  -0.909  0.00  0.00    +0.203 A 
ATOM     11  N   LIG    1        0.526   4.893  -1.500  0.00  0.00    -0.231 NA
ATOM     12  C   LIG    1       -0.030   4.723  -2.737  0.00  0.00    +0.148 A 
ATOM     13  C   LIG    1       -0.155   5.585  -3.842  0.00  0.00    +0.151 A 
ATOM     14  N   LIG    1       -0.779   5.146  -4.970  0.00  0.00    -0.205 NA
BRANCH  13  15
ATOM     15  N   LIG    1        0.358   6.892  -3.787  0.00  0.00    -0.326 N 
ATOM     16  H   LIG    1        0.864   7.188  -2.965  0.00  0.00    +0.148 HD
BRANCH  15  17
ATOM     17  C   LIG    1        0.323   7.773  -4.948  0.00  0.00    +0.113 C 
BRANCH  17  18
ATOM     18  C   LIG    1        0.887   9.168  -4.655  0.00  0.00    +0.087 C 
BRANCH  18  19
ATOM     19  S   LIG    1        0.853  10.283  -6.085  0.00  0.00    -0.163 S 
ATOM     20  C   LIG    1        1.498  11.791  -5.314  0.00  0.00    +0.084 C 
ENDBRANCH  18  19
ENDBRANCH  17  18
ENDBRANCH  15  17
ENDBRANCH  13  15
BRANCH   6  21
ATOM     21  S   LIG    1       -2.059   3.324  -6.463  0.00  0.00    -0.086 S 
BRANCH  21  22
ATOM     22  C   LIG    1       -1.979   4.673  -7.682  0.00  0.00    +0.086 C 
BRANCH  22  23
ATOM     23  C   LIG    1       -0.590   4.888  -8.315  0.00  0.00    +0.124 C 
BRANCH  23  24
ATOM     24  C   LIG    1       -0.479   6.172  -9.155  0.00  0.00    +0.391 C 
ATOM     25  F   LIG    1       -0.689   7.261  -8.415  0.00  0.00    -0.171 F 
ATOM     26  F   LIG    1       -1.366   6.184 -10.150  0.00  0.00    -0.171 F 
ATOM     27  F   LIG    1        0.734   6.282  -9.695  0.00  0.00    -0.171 F 
ENDBRANCH  23  24
ENDBRANCH  22  23
ENDBRANCH  21  22
ENDBRANCH   6  21
ENDBRANCH   1   9
BRANCH   2  28
ATOM     28  O   LIG    1       -0.859   0.097  -3.343  0.00  0.00    -0.385 OA
ATOM     29  H   LIG    1       -1.743  -0.192  -3.105  0.00  0.00    +0.210 HD
ENDBRANCH   2  28
BRANCH   3  30
ATOM     30  O   LIG    1       -1.422  -1.513  -1.091  0.00  0.00    -0.386 OA
ATOM     31  H   LIG    1       -2.083  -0.879  -0.802  0.00  0.00    +0.210 HD
ENDBRANCH   3  30
BRANCH   4  32
ATOM     32  C   LIG    1        1.682  -0.232   0.554  0.00  0.00    +0.206 C 
BRANCH  32  33
ATOM     33  O   LIG    1        1.958   0.549   1.707  0.00  0.00    -0.284 OA
BRANCH  33  34
ATOM     34  P   LIG    1        1.593   0.017   3.205  0.00  0.00    +0.482 P 
ATOM     35  O   LIG    1        1.228  -1.422   3.324  0.00  0.00    -0.227 OA
BRANCH  34  36
ATOM     36  O   LIG    1        2.891   0.463   4.072  0.00  0.00    -0.302 OA
ATOM     37  H   LIG    1        3.159   1.398   3.988  0.00  0.00    +0.222 HD
ENDBRANCH  34  36
BRANCH  34  38
ATOM     38  O   LIG    1        0.457   1.056   3.716  0.00  0.00    -0.206 OA
BRANCH  38  39
ATOM     39  P   LIG    1       -1.227   1.357   3.668  0.00  0.00    +0.386 P 
ATOM     40  O   LIG    1       -1.764   1.747   2.309  0.00  0.00    -0.254 OA
BRANCH  39  41
ATOM     41  C   LIG    1       -1.403   2.637   5.015  0.00  0.00    +0.318 C 
ATOM     42 CL   LIG    1       -3.140   3.012   5.140  0.00  0.00    -0.075 Cl
ATOM     43 CL   LIG    1       -0.569   4.098   4.424  0.00  0.00    -0.075 Cl
BRANCH  41  44
ATOM     44  P   LIG    1       -0.792   2.322   6.755  0.00  0.00    +0.375 P 
ATOM     45  O   LIG    1       -1.454   1.171   7.478  0.00  0.00    -0.255 OA
BRANCH  44  46
ATOM     46  O   LIG    1       -1.030   3.839   7.521  0.00  0.00    -0.322 OA
ATOM     47  H   LIG    1       -1.116   3.950   8.487  0.00  0.00    +0.220 HD
ENDBRANCH  44  46
BRANCH  44  48
ATOM     48  O   LIG    1        0.892   2.106   6.510  0.00  0.00    -0.322 OA
ATOM     49  H   LIG    1        1.274   1.423   5.926  0.00  0.00    +0.220 HD
ENDBRANCH  44  48
ENDBRANCH  41  44
ENDBRANCH  39  41
BRANCH  39  50
ATOM     50  O   LIG    1       -2.017   0.004   4.362  0.00  0.00    -0.321 OA
ATOM     51  H   LIG    1       -2.374  -0.742   3.843  0.00  0.00    +0.220 HD
ENDBRANCH  39  50
ENDBRANCH  38  39
ENDBRANCH  34  38
ENDBRANCH  33  34
ENDBRANCH  32  33
ENDBRANCH   4  32
TORSDOF 22
