REMARK  Name = DB06288
REMARK                            x       y       z     vdW  Elec       q    Type
REMARK                         _______ _______ _______ _____ _____    ______ ____
ROOT
ATOM      1  C   LIG    1        3.853  -1.364  -0.214  0.00  0.00    +0.110 A 
ATOM      2  C   LIG    1        4.534  -0.138  -0.178  0.00  0.00    +0.053 A 
ATOM      3  C   LIG    1        3.814   1.056  -0.243  0.00  0.00    +0.071 A 
ATOM      4  C   LIG    1        2.412   1.065  -0.339  0.00  0.00    +0.134 A 
ATOM      5  C   LIG    1        1.725  -0.166  -0.365  0.00  0.00    +0.080 A 
ATOM      6  C   LIG    1        2.459  -1.360  -0.300  0.00  0.00    +0.045 A 
ENDROOT
BRANCH   5   7
ATOM      7  C   LIG    1        0.216  -0.226  -0.486  0.00  0.00    +0.248 C 
ATOM      8  N   LIG    1       -0.384  -1.240   0.168  0.00  0.00    -0.310 N 
ATOM      9  H   LIG    1        0.185  -1.855   0.731  0.00  0.00    +0.149 HD
ATOM     10  O   LIG    1       -0.406   0.605  -1.150  0.00  0.00    -0.270 OA
BRANCH   8  11
ATOM     11  C   LIG    1       -1.814  -1.548   0.118  0.00  0.00    +0.123 C 
BRANCH  11  12
ATOM     12  C   LIG    1       -2.277  -2.219  -1.201  0.00  0.00    +0.074 C 
ATOM     13  C   LIG    1       -1.330  -3.321  -1.719  0.00  0.00    +0.022 C 
ATOM     14  C   LIG    1       -2.230  -4.232  -2.553  0.00  0.00    +0.017 C 
ATOM     15  C   LIG    1       -3.599  -3.560  -2.481  0.00  0.00    +0.085 C 
ATOM     16  N   LIG    1       -3.612  -2.821  -1.223  0.00  0.00    -0.298 NA
BRANCH  16  17
ATOM     17  C   LIG    1       -4.729  -1.873  -1.167  0.00  0.00    +0.081 C 
ATOM     18  C   LIG    1       -5.205  -1.647   0.277  0.00  0.00    +0.020 C 
ENDBRANCH  16  17
ENDBRANCH  11  12
ENDBRANCH   8  11
ENDBRANCH   5   7
BRANCH   1  19
ATOM     19  S   LIG    1        4.674  -2.973  -0.132  0.00  0.00    -0.002 S 
ATOM     20  O   LIG    1        6.065  -2.822  -0.575  0.00  0.00    -0.169 OA
ATOM     21  O   LIG    1        3.801  -3.937  -0.811  0.00  0.00    -0.169 OA
BRANCH  19  22
ATOM     22  C   LIG    1        4.665  -3.390   1.717  0.00  0.00    +0.168 C 
ATOM     23  C   LIG    1        5.525  -2.401   2.515  0.00  0.00    +0.028 C 
ENDBRANCH  19  22
ENDBRANCH   1  19
BRANCH   2  24
ATOM     24  N   LIG    1        5.922  -0.052  -0.070  0.00  0.00    -0.356 N 
ATOM     25  H   LIG    1        6.469  -0.901  -0.104  0.00  0.00    +0.142 HD
ATOM     26  H   LIG    1        6.367   0.854  -0.105  0.00  0.00    +0.142 HD
ENDBRANCH   2  24
BRANCH   4  27
ATOM     27  O   LIG    1        1.676   2.239  -0.390  0.00  0.00    -0.494 OA
ATOM     28  C   LIG    1        2.338   3.499  -0.385  0.00  0.00    +0.277 C 
ENDBRANCH   4  27
TORSDOF 8
