REMARK  Name = DB06302
REMARK                            x       y       z     vdW  Elec       q    Type
REMARK                         _______ _______ _______ _____ _____    ______ ____
ROOT
ATOM      1  O   LIG    1        9.152   2.965  -0.738  0.00  0.00    -0.452 OA
ENDROOT
BRANCH   1   5
ATOM      2  C   LIG    1        5.236   0.557  -0.160  0.00  0.00    +0.040 A 
ATOM      3  S   LIG    1        6.217   1.851  -0.849  0.00  0.00    -0.081 S 
ATOM      4  C   LIG    1        7.635   1.317   0.040  0.00  0.00    +0.080 A 
ATOM      5  C   LIG    1        8.932   1.857   0.055  0.00  0.00    +0.146 A 
ATOM      6  C   LIG    1        9.879   1.221   0.868  0.00  0.00    +0.067 A 
ATOM      7  C   LIG    1        9.498   0.105   1.609  0.00  0.00    +0.115 A 
ATOM      8  N   LIG    1        8.247  -0.424   1.603  0.00  0.00    -0.254 NA
ATOM      9  C   LIG    1        7.332   0.174   0.831  0.00  0.00    +0.082 A 
ATOM     10  C   LIG    1        5.979  -0.238   0.704  0.00  0.00    +0.046 A 
BRANCH   2  14
ATOM     11  C   LIG    1        1.093   0.031  -1.065  0.00  0.00    -0.046 A 
ATOM     12  C   LIG    1        1.813  -0.789  -0.192  0.00  0.00    +0.113 A 
ATOM     13  N   LIG    1        3.129  -0.601   0.079  0.00  0.00    -0.254 NA
ATOM     14  C   LIG    1        3.785   0.427  -0.528  0.00  0.00    +0.078 A 
ATOM     15  C   LIG    1        3.127   1.284  -1.425  0.00  0.00    +0.029 A 
ATOM     16  C   LIG    1        1.773   1.078  -1.694  0.00  0.00    +0.005 A 
BRANCH  11  17
ATOM     17  C   LIG    1       -0.378  -0.227  -1.347  0.00  0.00    -0.045 C 
BRANCH  17  18
ATOM     18  N   LIG    1       -1.340   0.685  -0.567  0.00  0.00    +0.383 N 
ATOM     19  H   LIG    1       -1.115   1.648  -0.775  0.00  0.00    -0.085 HD
ATOM     20  H   LIG    1       -2.280   0.513  -0.896  0.00  0.00    -0.085 HD
BRANCH  18  21
ATOM     21  C   LIG    1       -1.317   0.493   0.960  0.00  0.00    -0.054 C 
BRANCH  21  22
ATOM     22  C   LIG    1       -2.349   1.415   1.631  0.00  0.00    +0.140 C 
BRANCH  22  24
ATOM     23  C   LIG    1       -3.047   3.679   1.839  0.00  0.00    +0.193 C 
ATOM     24  O   LIG    1       -2.135   2.768   1.244  0.00  0.00    -0.385 OA
ENDBRANCH  22  24
ENDBRANCH  21  22
ENDBRANCH  18  21
ENDBRANCH  17  18
ENDBRANCH  11  17
ENDBRANCH   2  14
ENDBRANCH   1   5
BRANCH   1  25
ATOM     25  C   LIG    1       10.354   3.628  -0.688  0.00  0.00    +0.164 A 
ATOM     26  C   LIG    1       10.507   4.742   0.145  0.00  0.00    +0.167 A 
ATOM     27  F   LIG    1        9.476   5.164   0.913  0.00  0.00    -0.202 F 
ATOM     28  C   LIG    1       11.723   5.424   0.185  0.00  0.00    +0.065 A 
ATOM     29  C   LIG    1       12.795   4.991  -0.599  0.00  0.00    +0.036 A 
ATOM     30  C   LIG    1       12.638   3.887  -1.447  0.00  0.00    +0.027 A 
ATOM     31  C   LIG    1       11.421   3.207  -1.487  0.00  0.00    +0.051 A 
BRANCH  29  32
ATOM     32  N   LIG    1       13.992   5.727  -0.567  0.00  0.00    -0.297 N 
ATOM     33  H   LIG    1       13.838   6.724  -0.601  0.00  0.00    +0.154 HD
BRANCH  32  34
ATOM     34  C   LIG    1       15.283   5.374  -0.267  0.00  0.00    +0.141 C 
ATOM     35  S   LIG    1       15.570   3.831   0.395  0.00  0.00    -0.018 S 
BRANCH  34  36
ATOM     36  N   LIG    1       16.189   6.302  -0.474  0.00  0.00    -0.267 N 
ATOM     37  H   LIG    1       15.847   7.220  -0.569  0.00  0.00    +0.157 HD
ATOM     38  C   LIG    1       17.509   6.166  -0.571  0.00  0.00    +0.223 C 
ATOM     39  O   LIG    1       18.109   5.190  -1.033  0.00  0.00    -0.275 OA
BRANCH  38  40
ATOM     40  C   LIG    1       18.415   7.356  -0.172  0.00  0.00    +0.131 C 
BRANCH  40  41
ATOM     41  C   LIG    1       17.708   8.598   0.380  0.00  0.00    -0.038 A 
ATOM     42  C   LIG    1       17.366   8.662   1.734  0.00  0.00    +0.007 A 
ATOM     43  C   LIG    1       16.712   9.785   2.233  0.00  0.00    +0.038 A 
ATOM     44  C   LIG    1       16.400  10.841   1.378  0.00  0.00    +0.123 A 
ATOM     45  F   LIG    1       15.764  11.931   1.863  0.00  0.00    -0.205 F 
ATOM     46  C   LIG    1       16.735  10.781   0.027  0.00  0.00    +0.038 A 
ATOM     47  C   LIG    1       17.390   9.658  -0.473  0.00  0.00    +0.007 A 
ENDBRANCH  40  41
ENDBRANCH  38  40
ENDBRANCH  34  36
ENDBRANCH  32  34
ENDBRANCH  29  32
ENDBRANCH   1  25
TORSDOF 13
