REMARK  Name = DB06234
REMARK                            x       y       z     vdW  Elec       q    Type
REMARK                         _______ _______ _______ _____ _____    ______ ____
ROOT
ATOM      1  C   LIG    1       -0.655   1.243  -0.142  0.00  0.00    +0.199 A 
ATOM      2  N   LIG    1        0.190   0.142  -0.129  0.00  0.00    -0.283 N 
ATOM      3  C   LIG    1       -0.637  -0.957   0.060  0.00  0.00    +0.074 A 
ATOM      4  C   LIG    1       -0.407  -2.334   0.153  0.00  0.00    +0.049 A 
ATOM      5  C   LIG    1       -1.518  -3.158   0.357  0.00  0.00    +0.061 A 
ATOM      6 CL   LIG    1       -1.244  -4.863   0.473  0.00  0.00    -0.082 Cl
ATOM      7  C   LIG    1       -2.813  -2.632   0.468  0.00  0.00    +0.061 A 
ATOM      8 CL   LIG    1       -4.176  -3.666   0.722  0.00  0.00    -0.082 Cl
ATOM      9  C   LIG    1       -3.038  -1.257   0.376  0.00  0.00    +0.051 A 
ATOM     10  C   LIG    1       -1.940  -0.413   0.168  0.00  0.00    +0.092 A 
ATOM     11  N   LIG    1       -1.918   0.945   0.039  0.00  0.00    -0.214 NA
ENDROOT
BRANCH   2  12
ATOM     12  C1* LIG    1        1.633   0.108  -0.319  0.00  0.00    +0.254 C 
ATOM     13  O4* LIG    1        2.237  -0.676   0.663  0.00  0.00    -0.346 OA
ATOM     14  C4* LIG    1        3.490  -1.192   0.207  0.00  0.00    +0.177 C 
ATOM     15  C3* LIG    1        3.556  -0.765  -1.273  0.00  0.00    +0.178 C 
ATOM     16  C2* LIG    1        2.096  -0.490  -1.640  0.00  0.00    +0.195 C 
BRANCH  15  17
ATOM     17  O3* LIG    1        4.414   0.351  -1.460  0.00  0.00    -0.386 OA
ATOM     18  H3* LIG    1        5.266   0.150  -1.065  0.00  0.00    +0.210 HD
ENDBRANCH  15  17
BRANCH  16  19
ATOM     19  O2* LIG    1        1.861   0.400  -2.717  0.00  0.00    -0.385 OA
ATOM     20  H2* LIG    1        2.415   1.175  -2.596  0.00  0.00    +0.210 HD
ENDBRANCH  16  19
BRANCH  14  21
ATOM     21  C5* LIG    1        3.477  -2.715   0.441  0.00  0.00    +0.190 C 
BRANCH  21  22
ATOM     22  O5* LIG    1        4.778  -3.248   0.301  0.00  0.00    -0.392 OA
ATOM     23  H5* LIG    1        4.743  -4.191   0.481  0.00  0.00    +0.210 HD
ENDBRANCH  21  22
ENDBRANCH  14  21
ENDBRANCH   2  12
BRANCH   1  24
ATOM     24  N   LIG    1       -0.177   2.518  -0.340  0.00  0.00    -0.312 N 
ATOM     25  H   LIG    1        0.818   2.682  -0.303  0.00  0.00    +0.149 HD
BRANCH  24  27
ATOM     26  C   LIG    1       -0.232   4.895  -0.993  0.00  0.00    +0.027 C 
ATOM     27  C   LIG    1       -0.942   3.755  -0.245  0.00  0.00    +0.067 C 
ATOM     28  C   LIG    1       -1.226   4.143   1.218  0.00  0.00    +0.027 C 
ENDBRANCH  24  27
ENDBRANCH   1  24
TORSDOF 7
