REMARK  Name = DB06469
REMARK                            x       y       z     vdW  Elec       q    Type
REMARK                         _______ _______ _______ _____ _____    ______ ____
ROOT
ATOM      1  C   LIG    1        0.598  -1.460   2.110  0.00  0.00    +0.070 C 
ATOM      2  C   LIG    1       -0.495  -0.775   1.268  0.00  0.00    +0.178 C 
ATOM      3  N   LIG    1       -1.422   0.030   2.102  0.00  0.00    -0.307 N 
ATOM      4  C   LIG    1       -1.214   0.697   3.326  0.00  0.00    +0.053 A 
ATOM      5  C   LIG    1       -2.422   1.389   3.664  0.00  0.00    +0.008 A 
ATOM      6  C   LIG    1       -3.350   1.174   2.641  0.00  0.00    +0.015 A 
ATOM      7  C   LIG    1       -4.665   1.612   2.403  0.00  0.00    -0.008 A 
ATOM      8  C   LIG    1       -5.537   2.503   3.232  0.00  0.00    +0.141 C 
ATOM      9  N   LIG    1       -6.741   2.567   2.424  0.00  0.00    -0.307 N 
ATOM     10  H   LIG    1       -7.545   3.104   2.714  0.00  0.00    +0.149 HD
ATOM     11  C   LIG    1       -6.708   1.867   1.278  0.00  0.00    +0.245 C 
ATOM     12  O   LIG    1       -7.623   1.796   0.463  0.00  0.00    -0.270 OA
ATOM     13  C   LIG    1       -5.347   1.232   1.250  0.00  0.00    +0.052 A 
ATOM     14  C   LIG    1       -4.732   0.380   0.301  0.00  0.00    +0.022 A 
ATOM     15  C   LIG    1       -3.415  -0.062   0.560  0.00  0.00    +0.077 A 
ATOM     16  N   LIG    1       -2.986  -0.917  -0.441  0.00  0.00    -0.311 N 
ATOM     17  C   LIG    1       -4.002  -0.998  -1.385  0.00  0.00    +0.052 A 
ATOM     18  C   LIG    1       -4.054  -1.709  -2.594  0.00  0.00    +0.026 A 
ATOM     19  C   LIG    1       -5.221  -1.612  -3.349  0.00  0.00    +0.002 A 
ATOM     20  C   LIG    1       -6.300  -0.843  -2.931  0.00  0.00    +0.001 A 
ATOM     21  C   LIG    1       -6.257  -0.134  -1.734  0.00  0.00    +0.010 A 
ATOM     22  C   LIG    1       -1.707  -1.606  -0.494  0.00  0.00    +0.226 C 
ATOM     23  C   LIG    1       -0.577  -0.868  -1.168  0.00  0.00    +0.096 C 
ATOM     24  C   LIG    1       -5.099  -0.199  -0.937  0.00  0.00    +0.008 A 
ATOM     25  C   LIG    1       -2.501   2.135   4.851  0.00  0.00    +0.010 A 
ATOM     26  C   LIG    1       -1.389   2.198   5.681  0.00  0.00    +0.001 A 
ATOM     27  C   LIG    1       -0.213   1.542   5.345  0.00  0.00    +0.002 A 
ATOM     28  C   LIG    1       -0.095   0.790   4.177  0.00  0.00    +0.026 A 
ATOM     29  C   LIG    1       -2.726   0.337   1.708  0.00  0.00    +0.077 A 
ATOM     30  O   LIG    1       -1.225  -1.870   0.778  0.00  0.00    -0.328 OA
ATOM     31  C   LIG    1        0.013  -0.018  -0.030  0.00  0.00    +0.141 C 
ENDROOT
BRANCH  31  32
ATOM     32  O   LIG    1       -0.470   1.321  -0.113  0.00  0.00    -0.381 OA
ATOM     33  H   LIG    1       -0.147   1.707  -0.931  0.00  0.00    +0.210 HD
ENDBRANCH  31  32
BRANCH  31  34
ATOM     34  C   LIG    1        1.563   0.133  -0.131  0.00  0.00    +0.195 C 
BRANCH  34  35
ATOM     35  O   LIG    1        1.982   0.712  -1.356  0.00  0.00    -0.392 OA
ATOM     36  H   LIG    1        2.939   0.796  -1.342  0.00  0.00    +0.210 HD
ENDBRANCH  34  35
ENDBRANCH  31  34
TORSDOF 3
