REMARK  Name = DB06718
REMARK                            x       y       z     vdW  Elec       q    Type
REMARK                         _______ _______ _______ _____ _____    ______ ____
ROOT
ATOM      1  C   LIG    1       -0.172   3.467   1.766  0.00  0.00    +0.108 A 
ATOM      2  C   LIG    1       -0.241   2.143   1.369  0.00  0.00    -0.006 A 
ATOM      3  C   LIG    1       -0.340   1.491  -0.001  0.00  0.00    +0.045 C 
ATOM      4  C   LIG    1        0.167   0.010   0.025  0.00  0.00    -0.022 C 
ATOM      5  C   LIG    1        1.725   0.003   0.117  0.00  0.00    +0.012 C 
ATOM      6  C   LIG    1       -0.348  -0.738  -1.268  0.00  0.00    -0.001 C 
ATOM      7  C   LIG    1        0.020  -0.033  -2.618  0.00  0.00    +0.005 C 
ATOM      8  C   LIG    1       -0.422  -0.836  -3.865  0.00  0.00    +0.010 C 
ATOM      9  C   LIG    1        0.117  -2.293  -3.837  0.00  0.00    -0.000 C 
ATOM     10  C   LIG    1        1.683  -2.293  -3.852  0.00  0.00    +0.014 C 
ATOM     11  C   LIG    1       -0.417  -3.267  -4.947  0.00  0.00    +0.069 C 
ATOM     12  C   LIG    1       -1.875  -2.996  -5.408  0.00  0.00    +0.042 C 
ATOM     13  C   LIG    1       -0.299  -4.668  -4.284  0.00  0.00    +0.035 C 
ATOM     14  C   LIG    1       -0.261  -4.454  -2.757  0.00  0.00    +0.007 C 
ATOM     15  C   LIG    1       -0.481  -2.949  -2.568  0.00  0.00    +0.001 C 
ATOM     16  C   LIG    1        0.004  -2.268  -1.257  0.00  0.00    -0.004 C 
ATOM     17  C   LIG    1       -0.635  -2.923  -0.011  0.00  0.00    +0.004 C 
ATOM     18  C   LIG    1       -0.172  -2.239   1.283  0.00  0.00    +0.005 C 
ATOM     19  C   LIG    1       -0.464  -0.714   1.277  0.00  0.00    +0.001 C 
ATOM     20  C   LIG    1       -0.057  -0.098   2.646  0.00  0.00    +0.061 C 
ATOM     21  C   LIG    1       -0.115   1.419   2.572  0.00  0.00    +0.066 A 
ATOM     22  N   LIG    1       -0.038   2.203   3.626  0.00  0.00    -0.179 NA
ATOM     23  N   LIG    1       -0.069   3.441   3.128  0.00  0.00    -0.284 N 
ATOM     24  H   LIG    1       -0.013   4.258   3.720  0.00  0.00    +0.188 HD
ENDROOT
BRANCH  11  25
ATOM     25  O   LIG    1        0.296  -3.213  -6.174  0.00  0.00    -0.388 OA
ATOM     26  H   LIG    1       -0.079  -3.864  -6.771  0.00  0.00    +0.210 HD
ENDBRANCH  11  25
TORSDOF 1
