REMARK  Name = DB06433
REMARK                            x       y       z     vdW  Elec       q    Type
REMARK                         _______ _______ _______ _____ _____    ______ ____
ROOT
ATOM      1  F   LIG    1        3.165   3.063  -1.057  0.00  0.00    -0.214 F 
ATOM      2  C   LIG    1        2.497   1.890  -1.072  0.00  0.00    +0.188 C 
ATOM      3  C   LIG    1        1.976   1.326   0.034  0.00  0.00    +0.038 C 
ATOM      4  C   LIG    1        1.270  -0.006   0.021  0.00  0.00    +0.256 C 
ATOM      5  O   LIG    1        1.655  -0.618   1.214  0.00  0.00    -0.344 OA
ATOM      6  C   LIG    1        2.138   0.334   2.163  0.00  0.00    +0.179 C 
ATOM      7  C   LIG    1        2.003   1.717   1.492  0.00  0.00    +0.178 C 
ENDROOT
BRANCH   4   8
ATOM      8  N   LIG    1       -0.201  -0.010  -0.090  0.00  0.00    -0.269 N 
ATOM      9  C   LIG    1       -0.862  -1.235  -0.136  0.00  0.00    +0.352 A 
ATOM     10  N   LIG    1       -2.273  -1.188  -0.212  0.00  0.00    -0.178 NA
ATOM     11  C   LIG    1       -2.932  -0.085  -0.289  0.00  0.00    +0.123 A 
ATOM     12  C   LIG    1       -2.263   1.181  -0.285  0.00  0.00    +0.061 A 
ATOM     13  O   LIG    1       -0.207  -2.280  -0.109  0.00  0.00    -0.244 OA
ATOM     14  C   LIG    1       -0.926   1.161  -0.185  0.00  0.00    +0.097 A 
BRANCH  11  15
ATOM     15  N   LIG    1       -4.270  -0.082  -0.372  0.00  0.00    -0.343 N 
ATOM     16  H   LIG    1       -4.781  -0.953  -0.376  0.00  0.00    +0.144 HD
ATOM     17  H   LIG    1       -4.780   0.787  -0.434  0.00  0.00    +0.144 HD
ENDBRANCH  11  15
ENDBRANCH   4   8
BRANCH   7  18
ATOM     18  O   LIG    1        3.039   2.623   1.819  0.00  0.00    -0.385 OA
ATOM     19  H   LIG    1        2.879   3.449   1.358  0.00  0.00    +0.210 HD
ENDBRANCH   7  18
BRANCH   6  20
ATOM     20  C   LIG    1        1.320   0.145   3.454  0.00  0.00    +0.190 C 
BRANCH  20  21
ATOM     21  O   LIG    1        1.881   0.885   4.519  0.00  0.00    -0.392 OA
ATOM     22  H   LIG    1        1.366   0.719   5.312  0.00  0.00    +0.210 HD
ENDBRANCH  20  21
ENDBRANCH   6  20
TORSDOF 5
