REMARK  Name = DB06159
REMARK                            x       y       z     vdW  Elec       q    Type
REMARK                         _______ _______ _______ _____ _____    ______ ____
ROOT
ATOM      1  C   LIG    1       -2.181   0.296   9.030  0.00  0.00    +0.131 A 
ATOM      2  C   LIG    1       -1.823   1.538   9.563  0.00  0.00    +0.033 A 
ATOM      3  C   LIG    1       -1.258   2.531   8.773  0.00  0.00    +0.004 A 
ATOM      4  C   LIG    1       -1.029   2.314   7.419  0.00  0.00    +0.028 A 
ATOM      5  C   LIG    1       -1.360   1.071   6.832  0.00  0.00    +0.074 A 
ATOM      6  N   LIG    1       -1.103   0.902   5.503  0.00  0.00    -0.245 NA
ATOM      7  C   LIG    1       -1.408  -0.296   4.952  0.00  0.00    +0.093 A 
ATOM      8  C   LIG    1       -1.958  -1.356   5.646  0.00  0.00    +0.000 A 
ATOM      9  C   LIG    1       -2.229  -1.206   7.003  0.00  0.00    +0.019 A 
ATOM     10  C   LIG    1       -2.156  -2.522   4.720  0.00  0.00    +0.162 C 
ATOM     11  N   LIG    1       -1.653  -1.978   3.461  0.00  0.00    -0.302 N 
ATOM     12  C   LIG    1       -1.619  -2.691   2.289  0.00  0.00    +0.259 A 
ATOM     13  O   LIG    1       -2.019  -3.855   2.219  0.00  0.00    -0.267 OA
ATOM     14  C   LIG    1       -1.064  -1.963   1.133  0.00  0.00    +0.061 A 
ATOM     15  C   LIG    1       -0.640  -0.670   1.202  0.00  0.00    +0.008 A 
ATOM     16  C   LIG    1       -0.713   0.003   2.499  0.00  0.00    +0.035 A 
ATOM     17  C   LIG    1       -0.047   0.004  -0.041  0.00  0.00    +0.188 C 
ATOM     18  C   LIG    1       -0.514  -0.615  -1.388  0.00  0.00    +0.344 C 
ATOM     19  O   LIG    1       -0.987  -1.898  -1.366  0.00  0.00    -0.457 OA
ATOM     20  O   LIG    1       -0.555  -0.055  -2.483  0.00  0.00    -0.247 OA
ATOM     21  C   LIG    1       -0.961  -2.724  -0.191  0.00  0.00    +0.273 C 
ATOM     22  C   LIG    1       -1.209  -0.678   3.550  0.00  0.00    +0.071 A 
ATOM     23  C   LIG    1       -1.940   0.037   7.642  0.00  0.00    +0.031 A 
ENDROOT
BRANCH   1  24
ATOM     24  N   LIG    1       -2.797  -0.706   9.918  0.00  0.00    +0.007 N 
ATOM     25  O   LIG    1       -2.223  -0.967  10.971  0.00  0.00    -0.130 OA
BRANCH  24  26
ATOM     26  O   LIG    1       -3.865  -1.205   9.577  0.00  0.00    -0.396 OA
ATOM     27  H   LIG    1       -4.279  -1.845  10.122  0.00  0.00    +0.329 HD
ENDBRANCH  24  26
ENDBRANCH   1  24
BRANCH  17  28
ATOM     28  C   LIG    1        1.512   0.007   0.032  0.00  0.00    +0.048 C 
ATOM     29  C   LIG    1        2.208  -1.369   0.054  0.00  0.00    +0.007 C 
ENDBRANCH  17  28
BRANCH  17  30
ATOM     30  O   LIG    1       -0.406   1.379  -0.068  0.00  0.00    -0.373 OA
ATOM     31  H   LIG    1       -1.363   1.443  -0.123  0.00  0.00    +0.211 HD
ENDBRANCH  17  30
TORSDOF 4
