REMARK  Name = DB06177
REMARK                            x       y       z     vdW  Elec       q    Type
REMARK                         _______ _______ _______ _____ _____    ______ ____
ROOT
ATOM      1  C   LIG    1        2.333   1.705   0.287  0.00  0.00    +0.291 C 
ATOM      2  O   LIG    1        1.926   2.019  -1.045  0.00  0.00    -0.340 OA
ATOM      3  C   LIG    1        2.527   3.200  -1.577  0.00  0.00    +0.178 C 
ATOM      4  C   LIG    1        4.048   2.932  -1.728  0.00  0.00    +0.177 C 
ATOM      5  C   LIG    1        4.665   2.501  -0.374  0.00  0.00    +0.179 C 
ATOM      6  C   LIG    1        3.843   1.379   0.309  0.00  0.00    +0.202 C 
ENDROOT
BRANCH   4   7
ATOM      7  O   LIG    1        4.724   4.062  -2.254  0.00  0.00    -0.386 OA
ATOM      8  H   LIG    1        5.644   3.826  -2.398  0.00  0.00    +0.210 HD
ENDBRANCH   4   7
BRANCH   5   9
ATOM      9  O   LIG    1        6.025   2.124  -0.519  0.00  0.00    -0.386 OA
ATOM     10  H   LIG    1        6.070   1.354  -1.091  0.00  0.00    +0.210 HD
ENDBRANCH   5   9
BRANCH   6  11
ATOM     11  O   LIG    1        4.282   1.165   1.639  0.00  0.00    -0.384 OA
ATOM     12  H   LIG    1        5.163   0.785   1.612  0.00  0.00    +0.210 HD
ENDBRANCH   6  11
BRANCH   1  13
ATOM     13  O   LIG    1        1.575   0.588   0.735  0.00  0.00    -0.273 OA
BRANCH  13  14
ATOM     14  P   LIG    1       -0.051   0.541   0.603  0.00  0.00    +0.345 P 
ATOM     15  O   LIG    1       -0.737   1.810   0.971  0.00  0.00    -0.254 OA
BRANCH  14  16
ATOM     16  N   LIG    1       -0.291  -0.025  -0.983  0.00  0.00    -0.232 NA
ATOM     17  H   LIG    1        0.364  -0.712  -1.357  0.00  0.00    +0.133 HD
BRANCH  16  18
ATOM     18  C   LIG    1       -1.599   0.005  -1.630  0.00  0.00    +0.107 C 
BRANCH  18  19
ATOM     19  C   LIG    1       -1.559  -0.348  -3.124  0.00  0.00    +0.124 C 
ATOM     20 CL   LIG    1       -0.575   0.818  -4.049  0.00  0.00    -0.124 Cl
ENDBRANCH  18  19
ENDBRANCH  16  18
ENDBRANCH  14  16
BRANCH  14  21
ATOM     21  N   LIG    1       -0.449  -0.828   1.527  0.00  0.00    -0.232 NA
ATOM     22  H   LIG    1        0.211  -1.606   1.554  0.00  0.00    +0.133 HD
BRANCH  21  23
ATOM     23  C   LIG    1       -1.827  -1.170   1.868  0.00  0.00    +0.107 C 
BRANCH  23  24
ATOM     24  C   LIG    1       -1.951  -2.070   3.107  0.00  0.00    +0.124 C 
ATOM     25 CL   LIG    1       -1.325  -1.257   4.568  0.00  0.00    -0.124 Cl
ENDBRANCH  23  24
ENDBRANCH  21  23
ENDBRANCH  14  21
ENDBRANCH  13  14
ENDBRANCH   1  13
BRANCH   3  26
ATOM     26  C   LIG    1        1.848   3.505  -2.930  0.00  0.00    +0.190 C 
BRANCH  26  27
ATOM     27  O   LIG    1        0.491   3.852  -2.743  0.00  0.00    -0.392 OA
ATOM     28  H   LIG    1        0.090   3.995  -3.603  0.00  0.00    +0.210 HD
ENDBRANCH  26  27
ENDBRANCH   3  26
TORSDOF 13
