REMARK  Name = DB06624
REMARK                            x       y       z     vdW  Elec       q    Type
REMARK                         _______ _______ _______ _____ _____    ______ ____
ROOT
ATOM      1  C   LIG    1       -0.298  -1.388  -1.389  0.00  0.00    +0.028 C 
ATOM      2  C   LIG    1        0.002  -0.225  -0.415  0.00  0.00    +0.078 C 
ENDROOT
BRANCH   2   3
ATOM      3  N   LIG    1        1.444   0.044  -0.367  0.00  0.00    -0.309 N 
ATOM      4  H   LIG    1        1.923  -0.284   0.459  0.00  0.00    +0.149 HD
ATOM      5  C   LIG    1        2.166   0.724  -1.280  0.00  0.00    +0.257 C 
ATOM      6  O   LIG    1        1.682   1.123  -2.341  0.00  0.00    -0.271 OA
BRANCH   5   7
ATOM      7  C   LIG    1        3.701   0.834  -1.037  0.00  0.00    +0.182 C 
ATOM      8  C   LIG    1        4.273   2.195  -1.522  0.00  0.00    +0.065 C 
ATOM      9  C   LIG    1        4.416  -0.297  -1.809  0.00  0.00    +0.065 C 
BRANCH   7  10
ATOM     10  O   LIG    1        4.067   0.614   0.349  0.00  0.00    -0.461 OA
BRANCH  10  11
ATOM     11  C   LIG    1        3.615   1.374   1.421  0.00  0.00    +0.216 A 
ATOM     12  N   LIG    1        2.902   2.514   1.200  0.00  0.00    -0.221 NA
ATOM     13  C   LIG    1        2.435   3.202   2.272  0.00  0.00    +0.127 A 
ATOM     14  C   LIG    1        2.645   2.791   3.594  0.00  0.00    +0.073 A 
ATOM     15  C   LIG    1        3.393   1.627   3.803  0.00  0.00    +0.019 A 
ATOM     16  C   LIG    1        3.888   0.913   2.711  0.00  0.00    +0.068 A 
BRANCH  14  17
ATOM     17  C   LIG    1        2.077   3.565   4.781  0.00  0.00    +0.419 C 
ATOM     18  F   LIG    1        3.072   3.959   5.575  0.00  0.00    -0.166 F 
ATOM     19  F   LIG    1        1.260   2.775   5.478  0.00  0.00    -0.166 F 
ATOM     20  F   LIG    1        1.391   4.644   4.401  0.00  0.00    -0.166 F 
ENDBRANCH  14  17
ENDBRANCH  10  11
ENDBRANCH   7  10
ENDBRANCH   5   7
ENDBRANCH   2   3
BRANCH   2  21
ATOM     21  C   LIG    1       -0.571  -0.457   1.020  0.00  0.00    +0.043 C 
BRANCH  21  22
ATOM     22  C   LIG    1       -2.068  -0.792   1.021  0.00  0.00    -0.041 A 
ATOM     23  C   LIG    1       -2.515  -2.018   1.528  0.00  0.00    +0.022 A 
ATOM     24  C   LIG    1       -3.879  -2.323   1.547  0.00  0.00    +0.052 A 
ATOM     25  C   LIG    1       -4.804  -1.397   1.056  0.00  0.00    +0.019 A 
ATOM     26  C   LIG    1       -4.365  -0.174   0.550  0.00  0.00    +0.002 A 
ATOM     27  C   LIG    1       -3.004   0.128   0.532  0.00  0.00    +0.004 A 
BRANCH  24  28
ATOM     28  C   LIG    1       -4.335  -3.599   2.078  0.00  0.00    +0.099 C 
ATOM     29  N   LIG    1       -4.697  -4.614   2.500  0.00  0.00    -0.191 NA
ENDBRANCH  24  28
ENDBRANCH  21  22
BRANCH  21  30
ATOM     30  C   LIG    1       -0.250   0.715   1.992  0.00  0.00    +0.045 C 
BRANCH  30  31
ATOM     31  C   LIG    1       -0.710   0.498   3.428  0.00  0.00    -0.047 A 
ATOM     32  C   LIG    1        0.047  -0.304   4.285  0.00  0.00    +0.005 A 
ATOM     33  C   LIG    1       -0.367  -0.499   5.600  0.00  0.00    +0.020 A 
ATOM     34  C   LIG    1       -1.538   0.107   6.053  0.00  0.00    +0.041 A 
ATOM     35 CL   LIG    1       -2.051  -0.136   7.683  0.00  0.00    -0.084 Cl
ATOM     36  C   LIG    1       -2.297   0.908   5.201  0.00  0.00    +0.020 A 
ATOM     37  C   LIG    1       -1.882   1.105   3.887  0.00  0.00    +0.005 A 
ENDBRANCH  30  31
ENDBRANCH  21  30
ENDBRANCH   2  21
TORSDOF 10
