REMARK  Name = DB06282
REMARK                            x       y       z     vdW  Elec       q    Type
REMARK                         _______ _______ _______ _____ _____    ______ ____
ROOT
ATOM      1  C   LIG    1       -3.978   0.826   1.241  0.00  0.00    +0.117 C 
ENDROOT
BRANCH   1   4
ATOM      2  C   LIG    1       -3.874   2.601   4.674  0.00  0.00    +0.020 A 
ATOM      3  C   LIG    1       -3.458   1.944   3.519  0.00  0.00    +0.007 A 
ATOM      4  C   LIG    1       -4.387   1.568   2.536  0.00  0.00    -0.026 A 
ATOM      5  C   LIG    1       -5.744   1.848   2.751  0.00  0.00    +0.007 A 
ATOM      6  C   LIG    1       -6.162   2.506   3.904  0.00  0.00    +0.020 A 
ATOM      7  C   LIG    1       -5.224   2.883   4.861  0.00  0.00    +0.041 A 
ATOM      8 CL   LIG    1       -5.740   3.698   6.293  0.00  0.00    -0.084 Cl
ENDBRANCH   1   4
BRANCH   1   9
ATOM      9  N   LIG    1       -2.521   0.614   1.092  0.00  0.00    -0.289 NA
ATOM     10  C   LIG    1       -2.185  -0.496   0.189  0.00  0.00    +0.100 C 
ATOM     11  C   LIG    1       -0.664  -0.779   0.227  0.00  0.00    +0.100 C 
ATOM     12  N   LIG    1        0.103   0.415  -0.164  0.00  0.00    -0.298 NA
ATOM     13  C   LIG    1       -0.252   1.519   0.739  0.00  0.00    +0.100 C 
ATOM     14  C   LIG    1       -1.770   1.808   0.670  0.00  0.00    +0.100 C 
BRANCH  12  15
ATOM     15  C   LIG    1        1.556   0.204  -0.121  0.00  0.00    +0.112 C 
BRANCH  15  16
ATOM     16  C   LIG    1        2.098  -0.752  -1.213  0.00  0.00    +0.176 C 
BRANCH  16  17
ATOM     17  O   LIG    1        1.747  -2.123  -1.050  0.00  0.00    -0.367 OA
BRANCH  17  18
ATOM     18  C   LIG    1        2.342  -2.785   0.065  0.00  0.00    +0.280 C 
BRANCH  18  19
ATOM     19  C   LIG    1        1.909  -4.260   0.111  0.00  0.00    +0.331 C 
ATOM     20  O   LIG    1        2.365  -5.047   0.937  0.00  0.00    -0.248 OA
BRANCH  19  21
ATOM     21  O   LIG    1        0.979  -4.593  -0.833  0.00  0.00    -0.479 OA
ATOM     22  H   LIG    1        0.723  -5.516  -0.784  0.00  0.00    +0.295 HD
ENDBRANCH  19  21
ENDBRANCH  18  19
ENDBRANCH  17  18
ENDBRANCH  16  17
ENDBRANCH  15  16
ENDBRANCH  12  15
ENDBRANCH   1   9
BRANCH   1  23
ATOM     23  C   LIG    1       -4.652   1.343  -0.047  0.00  0.00    -0.026 A 
ATOM     24  C   LIG    1       -4.801   2.717  -0.280  0.00  0.00    +0.005 A 
ATOM     25  C   LIG    1       -5.423   3.167  -1.441  0.00  0.00    +0.000 A 
ATOM     26  C   LIG    1       -5.905   2.245  -2.367  0.00  0.00    +0.000 A 
ATOM     27  C   LIG    1       -5.773   0.877  -2.141  0.00  0.00    +0.000 A 
ATOM     28  C   LIG    1       -5.150   0.427  -0.980  0.00  0.00    +0.005 A 
ENDBRANCH   1  23
TORSDOF 9
