REMARK  Name = DB06683
REMARK                            x       y       z     vdW  Elec       q    Type
REMARK                         _______ _______ _______ _____ _____    ______ ____
ROOT
ATOM      1  C   LIG    1        1.575  -0.035   0.246  0.00  0.00    +0.260 C 
ATOM      2  O   LIG    1        2.167   0.871  -0.640  0.00  0.00    -0.345 OA
ATOM      3  C   LIG    1        3.437   1.320  -0.166  0.00  0.00    +0.178 C 
ATOM      4  C   LIG    1        3.560   0.687   1.234  0.00  0.00    +0.184 C 
ATOM      5  C   LIG    1        2.127   0.331   1.617  0.00  0.00    +0.246 C 
ATOM      6  F   LIG    1        1.514   1.414   2.105  0.00  0.00    -0.238 F 
ENDROOT
BRANCH   1  15
ATOM      7  C   LIG    1       -2.704   2.456  -0.436  0.00  0.00    +0.051 C 
ATOM      8  C   LIG    1       -1.930   1.162  -0.215  0.00  0.00    +0.030 A 
ATOM      9  C   LIG    1       -2.686  -0.085  -0.117  0.00  0.00    +0.257 A 
ATOM     10  O   LIG    1       -3.908  -0.185  -0.216  0.00  0.00    -0.267 OA
ATOM     11  N   LIG    1       -1.898  -1.178   0.108  0.00  0.00    -0.275 N 
ATOM     12  H   LIG    1       -2.396  -2.051   0.195  0.00  0.00    +0.173 HD
ATOM     13  C   LIG    1       -0.537  -1.272   0.242  0.00  0.00    +0.331 A 
ATOM     14  O   LIG    1       -0.016  -2.364   0.476  0.00  0.00    -0.246 OA
ATOM     15  N   LIG    1        0.122  -0.065   0.101  0.00  0.00    -0.271 N 
ATOM     16  C   LIG    1       -0.585   1.101  -0.100  0.00  0.00    +0.102 A 
ENDBRANCH   1  15
BRANCH   4  17
ATOM     17  O   LIG    1        4.406  -0.450   1.239  0.00  0.00    -0.386 OA
ATOM     18  H   LIG    1        4.090  -1.071   0.579  0.00  0.00    +0.210 HD
ENDBRANCH   4  17
BRANCH   3  19
ATOM     19  C   LIG    1        3.395   2.861  -0.186  0.00  0.00    +0.190 C 
BRANCH  19  20
ATOM     20  O   LIG    1        4.684   3.396   0.032  0.00  0.00    -0.392 OA
ATOM     21  H   LIG    1        4.631   4.353  -0.012  0.00  0.00    +0.210 HD
ENDBRANCH  19  20
ENDBRANCH   3  19
TORSDOF 4
