REMARK  Name = DB06506
REMARK                            x       y       z     vdW  Elec       q    Type
REMARK                         _______ _______ _______ _____ _____    ______ ____
ROOT
ATOM      1  C   LIG    1       -0.094  -0.144   0.064  0.00  0.00    -0.082 C 
ENDROOT
BRANCH   1   2
ATOM      2  N   LIG    1       -0.645   1.289   0.035  0.00  0.00    +0.381 N 
ATOM      3  H   LIG    1       -0.284   1.796   0.832  0.00  0.00    -0.086 HD
ATOM      4  H   LIG    1       -0.315   1.748  -0.802  0.00  0.00    -0.086 HD
BRANCH   2   5
ATOM      5  C   LIG    1       -2.182   1.356   0.062  0.00  0.00    -0.037 C 
BRANCH   5  11
ATOM      6  C   LIG    1       -3.662   7.153   2.475  0.00  0.00    +0.000 A 
ATOM      7  C   LIG    1       -4.394   6.399   1.557  0.00  0.00    +0.007 A 
ATOM      8  C   LIG    1       -3.891   5.197   1.047  0.00  0.00    -0.006 A 
ATOM      9  C   LIG    1       -4.655   4.388   0.015  0.00  0.00    +0.042 C 
ATOM     10  C   LIG    1       -4.199   2.923   0.022  0.00  0.00    +0.047 C 
ATOM     11  C   LIG    1       -2.658   2.822   0.046  0.00  0.00    +0.157 C 
ATOM     12  O   LIG    1       -2.068   3.543   1.139  0.00  0.00    -0.490 OA
ATOM     13  C   LIG    1       -2.630   4.757   1.492  0.00  0.00    +0.124 A 
ATOM     14  C   LIG    1       -1.897   5.509   2.413  0.00  0.00    +0.046 A 
ATOM     15  C   LIG    1       -2.411   6.710   2.900  0.00  0.00    +0.004 A 
ENDBRANCH   5  11
ENDBRANCH   2   5
ENDBRANCH   1   2
BRANCH   1  16
ATOM     16  C   LIG    1        1.438  -0.100  -0.026  0.00  0.00    -0.017 C 
BRANCH  16  17
ATOM     17  C   LIG    1        2.066  -1.507  -0.019  0.00  0.00    +0.019 C 
BRANCH  17  18
ATOM     18  C   LIG    1        3.607  -1.522  -0.086  0.00  0.00    +0.135 C 
BRANCH  18  19
ATOM     19  N   LIG    1        4.157  -0.798  -1.264  0.00  0.00    -0.168 N 
ATOM     20  S   LIG    1        3.908  -1.436  -2.883  0.00  0.00    +0.078 S 
ATOM     21  O   LIG    1        2.489  -1.396  -3.255  0.00  0.00    -0.150 OA
ATOM     22  O   LIG    1        4.662  -2.679  -3.075  0.00  0.00    -0.150 OA
ATOM     23  C   LIG    1        4.785  -0.036  -3.572  0.00  0.00    +0.121 A 
ATOM     24  C   LIG    1        5.055   0.183  -4.923  0.00  0.00    +0.029 A 
ATOM     25  C   LIG    1        5.743   1.347  -5.275  0.00  0.00    +0.002 A 
ATOM     26  C   LIG    1        6.142   2.262  -4.297  0.00  0.00    +0.001 A 
ATOM     27  C   LIG    1        5.858   2.021  -2.950  0.00  0.00    +0.015 A 
ATOM     28  C   LIG    1        5.175   0.859  -2.579  0.00  0.00    +0.065 A 
ATOM     29  C   LIG    1        4.797   0.464  -1.185  0.00  0.00    +0.268 C 
ATOM     30  O   LIG    1        5.005   1.108  -0.156  0.00  0.00    -0.268 OA
ENDBRANCH  18  19
ENDBRANCH  17  18
ENDBRANCH  16  17
ENDBRANCH   1  16
TORSDOF 7
