REMARK  Name = DB06297
REMARK                            x       y       z     vdW  Elec       q    Type
REMARK                         _______ _______ _______ _____ _____    ______ ____
ROOT
ATOM      1  C   LIG    1       -0.157  -0.256  -0.198  0.00  0.00    +0.193 C 
ENDROOT
BRANCH   1   5
ATOM      2  C   LIG    1       -1.703  -1.012   3.070  0.00  0.00    +0.156 A 
ATOM      3  N   LIG    1       -1.844  -2.205   2.531  0.00  0.00    -0.234 NA
ATOM      4  C   LIG    1       -1.327  -2.115   1.316  0.00  0.00    +0.137 A 
ATOM      5  C   LIG    1       -0.836  -0.849   1.027  0.00  0.00    +0.067 A 
ATOM      6  N   LIG    1       -1.091  -0.157   2.183  0.00  0.00    -0.339 N 
ATOM      7  H   LIG    1       -0.865   0.813   2.354  0.00  0.00    +0.167 HD
BRANCH   2   9
ATOM      8  C   LIG    1       -2.805  -1.749   5.247  0.00  0.00    +0.073 C 
ATOM      9  C   LIG    1       -2.132  -0.634   4.428  0.00  0.00    +0.119 C 
ATOM     10  N   LIG    1       -1.914   0.568   4.814  0.00  0.00    -0.089 NA
BRANCH  10  11
ATOM     11  O   LIG    1       -2.347   0.859   6.119  0.00  0.00    -0.409 OA
ATOM     12  H   LIG    1       -2.095   1.780   6.214  0.00  0.00    +0.328 HD
ENDBRANCH  10  11
ENDBRANCH   2   9
ENDBRANCH   1   5
BRANCH   1  13
ATOM     13  O   LIG    1       -0.950   0.806  -0.699  0.00  0.00    -0.383 OA
ATOM     14  H   LIG    1       -1.812   0.455  -0.937  0.00  0.00    +0.210 HD
ENDBRANCH   1  13
BRANCH   1  15
ATOM     15  C   LIG    1        1.310   0.210   0.061  0.00  0.00    +0.179 C 
BRANCH  15  16
ATOM     16  O   LIG    1        1.338   1.275   1.001  0.00  0.00    -0.386 OA
ATOM     17  H   LIG    1        0.843   2.012   0.634  0.00  0.00    +0.210 HD
ENDBRANCH  15  16
BRANCH  15  18
ATOM     18  C   LIG    1        2.096   0.625  -1.218  0.00  0.00    +0.171 C 
BRANCH  18  19
ATOM     19  O   LIG    1        2.086  -0.443  -2.152  0.00  0.00    -0.387 OA
ATOM     20  H   LIG    1        2.583  -1.177  -1.783  0.00  0.00    +0.210 HD
ENDBRANCH  18  19
BRANCH  18  21
ATOM     21  C   LIG    1        3.569   1.021  -0.945  0.00  0.00    +0.189 C 
BRANCH  21  22
ATOM     22  O   LIG    1        4.173   1.592  -2.090  0.00  0.00    -0.392 OA
ATOM     23  H   LIG    1        5.079   1.826  -1.874  0.00  0.00    +0.210 HD
ENDBRANCH  21  22
ENDBRANCH  18  21
ENDBRANCH  15  18
ENDBRANCH   1  15
TORSDOF 10
