REMARK  Name = DB06788
REMARK                            x       y       z     vdW  Elec       q    Type
REMARK                         _______ _______ _______ _____ _____    ______ ____
ROOT
ATOM      1  C   UNK    1       -2.208   0.773   1.286  0.00  0.00    +0.163 C 
ENDROOT
BRANCH   1   4
ATOM      2  N   UNK    1        0.076   0.026   0.871  0.00  0.00    -0.302 N 
ATOM      3  H   UNK    1       -0.320  -0.884   1.056  0.00  0.00    +0.150 HD
ATOM      4  C   UNK    1       -0.747   1.088   0.931  0.00  0.00    +0.234 C 
ATOM      5  O   UNK    1       -0.415   2.256   0.727  0.00  0.00    -0.274 OA
BRANCH   2   6
ATOM      6  C   UNK    1        1.513   0.012   0.569  0.00  0.00    +0.165 C 
BRANCH   6   9
ATOM      7  N   UNK    1        2.784  -0.592  -1.425  0.00  0.00    -0.302 N 
ATOM      8  H   UNK    1        3.257  -1.232  -0.804  0.00  0.00    +0.150 HD
ATOM      9  C   UNK    1        1.796   0.179  -0.939  0.00  0.00    +0.234 C 
ATOM     10  O   UNK    1        1.168   1.001  -1.607  0.00  0.00    -0.274 OA
BRANCH   7  11
ATOM     11  C   UNK    1        3.265  -0.578  -2.805  0.00  0.00    +0.159 C 
BRANCH  11  14
ATOM     12  N   UNK    1        2.100  -0.540  -4.947  0.00  0.00    -0.302 N 
ATOM     13  H   UNK    1        2.667   0.276  -5.129  0.00  0.00    +0.150 HD
ATOM     14  C   UNK    1        2.225  -1.174  -3.772  0.00  0.00    +0.234 C 
ATOM     15  O   UNK    1        1.592  -2.180  -3.449  0.00  0.00    -0.274 OA
BRANCH  12  16
ATOM     16  C   UNK    1        1.163  -0.905  -6.007  0.00  0.00    +0.159 C 
BRANCH  16  17
ATOM     17  C   UNK    1        1.789  -0.585  -7.380  0.00  0.00    +0.237 C 
ATOM     18  N   UNK    1        2.647  -1.495  -7.913  0.00  0.00    -0.288 N 
ATOM     19  C   UNK    1        3.055  -2.763  -7.302  0.00  0.00    +0.109 C 
ATOM     20  C   UNK    1        4.401  -3.074  -7.937  0.00  0.00    +0.021 C 
ATOM     21  C   UNK    1        4.225  -2.554  -9.352  0.00  0.00    +0.033 C 
ATOM     22  C   UNK    1        3.333  -1.304  -9.209  0.00  0.00    +0.162 C 
ATOM     23  O   UNK    1        1.519   0.490  -7.916  0.00  0.00    -0.274 OA
BRANCH  22  24
ATOM     24  C   UNK    1        2.369  -1.139 -10.399  0.00  0.00    +0.234 C 
ATOM     25  N   UNK    1        2.456   0.024 -11.066  0.00  0.00    -0.314 N 
ATOM     26  H   UNK    1        3.140   0.706 -10.773  0.00  0.00    +0.149 HD
ATOM     27  O   UNK    1        1.571  -2.037 -10.667  0.00  0.00    -0.274 OA
BRANCH  25  28
ATOM     28  C   UNK    1        1.595   0.399 -12.184  0.00  0.00    +0.101 C 
ATOM     29  C   UNK    1        0.191   0.843 -11.745  0.00  0.00    +0.024 C 
ENDBRANCH  25  28
ENDBRANCH  22  24
ENDBRANCH  16  17
BRANCH  16  30
ATOM     30  C   UNK    1       -0.228  -0.261  -5.768  0.00  0.00    +0.035 C 
BRANCH  30  31
ATOM     31  C   UNK    1       -0.224   1.214  -5.312  0.00  0.00    +0.039 C 
BRANCH  31  32
ATOM     32  C   UNK    1       -1.639   1.797  -5.209  0.00  0.00    +0.196 C 
BRANCH  32  33
ATOM     33  N   UNK    1       -1.608   3.166  -4.728  0.00  0.00    -0.276 N 
ATOM     34  H   UNK    1       -1.602   3.882  -5.440  0.00  0.00    +0.258 HD
BRANCH  33  35
ATOM     35  C   UNK    1       -1.485   3.586  -3.410  0.00  0.00    +0.376 C 
ATOM     36  N   UNK    1       -1.446   2.820  -2.410  0.00  0.00    -0.130 NA
ATOM     37  H   UNK    1       -1.333   3.307  -1.532  0.00  0.00    +0.306 HD
BRANCH  35  38
ATOM     38  N   UNK    1       -1.410   4.966  -3.323  0.00  0.00    -0.289 N 
ATOM     39  H   UNK    1       -1.900   5.453  -4.059  0.00  0.00    +0.255 HD
ATOM     40  H   UNK    1       -1.696   5.337  -2.429  0.00  0.00    +0.255 HD
ENDBRANCH  35  38
ENDBRANCH  33  35
ENDBRANCH  32  33
ENDBRANCH  31  32
ENDBRANCH  30  31
ENDBRANCH  16  30
ENDBRANCH  12  16
ENDBRANCH  11  14
BRANCH  11  41
ATOM     41  C   UNK    1        4.617  -1.330  -2.860  0.00  0.00    +0.034 C 
BRANCH  41  42
ATOM     42  C   UNK    1        5.368  -1.253  -4.213  0.00  0.00    -0.015 C 
ATOM     43  C   UNK    1        5.750   0.191  -4.597  0.00  0.00    +0.007 C 
ATOM     44  C   UNK    1        6.582  -2.202  -4.235  0.00  0.00    +0.007 C 
ENDBRANCH  41  42
ENDBRANCH  11  41
ENDBRANCH   7  11
ENDBRANCH   6   9
BRANCH   6  45
ATOM     45  C   UNK    1        2.351   0.971   1.467  0.00  0.00    +0.088 C 
BRANCH  45  46
ATOM     46  C   UNK    1        3.853   0.853   1.269  0.00  0.00    +0.061 A 
ATOM     47  C   UNK    1        4.741  -0.041   1.853  0.00  0.00    +0.110 A 
ATOM     48  N   UNK    1        5.973   0.233   1.319  0.00  0.00    -0.332 N 
ATOM     49  C   UNK    1        5.742   1.264   0.446  0.00  0.00    +0.199 A 
ATOM     50  N   UNK    1        4.490   1.649   0.419  0.00  0.00    -0.241 NA
BRANCH  48  51
ATOM     51  C   UNK    1        7.223  -0.472   1.553  0.00  0.00    +0.157 C 
BRANCH  51  52
ATOM     52  C   UNK    1        7.387  -1.702   0.671  0.00  0.00    -0.028 A 
ATOM     53  C   UNK    1        8.274  -1.674  -0.409  0.00  0.00    +0.005 A 
ATOM     54  C   UNK    1        8.425  -2.800  -1.213  0.00  0.00    +0.000 A 
ATOM     55  C   UNK    1        7.685  -3.948  -0.940  0.00  0.00    +0.000 A 
ATOM     56  C   UNK    1        6.794  -3.981   0.131  0.00  0.00    +0.000 A 
ATOM     57  C   UNK    1        6.646  -2.857   0.939  0.00  0.00    +0.005 A 
ENDBRANCH  51  52
ENDBRANCH  48  51
ENDBRANCH  45  46
ENDBRANCH   6  45
ENDBRANCH   2   6
ENDBRANCH   1   4
BRANCH   1  58
ATOM     58  N   UNK    1       -2.636   1.526   2.464  0.00  0.00    -0.302 N 
ATOM     59  H   UNK    1       -3.289   2.276   2.292  0.00  0.00    +0.150 HD
ATOM     60  C   UNK    1       -2.251   1.268   3.726  0.00  0.00    +0.236 C 
ATOM     61  O   UNK    1       -1.477   0.364   4.043  0.00  0.00    -0.274 OA
BRANCH  60  62
ATOM     62  C   UNK    1       -2.888   2.152   4.814  0.00  0.00    +0.184 C 
BRANCH  62  63
ATOM     63  N   UNK    1       -4.231   1.663   5.130  0.00  0.00    -0.301 N 
ATOM     64  H   UNK    1       -4.295   1.035   5.918  0.00  0.00    +0.150 HD
ATOM     65  C   UNK    1       -5.332   1.927   4.408  0.00  0.00    +0.234 C 
ATOM     66  O   UNK    1       -5.354   2.694   3.444  0.00  0.00    -0.274 OA
BRANCH  65  67
ATOM     67  C   UNK    1       -6.611   1.197   4.850  0.00  0.00    +0.163 C 
BRANCH  67  68
ATOM     68  N   UNK    1       -7.759   1.673   4.077  0.00  0.00    -0.302 N 
ATOM     69  H   UNK    1       -7.640   1.674   3.075  0.00  0.00    +0.150 HD
ATOM     70  C   UNK    1       -8.916   2.101   4.605  0.00  0.00    +0.234 C 
ATOM     71  O   UNK    1       -9.156   2.161   5.813  0.00  0.00    -0.274 OA
BRANCH  70  72
ATOM     72  C   UNK    1       -9.980   2.563   3.597  0.00  0.00    +0.165 C 
BRANCH  72  73
ATOM     73  N   UNK    1      -11.297   2.063   3.993  0.00  0.00    -0.302 N 
ATOM     74  H   UNK    1      -11.871   2.704   4.521  0.00  0.00    +0.150 HD
ATOM     75  C   UNK    1      -11.700   0.789   3.837  0.00  0.00    +0.234 C 
ATOM     76  O   UNK    1      -11.056  -0.035   3.184  0.00  0.00    -0.274 OA
BRANCH  75  77
ATOM     77  C   UNK    1      -13.027   0.403   4.527  0.00  0.00    +0.159 C 
ATOM     78  C   UNK    1      -12.915   0.485   6.050  0.00  0.00    +0.041 C 
ATOM     79  C   UNK    1      -13.777  -0.663   6.548  0.00  0.00    +0.098 C 
ATOM     80  C   UNK    1      -13.920  -1.627   5.371  0.00  0.00    +0.214 C 
ATOM     81  O   UNK    1      -14.403  -2.756   5.412  0.00  0.00    -0.276 OA
ATOM     82  N   UNK    1      -13.412  -0.989   4.301  0.00  0.00    -0.304 N 
ATOM     83  H   UNK    1      -13.467  -1.372   3.369  0.00  0.00    +0.149 HD
ENDBRANCH  75  77
ENDBRANCH  72  73
BRANCH  72  84
ATOM     84  C   UNK    1      -10.024   4.101   3.497  0.00  0.00    +0.088 C 
BRANCH  84  85
ATOM     85  C   UNK    1       -8.763   4.716   2.937  0.00  0.00    +0.061 A 
ATOM     86  C   UNK    1       -7.701   5.277   3.616  0.00  0.00    +0.107 A 
ATOM     87  N   UNK    1       -6.779   5.651   2.654  0.00  0.00    -0.351 N 
ATOM     88  H   UNK    1       -5.880   6.080   2.818  0.00  0.00    +0.166 HD
ATOM     89  C   UNK    1       -7.298   5.325   1.470  0.00  0.00    +0.196 A 
ATOM     90  N   UNK    1       -8.494   4.759   1.564  0.00  0.00    -0.241 NA
ENDBRANCH  84  85
ENDBRANCH  72  84
ENDBRANCH  70  72
ENDBRANCH  67  68
BRANCH  67  91
ATOM     91  C   UNK    1       -6.478  -0.334   4.682  0.00  0.00    +0.069 C 
BRANCH  91  92
ATOM     92  C   UNK    1       -7.719  -1.143   4.942  0.00  0.00    -0.020 A 
ATOM     93  C   UNK    1       -8.374  -1.890   4.025  0.00  0.00    +0.087 A 
ATOM     94  N   UNK    1       -9.486  -2.466   4.601  0.00  0.00    -0.360 N 
ATOM     95  H   UNK    1      -10.121  -3.058   4.085  0.00  0.00    +0.165 HD
ATOM     96  C   UNK    1       -9.615  -2.112   5.926  0.00  0.00    +0.047 A 
ATOM     97  C   UNK    1      -10.562  -2.422   6.917  0.00  0.00    +0.026 A 
ATOM     98  C   UNK    1      -10.411  -1.876   8.205  0.00  0.00    +0.002 A 
ATOM     99  C   UNK    1       -9.317  -1.035   8.486  0.00  0.00    +0.001 A 
ATOM    100  C   UNK    1       -8.370  -0.736   7.484  0.00  0.00    +0.010 A 
ATOM    101  C   UNK    1       -8.492  -1.264   6.177  0.00  0.00    +0.003 A 
ENDBRANCH  91  92
ENDBRANCH  67  91
ENDBRANCH  65  67
ENDBRANCH  62  63
BRANCH  62 102
ATOM    102  C   UNK    1       -2.047   2.189   6.107  0.00  0.00    +0.187 C 
BRANCH 102 103
ATOM    103  O   UNK    1       -2.427   3.290   6.905  0.00  0.00    -0.393 OA
ATOM    104  H   UNK    1       -1.883   3.298   7.697  0.00  0.00    +0.209 HD
ENDBRANCH 102 103
ENDBRANCH  62 102
ENDBRANCH  60  62
ENDBRANCH   1  58
BRANCH   1 105
ATOM    105  C   UNK    1       -3.150   1.092   0.106  0.00  0.00    +0.067 C 
BRANCH 105 106
ATOM    106  C   UNK    1       -4.616   0.770   0.351  0.00  0.00    -0.045 A 
ATOM    107  C   UNK    1       -5.573   1.805   0.404  0.00  0.00    +0.007 A 
ATOM    108  C   UNK    1       -6.929   1.506   0.641  0.00  0.00    +0.045 A 
ATOM    109  C   UNK    1       -7.335   0.170   0.824  0.00  0.00    +0.117 A 
ATOM    110  C   UNK    1       -6.384  -0.867   0.764  0.00  0.00    +0.045 A 
ATOM    111  C   UNK    1       -5.028  -0.568   0.528  0.00  0.00    +0.007 A 
BRANCH 109 112
ATOM    112  O   UNK    1       -8.647  -0.120   1.058  0.00  0.00    -0.507 OA
ATOM    113  H   UNK    1       -9.212   0.656   1.071  0.00  0.00    +0.292 HD
ENDBRANCH 109 112
ENDBRANCH 105 106
ENDBRANCH   1 105
TORSDOF 38
