REMARK  Name = DB06742
REMARK                            x       y       z     vdW  Elec       q    Type
REMARK                         _______ _______ _______ _____ _____    ______ ____
ROOT
ATOM      1  C   LIG    1       -1.014   2.027  -1.158  0.00  0.00    +0.043 A 
ATOM      2  C   LIG    1       -0.425   1.470  -0.006  0.00  0.00    -0.011 A 
ATOM      3  C   LIG    1       -0.295   2.251   1.147  0.00  0.00    +0.022 A 
ATOM      4  C   LIG    1       -0.746   3.569   1.165  0.00  0.00    +0.019 A 
ATOM      5 BR   LIG    1       -0.562   4.618   2.743  0.00  0.00    -0.050 Br
ATOM      6  C   LIG    1       -1.331   4.119   0.027  0.00  0.00    +0.032 A 
ATOM      7  C   LIG    1       -1.467   3.356  -1.133  0.00  0.00    +0.040 A 
ATOM      8 BR   LIG    1       -2.276   4.168  -2.660  0.00  0.00    -0.048 Br
ENDROOT
BRANCH   1   9
ATOM      9  N   LIG    1       -1.151   1.272  -2.328  0.00  0.00    -0.357 N 
ATOM     10  H   LIG    1       -1.704   1.656  -3.080  0.00  0.00    +0.142 HD
ATOM     11  H   LIG    1       -0.969   0.280  -2.284  0.00  0.00    +0.142 HD
ENDBRANCH   1   9
BRANCH   2  12
ATOM     12  C   LIG    1        0.085   0.032   0.034  0.00  0.00    +0.118 C 
BRANCH  12  13
ATOM     13  N   LIG    1        1.455  -0.030  -0.461  0.00  0.00    -0.309 NA
ATOM     14  H   LIG    1        1.475   0.259  -1.428  0.00  0.00    +0.123 HD
BRANCH  13  15
ATOM     15  C   LIG    1        2.045  -1.363  -0.363  0.00  0.00    +0.054 C 
ATOM     16  C   LIG    1        3.319  -1.471  -1.230  0.00  0.00    +0.021 C 
ATOM     17  C   LIG    1        3.921  -2.891  -1.219  0.00  0.00    +0.033 C 
ATOM     18  C   LIG    1        4.187  -3.410   0.210  0.00  0.00    +0.115 C 
ATOM     19  C   LIG    1        2.967  -3.232   1.139  0.00  0.00    +0.033 C 
ATOM     20  C   LIG    1        2.381  -1.807   1.084  0.00  0.00    +0.021 C 
BRANCH  18  21
ATOM     21  O   LIG    1        4.601  -4.761   0.184  0.00  0.00    -0.392 OA
ATOM     22  H   LIG    1        5.478  -4.819   0.572  0.00  0.00    +0.210 HD
ENDBRANCH  18  21
ENDBRANCH  13  15
ENDBRANCH  12  13
ENDBRANCH   2  12
TORSDOF 5
