REMARK  Name = DB06515
REMARK                            x       y       z     vdW  Elec       q    Type
REMARK                         _______ _______ _______ _____ _____    ______ ____
ROOT
ATOM      1  C   LIG    1        5.677   1.613  -3.103  0.00  0.00    +0.123 C 
ATOM      2  O   LIG    1        5.731   2.977  -2.690  0.00  0.00    -0.313 OA
ATOM      3  C   LIG    1        4.518   3.249  -2.082  0.00  0.00    +0.291 C 
ATOM      4  O   LIG    1        4.461   2.849  -0.724  0.00  0.00    -0.318 OA
ATOM      5  C   LIG    1        4.645   1.440  -0.448  0.00  0.00    +0.096 C 
ATOM      6  C   LIG    1        4.065   1.205   0.992  0.00  0.00    +0.085 C 
ATOM      7  C   LIG    1        3.678  -0.237   1.375  0.00  0.00    +0.140 C 
ATOM      8  C   LIG    1        4.042  -0.351   2.861  0.00  0.00    +0.191 C 
ATOM      9  O   LIG    1        3.801  -1.283   3.631  0.00  0.00    -0.289 OA
ATOM     10  C   LIG    1        4.771   0.862   3.230  0.00  0.00    -0.009 C 
ATOM     11  C   LIG    1        5.312   0.995   4.643  0.00  0.00    +0.047 C 
ATOM     12  C   LIG    1        2.183  -0.512   1.050  0.00  0.00    +0.077 C 
ATOM     13  C   LIG    1        1.620   0.031  -0.273  0.00  0.00    -0.033 C 
ATOM     14  C   LIG    1        2.318   0.528  -1.324  0.00  0.00    -0.015 C 
ATOM     15  C   LIG    1        4.793   1.727   2.203  0.00  0.00    -0.011 C 
ATOM     16  C   LIG    1        3.839   0.614  -1.525  0.00  0.00    +0.077 C 
ATOM     17  C   LIG    1        6.182   1.057  -0.588  0.00  0.00    +0.023 C 
ATOM     18  C   LIG    1        7.135   2.086   0.074  0.00  0.00    +0.010 C 
ATOM     19  O   LIG    1        3.611   2.548  -2.858  0.00  0.00    -0.319 OA
ATOM     20  C   LIG    1        4.170   1.254  -2.898  0.00  0.00    +0.170 C 
ATOM     21  C   LIG    1        6.603   0.894  -2.084  0.00  0.00    +0.048 C 
ENDROOT
BRANCH   1  23
ATOM     22  C   LIG    1        7.032   0.609  -5.019  0.00  0.00    +0.010 C 
ATOM     23  C   LIG    1        6.119   1.494  -4.574  0.00  0.00    -0.046 C 
ATOM     24  C   LIG    1        5.450   2.461  -5.543  0.00  0.00    +0.041 C 
ENDBRANCH   1  23
BRANCH   7  25
ATOM     25  O   LIG    1        4.396  -1.296   0.758  0.00  0.00    -0.380 OA
ATOM     26  H   LIG    1        5.332  -1.168   0.927  0.00  0.00    +0.211 HD
ENDBRANCH   7  25
BRANCH  13  27
ATOM     27  C   LIG    1        0.103   0.067  -0.383  0.00  0.00    +0.263 C 
BRANCH  27  28
ATOM     28  O   LIG    1       -0.423   1.079   0.466  0.00  0.00    -0.460 OA
BRANCH  28  29
ATOM     29  C   LIG    1       -1.751   1.285   0.553  0.00  0.00    +0.312 C 
ATOM     30  O   LIG    1       -2.619   0.635  -0.038  0.00  0.00    -0.250 OA
BRANCH  29  31
ATOM     31  C   LIG    1       -2.075   2.461   1.488  0.00  0.00    +0.155 C 
BRANCH  31  32
ATOM     32  C   LIG    1       -3.573   2.614   1.732  0.00  0.00    -0.033 A 
ATOM     33  C   LIG    1       -4.163   2.036   2.860  0.00  0.00    +0.053 A 
ATOM     34  C   LIG    1       -5.543   2.166   3.099  0.00  0.00    +0.162 A 
ATOM     35  C   LIG    1       -6.318   2.889   2.181  0.00  0.00    +0.158 A 
ATOM     36  C   LIG    1       -5.729   3.470   1.057  0.00  0.00    +0.049 A 
ATOM     37  C   LIG    1       -4.361   3.337   0.834  0.00  0.00    +0.008 A 
BRANCH  34  38
ATOM     38  O   LIG    1       -6.191   1.619   4.194  0.00  0.00    -0.491 OA
ATOM     39  C   LIG    1       -5.439   0.894   5.161  0.00  0.00    +0.277 C 
ENDBRANCH  34  38
BRANCH  35  40
ATOM     40  O   LIG    1       -7.668   3.039   2.372  0.00  0.00    -0.503 OA
ATOM     41  H   LIG    1       -8.090   3.550   1.677  0.00  0.00    +0.292 HD
ENDBRANCH  35  40
ENDBRANCH  31  32
ENDBRANCH  29  31
ENDBRANCH  28  29
ENDBRANCH  27  28
ENDBRANCH  13  27
BRANCH   3  42
ATOM     42  C   LIG    1        4.212   4.743  -2.125  0.00  0.00    +0.133 C 
BRANCH  42  43
ATOM     43  C   LIG    1        2.830   5.097  -1.583  0.00  0.00    -0.040 A 
ATOM     44  C   LIG    1        2.648   5.293  -0.211  0.00  0.00    +0.004 A 
ATOM     45  C   LIG    1        1.378   5.570   0.289  0.00  0.00    +0.000 A 
ATOM     46  C   LIG    1        0.296   5.654  -0.584  0.00  0.00    +0.000 A 
ATOM     47  C   LIG    1        0.472   5.467  -1.953  0.00  0.00    +0.000 A 
ATOM     48  C   LIG    1        1.740   5.187  -2.454  0.00  0.00    +0.004 A 
ENDBRANCH  42  43
ENDBRANCH   3  42
TORSDOF 11
