REMARK  Name = DB06137
REMARK                            x       y       z     vdW  Elec       q    Type
REMARK                         _______ _______ _______ _____ _____    ______ ____
ROOT
ATOM      1  C   LIG    1       -2.590  -0.607   0.371  0.00  0.00    +0.050 A 
ATOM      2  N   LIG    1       -1.999   0.556   0.758  0.00  0.00    -0.259 NA
ATOM      3  C   LIG    1       -0.650   0.655   0.644  0.00  0.00    +0.119 A 
ATOM      4  C   LIG    1        0.167  -0.370   0.142  0.00  0.00    +0.000 A 
ATOM      5  C   LIG    1       -0.474  -1.553  -0.257  0.00  0.00    +0.012 A 
ATOM      6  C   LIG    1       -1.860  -1.678  -0.150  0.00  0.00    +0.024 A 
ENDROOT
BRANCH   4   7
ATOM      7  C   LIG    1        1.647  -0.208   0.036  0.00  0.00    -0.016 A 
ATOM      8  C   LIG    1        2.211   1.031  -0.291  0.00  0.00    +0.012 A 
ATOM      9  C   LIG    1        3.591   1.181  -0.400  0.00  0.00    +0.046 A 
ATOM     10  C   LIG    1        4.440   0.087  -0.177  0.00  0.00    +0.121 A 
ATOM     11  C   LIG    1        3.882  -1.147   0.154  0.00  0.00    +0.046 A 
ATOM     12  C   LIG    1        2.502  -1.294   0.259  0.00  0.00    +0.012 A 
BRANCH  10  13
ATOM     13  O   LIG    1        5.817   0.136  -0.264  0.00  0.00    -0.491 OA
BRANCH  13  14
ATOM     14  C   LIG    1        6.456   1.363  -0.610  0.00  0.00    +0.244 C 
BRANCH  14  15
ATOM     15  C   LIG    1        7.986   1.168  -0.629  0.00  0.00    +0.125 C 
BRANCH  15  16
ATOM     16  N   LIG    1        8.537   0.674   0.639  0.00  0.00    -0.295 NA
ATOM     17  C   LIG    1        9.938   0.268   0.468  0.00  0.00    +0.112 C 
ATOM     18  C   LIG    1       10.558  -0.211   1.798  0.00  0.00    +0.175 C 
ATOM     19  O   LIG    1       10.411   0.795   2.793  0.00  0.00    -0.377 OA
ATOM     20  C   LIG    1        9.046   1.109   3.043  0.00  0.00    +0.175 C 
ATOM     21  C   LIG    1        8.369   1.621   1.753  0.00  0.00    +0.112 C 
ENDBRANCH  15  16
ENDBRANCH  14  15
ENDBRANCH  13  14
ENDBRANCH  10  13
ENDBRANCH   4   7
BRANCH   1  22
ATOM     22  C   LIG    1       -4.110  -0.684   0.495  0.00  0.00    +0.151 C 
BRANCH  22  25
ATOM     23  N   LIG    1       -5.303   0.584   2.228  0.00  0.00    -0.311 N 
ATOM     24  H   LIG    1       -5.475   1.247   1.487  0.00  0.00    +0.149 HD
ATOM     25  C   LIG    1       -4.591  -0.523   1.946  0.00  0.00    +0.219 C 
ATOM     26  O   LIG    1       -4.308  -1.382   2.782  0.00  0.00    -0.275 OA
BRANCH  23  27
ATOM     27  C   LIG    1       -5.794   0.957   3.555  0.00  0.00    +0.139 C 
BRANCH  27  31
ATOM     28  C   LIG    1       -2.706   1.913   6.399  0.00  0.00    +0.000 A 
ATOM     29  C   LIG    1       -2.947   2.771   5.328  0.00  0.00    +0.000 A 
ATOM     30  C   LIG    1       -3.946   2.461   4.408  0.00  0.00    +0.005 A 
ATOM     31  C   LIG    1       -4.693   1.289   4.557  0.00  0.00    -0.030 A 
ATOM     32  C   LIG    1       -4.453   0.438   5.641  0.00  0.00    +0.005 A 
ATOM     33  C   LIG    1       -3.455   0.750   6.561  0.00  0.00    +0.000 A 
ENDBRANCH  27  31
ENDBRANCH  23  27
ENDBRANCH  22  25
ENDBRANCH   1  22
TORSDOF 9
