REMARK  Name = DB06237
REMARK                            x       y       z     vdW  Elec       q    Type
REMARK                         _______ _______ _______ _____ _____    ______ ____
ROOT
ATOM      1  C   LIG    1       -0.609  -1.568  -0.667  0.00  0.00    +0.094 A 
ATOM      2  C   LIG    1       -1.968  -1.470  -1.009  0.00  0.00    +0.131 A 
ATOM      3  N   LIG    1       -2.629  -0.290  -1.103  0.00  0.00    -0.222 NA
ATOM      4  C   LIG    1       -1.915   0.835  -0.840  0.00  0.00    +0.220 A 
ATOM      5  N   LIG    1       -0.600   0.844  -0.507  0.00  0.00    -0.199 NA
ATOM      6  C   LIG    1        0.060  -0.345  -0.416  0.00  0.00    +0.136 A 
ENDROOT
BRANCH   4   7
ATOM      7  N   LIG    1       -2.549   2.082  -0.991  0.00  0.00    -0.294 N 
ATOM      8  C   LIG    1       -3.981   2.312  -1.249  0.00  0.00    +0.102 C 
ATOM      9  C   LIG    1       -4.298   3.782  -0.934  0.00  0.00    +0.026 C 
ATOM     10  C   LIG    1       -3.196   4.153   0.032  0.00  0.00    +0.021 C 
ATOM     11  C   LIG    1       -2.009   3.356  -0.498  0.00  0.00    +0.108 C 
BRANCH   8  12
ATOM     12  C   LIG    1       -4.464   1.900  -2.660  0.00  0.00    +0.178 C 
BRANCH  12  13
ATOM     13  O   LIG    1       -5.870   2.006  -2.767  0.00  0.00    -0.393 OA
ATOM     14  H   LIG    1       -6.132   1.719  -3.644  0.00  0.00    +0.209 HD
ENDBRANCH  12  13
ENDBRANCH   8  12
ENDBRANCH   4   7
BRANCH   1  17
ATOM     15  N   LIG    1       -0.697  -3.934  -0.140  0.00  0.00    -0.304 N 
ATOM     16  H   LIG    1       -1.667  -3.749   0.069  0.00  0.00    +0.149 HD
ATOM     17  C   LIG    1        0.066  -2.923  -0.601  0.00  0.00    +0.249 C 
ATOM     18  O   LIG    1        1.243  -3.068  -0.934  0.00  0.00    -0.270 OA
BRANCH  15  19
ATOM     19  C   LIG    1       -0.264  -5.331  -0.023  0.00  0.00    +0.180 C 
BRANCH  19  23
ATOM     20  C   LIG    1        0.071  -7.632  -3.574  0.00  0.00    +0.039 A 
ATOM     21  C   LIG    1        0.525  -8.098  -2.338  0.00  0.00    +0.114 A 
ATOM     22  N   LIG    1        0.417  -7.367  -1.197  0.00  0.00    -0.239 NA
ATOM     23  C   LIG    1       -0.162  -6.142  -1.318  0.00  0.00    +0.146 A 
ATOM     24  N   LIG    1       -0.637  -5.600  -2.475  0.00  0.00    -0.239 NA
ATOM     25  C   LIG    1       -0.510  -6.361  -3.593  0.00  0.00    +0.114 A 
ENDBRANCH  19  23
ENDBRANCH  15  19
ENDBRANCH   1  17
BRANCH   6  26
ATOM     26  N   LIG    1        1.426  -0.309  -0.059  0.00  0.00    -0.324 N 
ATOM     27  H   LIG    1        1.887  -1.189   0.122  0.00  0.00    +0.148 HD
BRANCH  26  28
ATOM     28  C   LIG    1        2.106   0.918   0.361  0.00  0.00    +0.138 C 
BRANCH  28  29
ATOM     29  C   LIG    1        2.318   1.887  -0.798  0.00  0.00    -0.029 A 
ATOM     30  C   LIG    1        3.015   1.492  -1.943  0.00  0.00    +0.009 A 
ATOM     31  C   LIG    1        3.185   2.380  -3.004  0.00  0.00    +0.047 A 
ATOM     32  C   LIG    1        2.660   3.683  -2.942  0.00  0.00    +0.138 A 
ATOM     33  C   LIG    1        1.969   4.073  -1.786  0.00  0.00    +0.083 A 
ATOM     34 CL   LIG    1        1.293   5.659  -1.655  0.00  0.00    -0.080 Cl
ATOM     35  C   LIG    1        1.808   3.185  -0.722  0.00  0.00    +0.028 A 
BRANCH  32  36
ATOM     36  O   LIG    1        2.781   4.612  -3.960  0.00  0.00    -0.494 OA
ATOM     37  C   LIG    1        3.469   4.254  -5.154  0.00  0.00    +0.277 C 
ENDBRANCH  32  36
ENDBRANCH  28  29
ENDBRANCH  26  28
ENDBRANCH   6  26
TORSDOF 10
