REMARK  Name = DB06738
REMARK                            x       y       z     vdW  Elec       q    Type
REMARK                         _______ _______ _______ _____ _____    ______ ____
ROOT
ATOM      1  C   LIG    1       -0.190  -2.332   1.334  0.00  0.00    -0.078 C 
ATOM      2  N   LIG    1       -0.889  -2.947   0.102  0.00  0.00    +0.378 N 
ATOM      3  H   LIG    1       -1.880  -2.769   0.187  0.00  0.00    -0.082 HD
ATOM      4  C   LIG    1       -0.658  -4.471   0.066  0.00  0.00    -0.096 C 
ATOM      5  C   LIG    1       -0.402  -2.304  -1.215  0.00  0.00    -0.078 C 
ATOM      6  C   LIG    1       -0.639  -0.777  -1.158  0.00  0.00    +0.000 C 
ATOM      7  C   LIG    1        0.003  -0.053   0.075  0.00  0.00    +0.051 C 
ATOM      8  C   LIG    1       -0.485  -0.819   1.351  0.00  0.00    +0.000 C 
ENDROOT
BRANCH   7   9
ATOM      9  C   LIG    1       -0.441   1.440   0.044  0.00  0.00    -0.031 A 
ATOM     10  C   LIG    1       -1.245   2.007   1.050  0.00  0.00    +0.005 A 
ATOM     11  C   LIG    1       -1.640   3.343   0.991  0.00  0.00    +0.004 A 
ATOM     12  C   LIG    1       -1.244   4.143  -0.078  0.00  0.00    +0.045 A 
ATOM     13  C   LIG    1       -0.455   3.604  -1.091  0.00  0.00    +0.117 A 
ATOM     14  C   LIG    1       -0.062   2.267  -1.030  0.00  0.00    +0.050 A 
BRANCH  13  15
ATOM     15  O   LIG    1       -0.065   4.385  -2.147  0.00  0.00    -0.507 OA
ATOM     16  H   LIG    1       -0.388   5.287  -2.085  0.00  0.00    +0.292 HD
ENDBRANCH  13  15
ENDBRANCH   7   9
BRANCH   7  17
ATOM     17  C   LIG    1        1.566  -0.064   0.016  0.00  0.00    +0.143 C 
ATOM     18  O   LIG    1        2.173  -0.480  -0.974  0.00  0.00    -0.296 OA
BRANCH  17  19
ATOM     19  C   LIG    1        2.330   0.481   1.238  0.00  0.00    +0.072 C 
ATOM     20  C   LIG    1        3.848   0.629   1.031  0.00  0.00    +0.012 C 
ENDBRANCH  17  19
ENDBRANCH   7  17
TORSDOF 4
