REMARK  Name = DB06782
REMARK                            x       y       z     vdW  Elec       q    Type
REMARK                         _______ _______ _______ _____ _____    ______ ____
ROOT
ATOM      1  C   LIG    1        1.498   0.009   0.068  0.00  0.00    +0.078 C 
ENDROOT
BRANCH   1   2
ATOM      2  S   LIG    1        2.077   0.843   1.587  0.00  0.00    -0.172 S 
ATOM      3  H   LIG    1        1.475   0.013   2.443  0.00  0.00    +0.102 HD
ENDBRANCH   1   2
BRANCH   1   4
ATOM      4  C   LIG    1       -0.045   0.055   0.017  0.00  0.00    +0.170 C 
BRANCH   4   5
ATOM      5  O   LIG    1       -0.525   1.373  -0.162  0.00  0.00    -0.394 OA
ATOM      6  H   LIG    1       -1.484   1.348  -0.200  0.00  0.00    +0.209 HD
ENDBRANCH   4   5
ENDBRANCH   1   4
BRANCH   1   7
ATOM      7  C   LIG    1        2.037  -1.439   0.017  0.00  0.00    +0.081 C 
BRANCH   7   8
ATOM      8  S   LIG    1        3.845  -1.494  -0.172  0.00  0.00    -0.177 S 
ATOM      9  H   LIG    1        3.946  -2.827  -0.175  0.00  0.00    +0.102 HD
ENDBRANCH   7   8
ENDBRANCH   1   7
TORSDOF 5
