REMARK  Name = DB06595
REMARK                            x       y       z     vdW  Elec       q    Type
REMARK                         _______ _______ _______ _____ _____    ______ ____
ROOT
ATOM      1  C   LIG    1        4.603  -3.504  -0.530  0.00  0.00    -0.008 A 
ATOM      2  C   LIG    1        4.547  -3.575   0.857  0.00  0.00    +0.052 A 
ATOM      3  C   LIG    1        5.914  -3.934   1.366  0.00  0.00    +0.245 C 
ATOM      4  O   LIG    1        6.304  -4.096   2.518  0.00  0.00    -0.270 OA
ATOM      5  N   LIG    1        6.675  -4.046   0.265  0.00  0.00    -0.307 N 
ATOM      6  H   LIG    1        7.657  -4.280   0.299  0.00  0.00    +0.149 HD
ATOM      7  C   LIG    1        3.338  -3.298   1.539  0.00  0.00    +0.022 A 
ATOM      8  C   LIG    1        2.928  -3.238   2.892  0.00  0.00    +0.008 A 
ATOM      9  C   LIG    1        3.585  -3.450   4.118  0.00  0.00    +0.010 A 
ATOM     10  C   LIG    1        2.876  -3.298   5.306  0.00  0.00    +0.001 A 
ATOM     11  C   LIG    1        1.534  -2.940   5.300  0.00  0.00    +0.002 A 
ATOM     12  C   LIG    1        0.841  -2.720   4.112  0.00  0.00    +0.026 A 
ATOM     13  C   LIG    1        1.547  -2.874   2.909  0.00  0.00    +0.052 A 
ATOM     14  N   LIG    1        1.118  -2.726   1.596  0.00  0.00    -0.311 N 
ATOM     15  C   LIG    1       -0.220  -2.390   1.170  0.00  0.00    +0.224 C 
ATOM     16  C   LIG    1       -0.545  -0.886   1.167  0.00  0.00    +0.080 C 
ATOM     17  C   LIG    1       -0.009  -0.115  -0.079  0.00  0.00    +0.114 C 
ATOM     18  C   LIG    1       -0.603  -0.954  -1.273  0.00  0.00    +0.191 C 
ATOM     19  C   LIG    1       -0.195  -2.455  -1.254  0.00  0.00    +0.174 C 
ATOM     20  C   LIG    1       -1.087  -3.256  -2.223  0.00  0.00    +0.069 C 
ATOM     21  N   LIG    1        1.238  -2.655  -1.555  0.00  0.00    -0.307 N 
ATOM     22  C   LIG    1        1.866  -2.602  -2.813  0.00  0.00    +0.053 A 
ATOM     23  C   LIG    1        3.240  -2.953  -2.644  0.00  0.00    +0.008 A 
ATOM     24  C   LIG    1        4.096  -3.017  -3.756  0.00  0.00    +0.010 A 
ATOM     25  C   LIG    1        3.587  -2.715  -5.013  0.00  0.00    +0.001 A 
ATOM     26  C   LIG    1        2.257  -2.350  -5.173  0.00  0.00    +0.002 A 
ATOM     27  C   LIG    1        1.376  -2.284  -4.095  0.00  0.00    +0.026 A 
ATOM     28  C   LIG    1        2.247  -2.922  -0.627  0.00  0.00    +0.077 A 
ATOM     29  O   LIG    1       -0.560  -3.040  -0.021  0.00  0.00    -0.328 OA
ATOM     30  C   LIG    1        2.196  -2.975   0.769  0.00  0.00    +0.077 A 
ATOM     31  C   LIG    1        5.996  -3.801  -0.993  0.00  0.00    +0.141 C 
ATOM     32  C   LIG    1        3.467  -3.161  -1.281  0.00  0.00    +0.015 A 
ENDROOT
BRANCH  17  33
ATOM     33  N   LIG    1        1.448   0.260  -0.009  0.00  0.00    -0.295 N 
ATOM     34  C   LIG    1        2.249   0.553  -1.080  0.00  0.00    +0.247 C 
ATOM     35  O   LIG    1        1.784   0.822  -2.186  0.00  0.00    -0.270 OA
ATOM     36  C   LIG    1        1.870   0.703   1.333  0.00  0.00    +0.132 C 
BRANCH  34  37
ATOM     37  C   LIG    1        3.771   0.544  -0.952  0.00  0.00    +0.037 A 
ATOM     38  C   LIG    1        4.442  -0.164   0.058  0.00  0.00    +0.013 A 
ATOM     39  C   LIG    1        5.832  -0.180   0.122  0.00  0.00    +0.001 A 
ATOM     40  C   LIG    1        6.575   0.505  -0.833  0.00  0.00    +0.000 A 
ATOM     41  C   LIG    1        5.936   1.204  -1.852  0.00  0.00    +0.001 A 
ATOM     42  C   LIG    1        4.545   1.220  -1.911  0.00  0.00    +0.013 A 
ENDBRANCH  34  37
ENDBRANCH  17  33
BRANCH  18  43
ATOM     43  O   LIG    1       -0.491  -0.378  -2.573  0.00  0.00    -0.373 OA
ATOM     44  C   LIG    1       -1.252   0.803  -2.798  0.00  0.00    +0.194 C 
ENDBRANCH  18  43
TORSDOF 3
