REMARK  Name = DB06117
REMARK                            x       y       z     vdW  Elec       q    Type
REMARK                         _______ _______ _______ _____ _____    ______ ____
ROOT
ATOM      1  C   LIG    1       -0.740  -0.728   0.792  0.00  0.00    +0.002 C 
ATOM      2  C   LIG    1       -2.300  -0.695   0.932  0.00  0.00    -0.022 C 
ATOM      3  C   LIG    1       -2.896   0.630   0.361  0.00  0.00    +0.012 C 
ATOM      4  C   LIG    1       -3.030  -1.942   0.355  0.00  0.00    +0.008 C 
ATOM      5  C   LIG    1       -4.514  -1.982   0.784  0.00  0.00    +0.005 C 
ATOM      6  C   LIG    1       -4.696  -1.903   2.320  0.00  0.00    +0.031 C 
ATOM      7  C   LIG    1       -3.896  -0.734   2.923  0.00  0.00    -0.066 C 
ATOM      8  C   LIG    1       -4.392   0.225   3.739  0.00  0.00    -0.000 C 
ATOM      9  C   LIG    1       -2.427  -0.793   2.476  0.00  0.00    +0.021 C 
ATOM     10  C   LIG    1       -1.386   0.191   3.017  0.00  0.00    +0.009 C 
ATOM     11  C   LIG    1       -0.219   0.061   2.028  0.00  0.00    +0.005 C 
ENDROOT
BRANCH   8  12
ATOM     12  C   LIG    1       -5.770   0.338   4.204  0.00  0.00    +0.004 C 
ATOM     13  C   LIG    1       -6.254   1.281   5.048  0.00  0.00    -0.040 C 
ATOM     14  C   LIG    1       -5.446   2.333   5.670  0.00  0.00    -0.023 C 
ATOM     15  C   LIG    1       -4.357   2.051   6.412  0.00  0.00    +0.015 C 
ATOM     16  C   LIG    1       -5.941   3.766   5.484  0.00  0.00    +0.147 C 
ATOM     17  C   LIG    1       -7.441   3.835   5.867  0.00  0.00    +0.067 C 
ATOM     18  C   LIG    1       -8.299   2.738   5.186  0.00  0.00    +0.122 C 
ATOM     19  C   LIG    1       -7.736   1.315   5.416  0.00  0.00    +0.067 C 
BRANCH  16  20
ATOM     20  O   LIG    1       -5.740   4.183   4.147  0.00  0.00    -0.387 OA
ATOM     21  H   LIG    1       -4.796   4.269   3.993  0.00  0.00    +0.210 HD
ENDBRANCH  16  20
BRANCH  18  22
ATOM     22  O   LIG    1       -9.644   2.818   5.613  0.00  0.00    -0.391 OA
ATOM     23  H   LIG    1       -9.674   2.654   6.558  0.00  0.00    +0.210 HD
ENDBRANCH  18  22
ENDBRANCH   8  12
BRANCH   1  25
ATOM     24  C   LIG    1       -0.588  -1.024  -1.788  0.00  0.00    +0.012 C 
ATOM     25  C   LIG    1       -0.098  -0.248  -0.550  0.00  0.00    +0.012 C 
BRANCH  25  26
ATOM     26  C   LIG    1        1.423  -0.307  -0.484  0.00  0.00    -0.025 C 
ATOM     27  C   LIG    1        2.244   0.754  -0.621  0.00  0.00    +0.003 C 
BRANCH  27  28
ATOM     28  C   LIG    1        3.777   0.770  -0.566  0.00  0.00    +0.084 C 
ATOM     29  C   LIG    1        4.225   1.641   0.630  0.00  0.00    +0.046 C 
BRANCH  28  30
ATOM     30  C   LIG    1        4.389   1.265  -1.922  0.00  0.00    +0.018 C 
ATOM     31  C   LIG    1        5.933   1.372  -1.924  0.00  0.00    +0.010 C 
ATOM     32  C   LIG    1        3.927   0.434  -3.143  0.00  0.00    +0.010 C 
ENDBRANCH  28  30
BRANCH  28  33
ATOM     33  O   LIG    1        4.258  -0.540  -0.298  0.00  0.00    -0.385 OA
ATOM     34  H   LIG    1        5.216  -0.509  -0.262  0.00  0.00    +0.211 HD
ENDBRANCH  28  33
ENDBRANCH  27  28
ENDBRANCH  25  26
ENDBRANCH   1  25
TORSDOF 8
