REMARK  Name = DB06061
REMARK                            x       y       z     vdW  Elec       q    Type
REMARK                         _______ _______ _______ _____ _____    ______ ____
ROOT
ATOM      1  C   LIG    1       -0.734   1.195   0.010  0.00  0.00    +0.118 A 
ATOM      2  N   LIG    1       -2.132   1.232  -0.117  0.00  0.00    -0.299 N 
ATOM      3  C   LIG    1       -2.897   2.466  -0.431  0.00  0.00    +0.154 C 
ATOM      4  C   LIG    1       -2.908   0.092   0.030  0.00  0.00    +0.255 A 
ATOM      5  O   LIG    1       -4.137   0.069  -0.099  0.00  0.00    -0.267 OA
ATOM      6  C   LIG    1       -2.181  -1.141   0.358  0.00  0.00    +0.015 A 
ATOM      7  C   LIG    1       -3.011  -2.410   0.537  0.00  0.00    +0.049 C 
ATOM      8  C   LIG    1       -0.839  -1.152   0.501  0.00  0.00    +0.025 A 
ATOM      9  C   LIG    1       -0.044   0.057   0.331  0.00  0.00    +0.077 A 
ENDROOT
BRANCH   9  10
ATOM     10  C   LIG    1        1.394  -0.007   0.547  0.00  0.00    +0.270 C 
ATOM     11  N   LIG    1        2.005  -1.028  -0.088  0.00  0.00    -0.190 N 
ATOM     12  H   LIG    1        1.599  -1.493  -0.887  0.00  0.00    +0.183 HD
ATOM     13  O   LIG    1        1.984   0.805   1.264  0.00  0.00    -0.268 OA
BRANCH  11  14
ATOM     14  O   LIG    1        3.399  -1.052  -0.128  0.00  0.00    -0.277 OA
BRANCH  14  15
ATOM     15  C   LIG    1        3.893  -2.086   0.719  0.00  0.00    +0.218 C 
BRANCH  15  16
ATOM     16  C   LIG    1        5.431  -2.107   0.703  0.00  0.00    +0.186 C 
BRANCH  16  17
ATOM     17  O   LIG    1        5.965  -0.979   1.367  0.00  0.00    -0.393 OA
ATOM     18  H   LIG    1        6.923  -1.017   1.316  0.00  0.00    +0.209 HD
ENDBRANCH  16  17
ENDBRANCH  15  16
ENDBRANCH  14  15
ENDBRANCH  11  14
ENDBRANCH   9  10
BRANCH   1  19
ATOM     19  N   LIG    1       -0.163   2.444  -0.238  0.00  0.00    -0.298 N 
ATOM     20  H   LIG    1       -0.714   3.266  -0.037  0.00  0.00    +0.154 HD
BRANCH  19  21
ATOM     21  C   LIG    1        0.990   2.737  -0.988  0.00  0.00    +0.068 A 
ATOM     22  C   LIG    1        1.840   3.748  -0.530  0.00  0.00    +0.027 A 
ATOM     23  C   LIG    1        2.986   4.087  -1.249  0.00  0.00    +0.016 A 
ATOM     24  C   LIG    1        3.281   3.428  -2.442  0.00  0.00    +0.016 A 
ATOM     25  I   LIG    1        5.002   3.933  -3.519  0.00  0.00    -0.044 I 
ATOM     26  C   LIG    1        2.426   2.436  -2.920  0.00  0.00    +0.054 A 
ATOM     27  C   LIG    1        1.278   2.094  -2.204  0.00  0.00    +0.145 A 
ATOM     28  F   LIG    1        0.455   1.140  -2.703  0.00  0.00    -0.204 F 
ENDBRANCH  19  21
ENDBRANCH   1  19
TORSDOF 7
