REMARK  Name = DB06397
REMARK                            x       y       z     vdW  Elec       q    Type
REMARK                         _______ _______ _______ _____ _____    ______ ____
ROOT
ATOM      1  C   LIG    1       -0.328   1.810  -0.230  0.00  0.00    +0.029 C 
ATOM      2  C   LIG    1       -0.095   0.314   0.043  0.00  0.00    +0.087 C 
ENDROOT
BRANCH   2   3
ATOM      3  N   LIG    1       -0.520  -0.458  -1.133  0.00  0.00    -0.307 N 
ATOM      4  H   LIG    1       -0.412   0.004  -2.023  0.00  0.00    +0.149 HD
ATOM      5  C   LIG    1       -1.042  -1.702  -1.120  0.00  0.00    +0.246 C 
ATOM      6  O   LIG    1       -1.267  -2.319  -0.076  0.00  0.00    -0.270 OA
BRANCH   5   7
ATOM      7  C   LIG    1       -1.303  -2.340  -2.467  0.00  0.00    +0.055 A 
ATOM      8  C   LIG    1       -1.125  -1.647  -3.678  0.00  0.00    +0.123 A 
ATOM      9  N   LIG    1       -1.346  -2.200  -4.898  0.00  0.00    -0.263 NA
ATOM     10  C   LIG    1       -1.760  -3.491  -4.943  0.00  0.00    +0.111 A 
ATOM     11  C   LIG    1       -1.965  -4.260  -3.798  0.00  0.00    +0.020 A 
ATOM     12  C   LIG    1       -1.733  -3.675  -2.553  0.00  0.00    +0.016 A 
ENDBRANCH   5   7
ENDBRANCH   2   3
BRANCH   2  13
ATOM     13  C   LIG    1        1.373   0.051   0.499  0.00  0.00    +0.126 C 
BRANCH  13  14
ATOM     14  N   LIG    1        1.855  -1.325   0.347  0.00  0.00    -0.310 N 
ATOM     15  H   LIG    1        1.668  -1.951   1.116  0.00  0.00    +0.149 HD
ATOM     16  C   LIG    1        2.503  -1.806  -0.732  0.00  0.00    +0.246 C 
ATOM     17  O   LIG    1        2.838  -1.101  -1.687  0.00  0.00    -0.270 OA
BRANCH  16  18
ATOM     18  C   LIG    1        2.797  -3.287  -0.726  0.00  0.00    +0.055 A 
ATOM     19  C   LIG    1        3.829  -3.813  -1.519  0.00  0.00    +0.123 A 
ATOM     20  N   LIG    1        4.135  -5.134  -1.569  0.00  0.00    -0.263 NA
ATOM     21  C   LIG    1        3.397  -5.984  -0.812  0.00  0.00    +0.111 A 
ATOM     22  C   LIG    1        2.349  -5.558   0.003  0.00  0.00    +0.020 A 
ATOM     23  C   LIG    1        2.048  -4.195   0.043  0.00  0.00    +0.016 A 
ENDBRANCH  16  18
ENDBRANCH  13  14
ENDBRANCH   2  13
TORSDOF 5
