REMARK  Name = DB06587
REMARK                            x       y       z     vdW  Elec       q    Type
REMARK                         _______ _______ _______ _____ _____    ______ ____
ROOT
ATOM      1  C   LIG    1       -1.521  -0.278  -1.814  0.00  0.00    +0.137 C 
ATOM      2  C   LIG    1       -1.474   0.582  -3.101  0.00  0.00    +0.059 C 
ATOM      3  C   LIG    1       -1.217  -1.760  -2.110  0.00  0.00    +0.084 C 
ATOM      4  C   LIG    1       -2.578  -2.401  -2.128  0.00  0.00    -0.031 C 
ATOM      5  C   LIG    1       -2.772  -3.840  -2.558  0.00  0.00    +0.042 C 
ATOM      6  C   LIG    1       -3.462  -1.465  -1.747  0.00  0.00    +0.108 C 
ATOM      7  C   LIG    1       -4.988  -1.480  -1.666  0.00  0.00    +0.120 C 
ATOM      8  C   LIG    1       -5.697  -0.108  -1.614  0.00  0.00    +0.024 C 
ATOM      9  C   LIG    1       -5.598  -2.568  -0.745  0.00  0.00    +0.178 C 
ATOM     10  O   LIG    1       -6.292  -3.432  -1.287  0.00  0.00    -0.293 OA
ATOM     11  C   LIG    1       -5.369  -2.625   0.804  0.00  0.00    +0.161 C 
ATOM     12  C   LIG    1       -3.937  -3.178   1.065  0.00  0.00    +0.054 C 
ATOM     13  C   LIG    1       -5.677  -1.237   1.503  0.00  0.00    +0.215 C 
ATOM     14  O   LIG    1       -4.620  -0.259   1.418  0.00  0.00    -0.458 OA
ATOM     15  C   LIG    1       -3.562  -0.160   2.277  0.00  0.00    +0.313 C 
ATOM     16  O   LIG    1       -3.302  -0.951   3.184  0.00  0.00    -0.250 OA
ATOM     17  C   LIG    1       -2.654   1.070   2.033  0.00  0.00    +0.124 C 
ATOM     18  C   LIG    1       -3.172   2.069   0.971  0.00  0.00    +0.022 C 
ATOM     19  C   LIG    1       -1.132   0.717   1.892  0.00  0.00    +0.140 C 
ATOM     20  C   LIG    1       -0.781  -0.300   0.743  0.00  0.00    +0.048 C 
ATOM     21  C   LIG    1        0.447  -1.189   1.071  0.00  0.00    +0.013 C 
ATOM     22  O   LIG    1       -2.898  -0.273  -1.451  0.00  0.00    -0.487 OA
ATOM     23  C   LIG    1       -0.685   0.379  -0.668  0.00  0.00    +0.170 C 
ENDROOT
BRANCH  11  24
ATOM     24  O   LIG    1       -6.374  -3.550   1.289  0.00  0.00    -0.366 OA
ATOM     25  C   LIG    1       -6.088  -4.509   2.307  0.00  0.00    +0.195 C 
ENDBRANCH  11  24
BRANCH  13  26
ATOM     26  C   LIG    1       -6.339  -1.288   2.917  0.00  0.00    +0.045 C 
ATOM     27  C   LIG    1       -6.804   0.081   3.444  0.00  0.00    +0.007 C 
ENDBRANCH  13  26
BRANCH  19  28
ATOM     28  O   LIG    1       -0.645   0.219   3.148  0.00  0.00    -0.347 OA
BRANCH  28  29
ATOM     29  C   LIG    1       -0.388   1.154   4.163  0.00  0.00    +0.254 C 
ATOM     30  O   LIG    1        0.690   2.005   3.854  0.00  0.00    -0.346 OA
ATOM     31  C   LIG    1        1.974   1.376   3.780  0.00  0.00    +0.149 C 
ATOM     32  C   LIG    1        2.323   0.658   5.107  0.00  0.00    +0.175 C 
ATOM     33  C   LIG    1        1.213  -0.350   5.505  0.00  0.00    +0.099 C 
ATOM     34  C   LIG    1        1.482  -0.936   6.916  0.00  0.00    +0.044 C 
ATOM     35  C   LIG    1        2.987   2.469   3.398  0.00  0.00    +0.041 C 
ATOM     36  C   LIG    1       -0.140   0.408   5.482  0.00  0.00    +0.098 C 
BRANCH  32  37
ATOM     37  O   LIG    1        3.607   0.055   5.065  0.00  0.00    -0.386 OA
ATOM     38  H   LIG    1        3.566  -0.698   4.471  0.00  0.00    +0.210 HD
ENDBRANCH  32  37
BRANCH  33  39
ATOM     39  O   LIG    1        1.253  -1.431   4.554  0.00  0.00    -0.374 OA
ATOM     40  C   LIG    1        0.307  -2.494   4.666  0.00  0.00    +0.194 C 
ENDBRANCH  33  39
ENDBRANCH  28  29
ENDBRANCH  19  28
BRANCH  23  41
ATOM     41  O   LIG    1        0.669   0.492  -1.126  0.00  0.00    -0.341 OA
BRANCH  41  42
ATOM     42  C   LIG    1        1.427   1.548  -0.608  0.00  0.00    +0.278 C 
ATOM     43  O   LIG    1        0.952   2.765  -1.119  0.00  0.00    -0.346 OA
ATOM     44  C   LIG    1        1.586   3.906  -0.542  0.00  0.00    +0.117 C 
ATOM     45  C   LIG    1        3.097   3.896  -0.852  0.00  0.00    +0.019 C 
ATOM     46  C   LIG    1        3.763   2.529  -0.569  0.00  0.00    -0.032 C 
ATOM     47  C   LIG    1        0.893   5.178  -1.051  0.00  0.00    +0.038 C 
ATOM     48  C   LIG    1        2.881   1.342  -1.068  0.00  0.00    +0.157 C 
BRANCH  46  49
ATOM     49  N   LIG    1        5.194   2.583  -1.202  0.00  0.00    +0.383 N 
ATOM     50  H   LIG    1        5.092   3.246  -1.957  0.00  0.00    -0.081 HD
ATOM     51  C   LIG    1        5.736   1.305  -1.890  0.00  0.00    -0.095 C 
BRANCH  49  52
ATOM     52  C   LIG    1        6.228   3.243  -0.240  0.00  0.00    -0.075 C 
ATOM     53  C   LIG    1        6.719   2.256   0.842  0.00  0.00    -0.014 C 
ATOM     54  C   LIG    1        7.373   3.883  -1.048  0.00  0.00    -0.014 C 
ENDBRANCH  49  52
ENDBRANCH  46  49
BRANCH  48  55
ATOM     55  O   LIG    1        3.349   0.091  -0.589  0.00  0.00    -0.388 OA
ATOM     56  H   LIG    1        3.523   0.167   0.352  0.00  0.00    +0.210 HD
ENDBRANCH  48  55
ENDBRANCH  41  42
ENDBRANCH  23  41
TORSDOF 11
