REMARK  Name = DB06824
REMARK                            x       y       z     vdW  Elec       q    Type
REMARK                         _______ _______ _______ _____ _____    ______ ____
ROOT
ATOM      1  C   LIG    1        0.008   0.053   0.084  0.00  0.00    +0.096 C 
ENDROOT
BRANCH   1   2
ATOM      2  N   LIG    1       -0.534   1.404  -0.010  0.00  0.00    -0.314 NA
ATOM      3  H   LIG    1       -0.217   1.840  -0.865  0.00  0.00    +0.122 HD
BRANCH   2   4
ATOM      4  C   LIG    1       -1.991   1.388   0.029  0.00  0.00    +0.096 C 
BRANCH   4   5
ATOM      5  C   LIG    1       -2.574   2.808  -0.087  0.00  0.00    +0.092 C 
BRANCH   5   6
ATOM      6  N   LIG    1       -2.298   3.595   1.101  0.00  0.00    -0.329 NA
ATOM      7  H   LIG    1       -1.298   3.656   1.233  0.00  0.00    +0.118 HD
ATOM      8  H   LIG    1       -2.663   3.119   1.914  0.00  0.00    +0.118 HD
ENDBRANCH   5   6
ENDBRANCH   4   5
ENDBRANCH   2   4
ENDBRANCH   1   2
BRANCH   1   9
ATOM      9  C   LIG    1        1.547   0.066   0.015  0.00  0.00    +0.096 C 
BRANCH   9  10
ATOM     10  N   LIG    1        2.123   0.668   1.212  0.00  0.00    -0.314 NA
ATOM     11  H   LIG    1        1.795   0.183   2.035  0.00  0.00    +0.122 HD
BRANCH  10  12
ATOM     12  C   LIG    1        3.578   0.648   1.166  0.00  0.00    +0.096 C 
BRANCH  12  13
ATOM     13  C   LIG    1        4.108   1.311   2.446  0.00  0.00    +0.092 C 
BRANCH  13  14
ATOM     14  N   LIG    1        5.558   1.305   2.444  0.00  0.00    -0.329 NA
ATOM     15  H   LIG    1        5.893   0.352   2.453  0.00  0.00    +0.118 HD
ATOM     16  H   LIG    1        5.900   1.736   3.291  0.00  0.00    +0.118 HD
ENDBRANCH  13  14
ENDBRANCH  12  13
ENDBRANCH  10  12
ENDBRANCH   9  10
ENDBRANCH   1   9
TORSDOF 9
