REMARK  Name = DB06630
REMARK                            x       y       z     vdW  Elec       q    Type
REMARK                         _______ _______ _______ _____ _____    ______ ____
ROOT
ATOM      1  C   LIG    1        0.237   0.429   0.041  0.00  0.00    +0.147 C 
ENDROOT
BRANCH   1   4
ATOM      2  C   LIG    1       -1.745   1.898   2.118  0.00  0.00    +0.032 C 
ATOM      3  C   LIG    1       -1.534   2.191   0.615  0.00  0.00    +0.122 C 
ATOM      4  N   LIG    1       -0.191   1.831   0.192  0.00  0.00    -0.256 N 
ATOM      5  C   LIG    1        0.588   2.977  -0.017  0.00  0.00    +0.404 C 
ATOM      6  O   LIG    1        1.781   3.111  -0.284  0.00  0.00    -0.226 OA
ATOM      7  O   LIG    1       -0.230   4.031   0.166  0.00  0.00    -0.440 OA
ATOM      8  C   LIG    1       -1.591   3.656   0.200  0.00  0.00    +0.228 C 
BRANCH   8   9
ATOM      9  C   LIG    1       -2.493   4.596   0.997  0.00  0.00    -0.004 A 
ATOM     10  C   LIG    1       -3.838   4.722   0.641  0.00  0.00    +0.019 A 
ATOM     11  C   LIG    1       -4.691   5.567   1.361  0.00  0.00    +0.056 A 
ATOM     12  C   LIG    1       -4.179   6.290   2.444  0.00  0.00    +0.024 A 
ATOM     13  C   LIG    1       -2.834   6.175   2.815  0.00  0.00    +0.056 A 
ATOM     14  C   LIG    1       -1.998   5.322   2.086  0.00  0.00    +0.019 A 
BRANCH  11  15
ATOM     15  C   LIG    1       -6.166   5.709   0.987  0.00  0.00    +0.417 C 
ATOM     16  F   LIG    1       -6.372   6.920   0.470  0.00  0.00    -0.166 F 
ATOM     17  F   LIG    1       -6.931   5.568   2.070  0.00  0.00    -0.166 F 
ATOM     18  F   LIG    1       -6.551   4.800   0.088  0.00  0.00    -0.166 F 
ENDBRANCH  11  15
BRANCH  13  19
ATOM     19  C   LIG    1       -2.289   6.970   4.000  0.00  0.00    +0.417 C 
ATOM     20  F   LIG    1       -0.983   7.211   3.871  0.00  0.00    -0.166 F 
ATOM     21  F   LIG    1       -2.480   6.267   5.116  0.00  0.00    -0.166 F 
ATOM     22  F   LIG    1       -2.913   8.143   4.126  0.00  0.00    -0.166 F 
ENDBRANCH  13  19
ENDBRANCH   8   9
ENDBRANCH   1   4
BRANCH   1  23
ATOM     23  C   LIG    1        1.734   0.140  -0.106  0.00  0.00    -0.022 A 
ATOM     24  C   LIG    1        2.311  -0.230  -1.338  0.00  0.00    -0.010 A 
ATOM     25  C   LIG    1        3.678  -0.534  -1.373  0.00  0.00    +0.009 A 
ATOM     26  C   LIG    1        4.458  -0.478  -0.220  0.00  0.00    +0.013 A 
ATOM     27  C   LIG    1        3.886  -0.122   1.004  0.00  0.00    +0.055 A 
ATOM     28  C   LIG    1        2.522   0.177   1.050  0.00  0.00    +0.018 A 
BRANCH  24  29
ATOM     29  C   LIG    1        1.522  -0.302  -2.601  0.00  0.00    +0.025 A 
ATOM     30  C   LIG    1        1.365  -1.513  -3.300  0.00  0.00    +0.131 A 
ATOM     31  C   LIG    1        0.605  -1.525  -4.481  0.00  0.00    +0.084 A 
ATOM     32  C   LIG    1        0.006  -0.362  -4.961  0.00  0.00    +0.130 A 
ATOM     33  F   LIG    1       -0.723  -0.421  -6.100  0.00  0.00    -0.205 F 
ATOM     34  C   LIG    1        0.161   0.846  -4.273  0.00  0.00    -0.009 A 
ATOM     35  C   LIG    1        0.928   0.861  -3.105  0.00  0.00    +0.018 A 
BRANCH  34  36
ATOM     36  C   LIG    1       -0.491   2.137  -4.777  0.00  0.00    +0.016 C 
ATOM     37  C   LIG    1       -1.447   2.750  -3.735  0.00  0.00    +0.012 C 
ATOM     38  C   LIG    1        0.560   3.155  -5.258  0.00  0.00    +0.012 C 
ENDBRANCH  34  36
BRANCH  30  39
ATOM     39  O   LIG    1        1.967  -2.642  -2.770  0.00  0.00    -0.494 OA
ATOM     40  C   LIG    1        1.837  -3.890  -3.442  0.00  0.00    +0.277 C 
ENDBRANCH  30  39
ENDBRANCH  24  29
BRANCH  27  41
ATOM     41  C   LIG    1        4.715  -0.058   2.285  0.00  0.00    +0.417 C 
ATOM     42  F   LIG    1        4.304  -1.006   3.127  0.00  0.00    -0.166 F 
ATOM     43  F   LIG    1        4.560   1.131   2.869  0.00  0.00    -0.166 F 
ATOM     44  F   LIG    1        6.018  -0.240   2.057  0.00  0.00    -0.166 F 
ENDBRANCH  27  41
ENDBRANCH   1  23
TORSDOF 9
