REMARK  Name = DB06362
REMARK                            x       y       z     vdW  Elec       q    Type
REMARK                         _______ _______ _______ _____ _____    ______ ____
ROOT
ATOM      1  N   LIG    1        1.499   0.237   0.668  0.00  0.00    -0.277 N 
ATOM      2  C   LIG    1        2.358   0.663   1.623  0.00  0.00    +0.263 A 
ATOM      3  O   LIG    1        2.039   1.163   2.700  0.00  0.00    -0.267 OA
ATOM      4  C   LIG    1        3.725   0.401   1.079  0.00  0.00    +0.062 A 
ATOM      5  C   LIG    1        5.018   0.633   1.616  0.00  0.00    +0.023 A 
ATOM      6  C   LIG    1        5.528   1.160   2.826  0.00  0.00    +0.010 A 
ATOM      7  C   LIG    1        6.964   1.120   2.776  0.00  0.00    +0.071 A 
ATOM      8  N   LIG    1        7.320   0.637   1.506  0.00  0.00    -0.308 N 
ATOM      9  C   LIG    1        7.731   1.530   3.898  0.00  0.00    +0.065 A 
ATOM     10 CL   LIG    1        9.455   1.441   4.022  0.00  0.00    -0.081 Cl
ATOM     11  C   LIG    1        7.046   2.013   5.011  0.00  0.00    +0.022 A 
ATOM     12  C   LIG    1        5.665   2.087   5.053  0.00  0.00    +0.002 A 
ATOM     13  C   LIG    1        4.897   1.661   3.980  0.00  0.00    +0.011 A 
ATOM     14  C   LIG    1        6.143   0.287   0.836  0.00  0.00    +0.077 A 
ATOM     15  C   LIG    1        5.958  -0.298  -0.427  0.00  0.00    +0.073 A 
ATOM     16  N   LIG    1        6.901  -0.726  -1.335  0.00  0.00    -0.351 N 
ATOM     17  H   LIG    1        7.900  -0.657  -1.209  0.00  0.00    +0.166 HD
ATOM     18  C   LIG    1        6.275  -1.261  -2.440  0.00  0.00    +0.066 A 
ATOM     19  C   LIG    1        6.813  -1.835  -3.601  0.00  0.00    +0.065 A 
ATOM     20 CL   LIG    1        8.515  -1.992  -3.843  0.00  0.00    -0.081 Cl
ATOM     21  C   LIG    1        5.914  -2.289  -4.565  0.00  0.00    +0.022 A 
ATOM     22  C   LIG    1        4.539  -2.183  -4.387  0.00  0.00    +0.002 A 
ATOM     23  C   LIG    1        4.002  -1.620  -3.231  0.00  0.00    +0.011 A 
ATOM     24  C   LIG    1        4.869  -1.147  -2.228  0.00  0.00    +0.010 A 
ATOM     25  C   LIG    1        4.673  -0.543  -0.955  0.00  0.00    +0.023 A 
ATOM     26  C   LIG    1        3.560  -0.169  -0.172  0.00  0.00    +0.062 A 
ATOM     27  C   LIG    1        2.095  -0.271  -0.434  0.00  0.00    +0.263 A 
ATOM     28  O   LIG    1        1.521  -0.711  -1.429  0.00  0.00    -0.267 OA
ENDROOT
BRANCH   8  29
ATOM     29  C   LIG    1        8.680   0.529   0.979  0.00  0.00    +0.251 C 
ATOM     30  O   LIG    1        8.731   1.077  -0.313  0.00  0.00    -0.346 OA
ATOM     31  C   LIG    1       10.052   1.160  -0.857  0.00  0.00    +0.177 C 
ATOM     32  C   LIG    1       10.668  -0.254  -0.994  0.00  0.00    +0.180 C 
ATOM     33  C   LIG    1       10.629  -0.982   0.369  0.00  0.00    +0.179 C 
ATOM     34  C   LIG    1        9.221  -0.920   1.014  0.00  0.00    +0.195 C 
BRANCH  32  35
ATOM     35  O   LIG    1       12.011  -0.112  -1.461  0.00  0.00    -0.374 OA
ATOM     36  C   LIG    1       12.414  -1.048  -2.452  0.00  0.00    +0.194 C 
ENDBRANCH  32  35
BRANCH  33  37
ATOM     37  O   LIG    1       11.066  -2.324   0.250  0.00  0.00    -0.386 OA
ATOM     38  H   LIG    1       10.457  -2.797  -0.322  0.00  0.00    +0.210 HD
ENDBRANCH  33  37
BRANCH  34  39
ATOM     39  O   LIG    1        9.227  -1.450   2.328  0.00  0.00    -0.385 OA
ATOM     40  H   LIG    1       10.031  -1.166   2.770  0.00  0.00    +0.210 HD
ENDBRANCH  34  39
BRANCH  31  41
ATOM     41  C   LIG    1        9.985   1.947  -2.184  0.00  0.00    +0.190 C 
BRANCH  41  42
ATOM     42  O   LIG    1        9.215   1.280  -3.165  0.00  0.00    -0.392 OA
ATOM     43  H   LIG    1        9.206   1.815  -3.963  0.00  0.00    +0.210 HD
ENDBRANCH  41  42
ENDBRANCH  31  41
ENDBRANCH   8  29
BRANCH   1  44
ATOM     44  C   LIG    1        0.038   0.319   0.818  0.00  0.00    +0.110 C 
BRANCH  44  45
ATOM     45  C   LIG    1       -0.539   1.676   0.357  0.00  0.00    -0.057 C 
BRANCH  45  46
ATOM     46  N   LIG    1       -1.998   1.517  -0.141  0.00  0.00    +0.380 N 
ATOM     47  H   LIG    1       -2.005   0.732  -0.778  0.00  0.00    -0.082 HD
BRANCH  46  49
ATOM     48  C   LIG    1       -1.843   2.779  -2.351  0.00  0.00    -0.017 C 
ATOM     49  C   LIG    1       -2.473   2.753  -0.948  0.00  0.00    -0.082 C 
ENDBRANCH  46  49
BRANCH  46  50
ATOM     50  C   LIG    1       -2.970   1.161   1.013  0.00  0.00    -0.082 C 
ATOM     51  C   LIG    1       -4.246   0.490   0.476  0.00  0.00    -0.017 C 
ENDBRANCH  46  50
ENDBRANCH  45  46
ENDBRANCH  44  45
ENDBRANCH   1  44
TORSDOF 11
