REMARK  Name = DB06736
REMARK                            x       y       z     vdW  Elec       q    Type
REMARK                         _______ _______ _______ _____ _____    ______ ____
ROOT
ATOM      1  C   LIG    1        3.934   0.099  -1.176  0.00  0.00    +0.000 A 
ATOM      2  C   LIG    1        2.550   0.180  -1.316  0.00  0.00    +0.006 A 
ATOM      3  C   LIG    1        1.705  -0.144  -0.248  0.00  0.00    -0.016 A 
ATOM      4  C   LIG    1        2.261  -0.561   0.977  0.00  0.00    +0.035 A 
ATOM      5  C   LIG    1        3.656  -0.638   1.104  0.00  0.00    +0.023 A 
ATOM      6  C   LIG    1        4.487  -0.310   0.034  0.00  0.00    +0.002 A 
ENDROOT
BRANCH   4   7
ATOM      7  N   LIG    1        1.425  -0.891   2.058  0.00  0.00    -0.312 N 
ATOM      8  H   LIG    1        0.434  -0.789   1.895  0.00  0.00    +0.152 HD
BRANCH   7   9
ATOM      9  C   LIG    1        1.797  -1.273   3.357  0.00  0.00    +0.068 A 
ATOM     10  C   LIG    1        2.005  -2.628   3.668  0.00  0.00    +0.063 A 
ATOM     11 CL   LIG    1        1.821  -3.873   2.477  0.00  0.00    -0.082 Cl
ATOM     12  C   LIG    1        2.373  -2.998   4.962  0.00  0.00    +0.022 A 
ATOM     13  C   LIG    1        2.534  -2.031   5.952  0.00  0.00    +0.003 A 
ATOM     14  C   LIG    1        2.326  -0.687   5.651  0.00  0.00    +0.022 A 
ATOM     15  C   LIG    1        1.958  -0.302   4.361  0.00  0.00    +0.063 A 
ATOM     16 CL   LIG    1        1.712   1.384   4.043  0.00  0.00    -0.082 Cl
ENDBRANCH   7   9
ENDBRANCH   4   7
BRANCH   3  17
ATOM     17  C   LIG    1        0.194  -0.038  -0.464  0.00  0.00    +0.157 C 
BRANCH  17  18
ATOM     18  C   LIG    1       -0.292   1.369  -0.100  0.00  0.00    +0.312 C 
ATOM     19  O   LIG    1       -0.321   1.759   1.069  0.00  0.00    -0.250 OA
BRANCH  18  20
ATOM     20  O   LIG    1       -0.653   2.085  -1.186  0.00  0.00    -0.453 OA
BRANCH  20  21
ATOM     21  C   LIG    1       -1.123   3.423  -1.050  0.00  0.00    +0.352 C 
BRANCH  21  22
ATOM     22  C   LIG    1       -1.407   4.018  -2.433  0.00  0.00    +0.343 C 
ATOM     23  O   LIG    1       -1.229   3.426  -3.498  0.00  0.00    -0.247 OA
BRANCH  22  24
ATOM     24  O   LIG    1       -1.882   5.292  -2.324  0.00  0.00    -0.478 OA
ATOM     25  H   LIG    1       -2.068   5.687  -3.179  0.00  0.00    +0.295 HD
ENDBRANCH  22  24
ENDBRANCH  21  22
ENDBRANCH  20  21
ENDBRANCH  18  20
ENDBRANCH  17  18
ENDBRANCH   3  17
TORSDOF 8
