REMARK  Name = DB06040
REMARK                            x       y       z     vdW  Elec       q    Type
REMARK                         _______ _______ _______ _____ _____    ______ ____
ROOT
ATOM      1  C   LIG    1       -2.268  -0.799  -0.638  0.00  0.00    +0.168 C 
ATOM      2  N   LIG    1       -0.879  -1.001  -0.201  0.00  0.00    -0.167 N 
ATOM      3  C   LIG    1        0.101  -0.048  -0.279  0.00  0.00    +0.349 C 
ATOM      4  N   LIG    1        1.327  -0.302   0.282  0.00  0.00    -0.153 N 
ATOM      5  N   LIG    1        1.988  -1.440  -0.048  0.00  0.00    -0.167 NA
ATOM      6  C   LIG    1        3.142  -1.489   0.479  0.00  0.00    +0.128 C 
ATOM      7  S   LIG    1        3.606  -0.106   1.513  0.00  0.00    -0.071 S 
ATOM      8  C   LIG    1        2.081   0.737   1.033  0.00  0.00    +0.137 C 
ATOM      9  O   LIG    1       -0.151   1.057  -0.768  0.00  0.00    -0.248 OA
ENDROOT
BRANCH   6  10
ATOM     10  C   LIG    1        4.094  -2.587   0.300  0.00  0.00    +0.046 A 
ATOM     11  C   LIG    1        4.502  -2.992  -0.983  0.00  0.00    +0.133 A 
ATOM     12  F   LIG    1        4.019  -2.389  -2.096  0.00  0.00    -0.205 F 
ATOM     13  C   LIG    1        5.423  -4.031  -1.127  0.00  0.00    +0.042 A 
ATOM     14  C   LIG    1        5.948  -4.667  -0.002  0.00  0.00    +0.041 A 
ATOM     15  C   LIG    1        5.556  -4.262   1.273  0.00  0.00    +0.124 A 
ATOM     16  F   LIG    1        6.069  -4.875   2.364  0.00  0.00    -0.205 F 
ATOM     17  C   LIG    1        4.636  -3.224   1.425  0.00  0.00    +0.051 A 
ENDBRANCH   6  10
BRANCH   8  18
ATOM     18  C   LIG    1        2.499   1.943   0.138  0.00  0.00    -0.012 A 
ATOM     19  C   LIG    1        2.391   3.271   0.586  0.00  0.00    +0.006 A 
ATOM     20  C   LIG    1        2.759   4.332  -0.237  0.00  0.00    +0.000 A 
ATOM     21  C   LIG    1        3.237   4.080  -1.519  0.00  0.00    +0.000 A 
ATOM     22  C   LIG    1        3.351   2.775  -1.985  0.00  0.00    +0.000 A 
ATOM     23  C   LIG    1        2.984   1.715  -1.161  0.00  0.00    +0.006 A 
ENDBRANCH   8  18
BRANCH   2  24
ATOM     24  O   LIG    1       -0.768  -2.033   0.749  0.00  0.00    -0.279 OA
ATOM     25  C   LIG    1       -0.703  -3.308   0.117  0.00  0.00    +0.227 C 
ENDBRANCH   2  24
BRANCH   8  26
ATOM     26  C   LIG    1        1.326   1.146   2.347  0.00  0.00    +0.042 C 
BRANCH  26  27
ATOM     27  C   LIG    1        0.867  -0.002   3.284  0.00  0.00    -0.016 C 
BRANCH  27  28
ATOM     28  C   LIG    1        0.055   0.468   4.504  0.00  0.00    -0.086 C 
BRANCH  28  29
ATOM     29  N   LIG    1       -1.337   0.950   4.077  0.00  0.00    +0.378 N 
ATOM     30  H   LIG    1       -1.256   1.734   3.445  0.00  0.00    -0.090 HD
ATOM     31  H   LIG    1       -1.835   0.206   3.610  0.00  0.00    -0.090 HD
ATOM     32  H   LIG    1       -1.868   1.239   4.886  0.00  0.00    -0.090 HD
ENDBRANCH  28  29
ENDBRANCH  27  28
ENDBRANCH  26  27
ENDBRANCH   8  26
TORSDOF 7
