REMARK  Name = DB06604
REMARK                            x       y       z     vdW  Elec       q    Type
REMARK                         _______ _______ _______ _____ _____    ______ ____
ROOT
ATOM      1  N   LIG    1       -3.524   3.048  -1.525  0.00  0.00    -0.279 N 
ATOM      2  CA  LIG    1       -3.741   4.307  -2.325  0.00  0.00    +0.185 C 
ATOM      3  C   LIG    1       -4.923   4.096  -3.318  0.00  0.00    +0.034 C 
ATOM      4  C   LIG    1       -6.195   3.586  -2.649  0.00  0.00    +0.004 C 
ATOM      5  C   LIG    1       -5.889   2.270  -1.935  0.00  0.00    +0.027 C 
ATOM      6  C   LIG    1       -4.691   2.309  -0.945  0.00  0.00    +0.107 C 
ATOM      7  C   LIG    1       -4.999   2.708   0.501  0.00  0.00    -0.024 A 
ATOM      8  C   LIG    1       -6.168   3.394   0.868  0.00  0.00    +0.006 A 
ATOM      9  C   LIG    1       -6.401   3.777   2.185  0.00  0.00    +0.000 A 
ATOM     10  C   LIG    1       -5.466   3.475   3.166  0.00  0.00    +0.000 A 
ATOM     11  C   LIG    1       -4.306   2.787   2.824  0.00  0.00    +0.004 A 
ATOM     12  C   LIG    1       -4.047   2.398   1.503  0.00  0.00    -0.040 A 
ATOM     13  C   LIG    1       -2.774   1.575   1.224  0.00  0.00    +0.067 C 
ATOM     14  CA  LIG    1       -2.124   1.496  -0.198  0.00  0.00    +0.163 C 
ATOM     15  C   LIG    1       -2.250   2.762  -1.102  0.00  0.00    +0.237 C 
ATOM     16  O   LIG    1       -1.269   3.465  -1.375  0.00  0.00    -0.274 OA
ENDROOT
BRANCH  14  17
ATOM     17  N   LIG    1       -0.690   1.173  -0.105  0.00  0.00    -0.303 N 
ATOM     18  H   LIG    1       -0.070   1.837  -0.546  0.00  0.00    +0.149 HD
ATOM     19  C   LIG    1       -0.168  -0.006   0.280  0.00  0.00    +0.227 C 
ATOM     20  O   LIG    1       -0.855  -0.965   0.640  0.00  0.00    -0.275 OA
BRANCH  19  21
ATOM     21  C   LIG    1        1.369  -0.133   0.215  0.00  0.00    +0.142 C 
BRANCH  21  22
ATOM     22  C   LIG    1        1.855  -0.973  -1.011  0.00  0.00    +0.005 C 
ATOM     23  C   LIG    1        1.256  -0.525  -2.366  0.00  0.00    +0.009 C 
ATOM     24  C   LIG    1        3.395  -1.004  -1.121  0.00  0.00    +0.009 C 
ENDBRANCH  21  22
BRANCH  21  25
ATOM     25  S   LIG    1        2.018  -0.710   1.833  0.00  0.00    -0.075 S 
BRANCH  25  26
ATOM     26  C   LIG    1        2.235   0.899   2.706  0.00  0.00    +0.187 C 
ATOM     27  C   LIG    1        2.802   0.761   4.115  0.00  0.00    +0.099 C 
ATOM     28  O   LIG    1        1.958   2.003   2.239  0.00  0.00    -0.286 OA
ENDBRANCH  25  26
ENDBRANCH  21  25
ENDBRANCH  19  21
ENDBRANCH  14  17
BRANCH   2  29
ATOM     29  C   LIG    1       -3.926   5.606  -1.456  0.00  0.00    +0.325 C 
ATOM     30  O   LIG    1       -4.343   6.639  -2.031  0.00  0.00    -0.249 OA
BRANCH  29  31
ATOM     31  OXT LIG    1       -3.610   5.600  -0.243  0.00  0.00    -0.479 OA
ATOM     32  HXT LIG    1       -3.303   4.811   0.157  0.00  0.00    +0.295 HD
ENDBRANCH  29  31
ENDBRANCH   2  29
TORSDOF 7
