REMARK  Name = DB06714
REMARK                            x       y       z     vdW  Elec       q    Type
REMARK                         _______ _______ _______ _____ _____    ______ ____
ROOT
ATOM      1  C   LIG    1        1.444  -0.025  -0.030  0.00  0.00    +0.022 C 
ENDROOT
BRANCH   1   2
ATOM      2  C   LIG    1        2.010   0.648  -1.310  0.00  0.00    -0.010 C 
ATOM      3  C   LIG    1        3.557   0.635  -1.305  0.00  0.00    +0.003 C 
ATOM      4  C   LIG    1        4.134   1.381  -2.526  0.00  0.00    +0.000 C 
ATOM      5  C   LIG    1        3.593   0.801  -3.850  0.00  0.00    +0.000 C 
ATOM      6  C   LIG    1        2.052   0.707  -3.864  0.00  0.00    +0.000 C 
ATOM      7  C   LIG    1        1.516  -0.023  -2.615  0.00  0.00    +0.003 C 
ENDBRANCH   1   2
BRANCH   1   9
ATOM      8  C   LIG    1       -0.511  -0.730   1.440  0.00  0.00    +0.024 C 
ATOM      9  C   LIG    1       -0.098  -0.024   0.131  0.00  0.00    +0.051 C 
BRANCH   9  10
ATOM     10  N   LIG    1       -0.587   1.355   0.094  0.00  0.00    -0.316 NA
ATOM     11  H   LIG    1       -0.275   1.843   0.922  0.00  0.00    +0.122 HD
ATOM     12  C   LIG    1       -2.035   1.460  -0.013  0.00  0.00    +0.101 C 
ENDBRANCH   9  10
ENDBRANCH   1   9
TORSDOF 3
