REMARK  Name = DB06637
REMARK                            x       y       z     vdW  Elec       q    Type
REMARK                         _______ _______ _______ _____ _____    ______ ____
ROOT
ATOM      1  C   LIG    1       -0.683   1.212   0.000  0.00  0.00    +0.042 A 
ATOM      2  C   LIG    1       -2.079   1.173   0.000  0.00  0.00    +0.112 A 
ATOM      3  N   LIG    1       -2.784   0.012   0.000  0.00  0.00    -0.263 NA
ATOM      4  C   LIG    1       -2.086  -1.153   0.000  0.00  0.00    +0.112 A 
ATOM      5  C   LIG    1       -0.690  -1.202   0.000  0.00  0.00    +0.042 A 
ATOM      6  C   LIG    1        0.019   0.003   0.000  0.00  0.00    +0.027 A 
ENDROOT
BRANCH   6   7
ATOM      7  N   LIG    1        1.412   0.000   0.000  0.00  0.00    -0.358 N 
ATOM      8  H   LIG    1        1.911   0.878  -0.000  0.00  0.00    +0.142 HD
ATOM      9  H   LIG    1        1.907  -0.880   0.000  0.00  0.00    +0.142 HD
ENDBRANCH   6   7
TORSDOF 1
