REMARK  Name = DB06701
REMARK                            x       y       z     vdW  Elec       q    Type
REMARK                         _______ _______ _______ _____ _____    ______ ____
ROOT
ATOM      1  C   LIG    1        0.003   0.016  -0.166  0.00  0.00    +0.144 C 
ENDROOT
BRANCH   1   2
ATOM      2  C   LIG    1       -0.512   1.486  -0.044  0.00  0.00    +0.072 C 
ATOM      3  N   LIG    1        0.071   2.246   1.074  0.00  0.00    -0.312 NA
ATOM      4  H   LIG    1        1.077   2.252   0.979  0.00  0.00    +0.122 HD
ATOM      5  C   LIG    1       -0.396   3.628   1.191  0.00  0.00    +0.081 C 
ATOM      6  C   LIG    1       -1.929   3.709   1.289  0.00  0.00    +0.015 C 
ATOM      7  C   LIG    1       -2.604   2.989   0.117  0.00  0.00    +0.003 C 
ATOM      8  C   LIG    1       -2.066   1.555  -0.012  0.00  0.00    +0.020 C 
ENDBRANCH   1   2
BRANCH   1   9
ATOM      9  C   LIG    1       -0.503  -0.706  -1.421  0.00  0.00    -0.032 A 
ATOM     10  C   LIG    1       -0.296  -0.170  -2.700  0.00  0.00    +0.004 A 
ATOM     11  C   LIG    1       -0.772  -0.838  -3.824  0.00  0.00    +0.000 A 
ATOM     12  C   LIG    1       -1.458  -2.041  -3.672  0.00  0.00    +0.000 A 
ATOM     13  C   LIG    1       -1.671  -2.582  -2.406  0.00  0.00    +0.000 A 
ATOM     14  C   LIG    1       -1.195  -1.913  -1.281  0.00  0.00    +0.004 A 
ENDBRANCH   1   9
BRANCH   1  15
ATOM     15  C   LIG    1        1.541  -0.133  -0.126  0.00  0.00    +0.316 C 
ATOM     16  O   LIG    1        2.291   0.715  -0.617  0.00  0.00    -0.250 OA
BRANCH  15  17
ATOM     17  O   LIG    1        1.930  -1.260   0.507  0.00  0.00    -0.467 OA
ATOM     18  C   LIG    1        3.309  -1.570   0.644  0.00  0.00    +0.280 C 
ENDBRANCH  15  17
ENDBRANCH   1  15
TORSDOF 4
