REMARK  Name = DB06731
REMARK                            x       y       z     vdW  Elec       q    Type
REMARK                         _______ _______ _______ _____ _____    ______ ____
ROOT
ATOM      1  C   LIG    1        1.475   0.083  -0.187  0.00  0.00    +0.202 C 
ENDROOT
BRANCH   1   2
ATOM      2  C   LIG    1        2.078   0.668  -1.468  0.00  0.00    -0.007 A 
ATOM      3  C   LIG    1        1.405   0.557  -2.689  0.00  0.00    +0.007 A 
ATOM      4  C   LIG    1        1.963   1.097  -3.845  0.00  0.00    +0.000 A 
ATOM      5  C   LIG    1        3.193   1.746  -3.779  0.00  0.00    +0.000 A 
ATOM      6  C   LIG    1        3.872   1.860  -2.568  0.00  0.00    +0.000 A 
ATOM      7  C   LIG    1        3.314   1.320  -1.412  0.00  0.00    +0.007 A 
ENDBRANCH   1   2
BRANCH   1   8
ATOM      8  O   LIG    1        0.046   0.202  -0.176  0.00  0.00    -0.484 OA
BRANCH   8  12
ATOM      9  C   LIG    1       -1.990   3.837   0.245  0.00  0.00    +0.055 A 
ATOM     10  C   LIG    1       -0.593   3.835   0.308  0.00  0.00    +0.016 A 
ATOM     11  C   LIG    1        0.115   2.644   0.174  0.00  0.00    +0.046 A 
ATOM     12  C   LIG    1       -0.567   1.435  -0.031  0.00  0.00    +0.121 A 
ATOM     13  C   LIG    1       -1.961   1.443  -0.092  0.00  0.00    +0.046 A 
ATOM     14  C   LIG    1       -2.670   2.633   0.043  0.00  0.00    +0.016 A 
BRANCH   9  15
ATOM     15  C   LIG    1       -2.755   5.152   0.385  0.00  0.00    +0.417 C 
ATOM     16  F   LIG    1       -2.862   5.457   1.678  0.00  0.00    -0.166 F 
ATOM     17  F   LIG    1       -3.983   5.074  -0.133  0.00  0.00    -0.166 F 
ATOM     18  F   LIG    1       -2.112   6.144  -0.235  0.00  0.00    -0.166 F 
ENDBRANCH   9  15
ENDBRANCH   8  12
ENDBRANCH   1   8
BRANCH   1  19
ATOM     19  C   LIG    1        1.827  -1.410  -0.034  0.00  0.00    +0.030 C 
BRANCH  19  20
ATOM     20  C   LIG    1        1.318  -2.015   1.287  0.00  0.00    -0.083 C 
BRANCH  20  21
ATOM     21  N   LIG    1        1.707  -3.494   1.370  0.00  0.00    +0.378 N 
ATOM     22  H   LIG    1        1.302  -4.005   0.598  0.00  0.00    -0.090 HD
ATOM     23  H   LIG    1        2.712  -3.594   1.334  0.00  0.00    -0.090 HD
ATOM     24  H   LIG    1        1.372  -3.894   2.235  0.00  0.00    -0.090 HD
ENDBRANCH  20  21
ENDBRANCH  19  20
ENDBRANCH   1  19
TORSDOF 7
