REMARK  Name = DB06471
REMARK                            x       y       z     vdW  Elec       q    Type
REMARK                         _______ _______ _______ _____ _____    ______ ____
ROOT
ATOM      1  C   LIG    1       -2.116   1.040   0.126  0.00  0.00    +0.150 A 
ATOM      2  N   LIG    1       -3.086   2.001   0.208  0.00  0.00    -0.225 NA
ATOM      3  C   LIG    1       -4.217   1.332   0.160  0.00  0.00    +0.136 A 
ATOM      4  N   LIG    1       -4.114   0.029   0.029  0.00  0.00    -0.212 NA
ATOM      5  C   LIG    1       -2.772  -0.191   0.023  0.00  0.00    +0.167 A 
ATOM      6  N   LIG    1       -2.069  -1.356  -0.072  0.00  0.00    -0.295 N 
ATOM      7  C   LIG    1       -0.689  -1.334  -0.094  0.00  0.00    +0.201 A 
ATOM      8  C   LIG    1        0.022  -0.107   0.018  0.00  0.00    +0.056 A 
ATOM      9  C   LIG    1       -0.706   1.104   0.126  0.00  0.00    +0.154 A 
ENDROOT
BRANCH   3  10
ATOM     10  C   LIG    1       -5.583   2.024   0.196  0.00  0.00    +0.063 C 
ATOM     11  C   LIG    1       -5.605   3.431   0.868  0.00  0.00    +0.031 C 
ATOM     12  C   LIG    1       -6.915   4.153   0.446  0.00  0.00    +0.151 C 
ATOM     13  C   LIG    1       -7.969   3.423   1.217  0.00  0.00    +0.151 C 
ATOM     14  C   LIG    1       -7.157   2.369   2.015  0.00  0.00    +0.021 C 
ATOM     15  O   LIG    1       -7.671   4.780   1.459  0.00  0.00    -0.368 OA
ATOM     16  C   LIG    1       -5.838   3.069   2.333  0.00  0.00    +0.013 C 
ATOM     17  C   LIG    1       -6.666   1.278   1.037  0.00  0.00    +0.017 C 
ENDBRANCH   3  10
BRANCH   7  18
ATOM     18  O   LIG    1       -0.063  -2.449  -0.236  0.00  0.00    -0.493 OA
ATOM     19  H   LIG    1        0.874  -2.461  -0.255  0.00  0.00    +0.294 HD
ENDBRANCH   7  18
BRANCH   9  20
ATOM     20  O   LIG    1       -0.150   2.256   0.213  0.00  0.00    -0.504 OA
ATOM     21  H   LIG    1       -0.679   3.027   0.283  0.00  0.00    +0.292 HD
ENDBRANCH   9  20
BRANCH   6  22
ATOM     22  C   LIG    1       -2.885  -2.619  -0.174  0.00  0.00    +0.126 C 
BRANCH  22  23
ATOM     23  C   LIG    1       -3.182  -2.985  -1.641  0.00  0.00    +0.018 C 
ATOM     24  C   LIG    1       -4.020  -4.264  -1.772  0.00  0.00    +0.005 C 
ENDBRANCH  22  23
ENDBRANCH   6  22
BRANCH   8  25
ATOM     25  C   LIG    1        1.577  -0.081   0.007  0.00  0.00    +0.044 C 
BRANCH  25  26
ATOM     26  C   LIG    1        2.155   0.053  -1.415  0.00  0.00    +0.002 C 
ATOM     27  C   LIG    1        3.689   0.070  -1.439  0.00  0.00    +0.004 C 
ENDBRANCH  25  26
ENDBRANCH   8  25
TORSDOF 7
