REMARK  Name = DB06133
REMARK                            x       y       z     vdW  Elec       q    Type
REMARK                         _______ _______ _______ _____ _____    ______ ____
ROOT
ATOM      1  C   LIG    1        1.343   0.366  -0.081  0.00  0.00    +0.158 C 
ENDROOT
BRANCH   1   2
ATOM      2  C   LIG    1       -0.177   0.179   0.057  0.00  0.00    +0.164 C 
ATOM      3  O   LIG    1       -0.884   1.174   0.223  0.00  0.00    -0.292 OA
BRANCH   2   5
ATOM      4  C   LIG    1       -2.025  -1.462   0.090  0.00  0.00    +0.011 C 
ATOM      5  C   LIG    1       -0.707  -1.182   0.002  0.00  0.00    +0.047 C 
BRANCH   4   6
ATOM      6  C   LIG    1       -2.646  -2.805   0.053  0.00  0.00    -0.021 A 
ATOM      7  C   LIG    1       -4.039  -2.899   0.049  0.00  0.00    +0.012 A 
ATOM      8  C   LIG    1       -4.670  -4.139   0.013  0.00  0.00    +0.050 A 
ATOM      9  C   LIG    1       -3.919  -5.325  -0.020  0.00  0.00    +0.162 A 
ATOM     10  C   LIG    1       -2.519  -5.249  -0.015  0.00  0.00    +0.162 A 
ATOM     11  C   LIG    1       -1.896  -3.988   0.021  0.00  0.00    +0.057 A 
BRANCH   9  12
ATOM     12  O   LIG    1       -4.483  -6.589  -0.056  0.00  0.00    -0.491 OA
ATOM     13  C   LIG    1       -5.901  -6.724  -0.056  0.00  0.00    +0.277 C 
ENDBRANCH   9  12
BRANCH  10  14
ATOM     14  O   LIG    1       -1.825  -6.447  -0.046  0.00  0.00    -0.491 OA
ATOM     15  C   LIG    1       -0.402  -6.436  -0.043  0.00  0.00    +0.277 C 
ENDBRANCH  10  14
ENDBRANCH   4   6
ENDBRANCH   2   5
ENDBRANCH   1   2
BRANCH   1  16
ATOM     16  C   LIG    1        1.945   0.022  -1.458  0.00  0.00    +0.164 C 
ATOM     17  O   LIG    1        1.229  -0.292  -2.414  0.00  0.00    -0.292 OA
BRANCH  16  18
ATOM     18  C   LIG    1        3.399   0.095  -1.554  0.00  0.00    +0.047 C 
ATOM     19  C   LIG    1        4.074  -0.120  -2.704  0.00  0.00    +0.011 C 
BRANCH  19  20
ATOM     20  C   LIG    1        5.542  -0.081  -2.880  0.00  0.00    -0.021 A 
ATOM     21  C   LIG    1        6.062  -0.077  -4.175  0.00  0.00    +0.012 A 
ATOM     22  C   LIG    1        7.436  -0.031  -4.391  0.00  0.00    +0.050 A 
ATOM     23  C   LIG    1        8.330   0.012  -3.309  0.00  0.00    +0.162 A 
ATOM     24  C   LIG    1        7.824   0.007  -2.001  0.00  0.00    +0.162 A 
ATOM     25  C   LIG    1        6.433  -0.037  -1.800  0.00  0.00    +0.057 A 
BRANCH  23  26
ATOM     26  O   LIG    1        9.706   0.058  -3.452  0.00  0.00    -0.491 OA
ATOM     27  C   LIG    1       10.275   0.057  -4.757  0.00  0.00    +0.277 C 
ENDBRANCH  23  26
BRANCH  24  28
ATOM     28  O   LIG    1        8.747   0.048  -0.970  0.00  0.00    -0.491 OA
ATOM     29  C   LIG    1        8.296   0.031   0.380  0.00  0.00    +0.277 C 
ENDBRANCH  24  28
ENDBRANCH  19  20
ENDBRANCH  16  18
ENDBRANCH   1  16
TORSDOF 10
