REMARK  Name = DB06729
REMARK                            x       y       z     vdW  Elec       q    Type
REMARK                         _______ _______ _______ _____ _____    ______ ____
ROOT
ATOM      1  N   LIG    1        1.976   0.151  -1.055  0.00  0.00    -0.199 N 
ATOM      2  H   LIG    1        2.643   0.676  -1.601  0.00  0.00    +0.175 HD
ENDROOT
BRANCH   1   3
ATOM      3  C   LIG    1        2.363  -0.469   0.108  0.00  0.00    +0.141 A 
ATOM      4  C   LIG    1        1.666  -1.197   1.061  0.00  0.00    +0.066 A 
ATOM      5  C   LIG    1        2.614  -1.587   2.005  0.00  0.00    +0.137 A 
ATOM      6  N   LIG    1        3.814  -1.154   1.707  0.00  0.00    -0.173 NA
ATOM      7  N   LIG    1        3.673  -0.466   0.557  0.00  0.00    -0.217 N 
BRANCH   7   8
ATOM      8  C   LIG    1        4.806   0.159  -0.015  0.00  0.00    +0.067 A 
ATOM      9  C   LIG    1        6.004  -0.554  -0.156  0.00  0.00    +0.028 A 
ATOM     10  C   LIG    1        7.117   0.065  -0.719  0.00  0.00    +0.002 A 
ATOM     11  C   LIG    1        7.033   1.391  -1.136  0.00  0.00    +0.000 A 
ATOM     12  C   LIG    1        5.847   2.108  -0.995  0.00  0.00    +0.002 A 
ATOM     13  C   LIG    1        4.731   1.493  -0.433  0.00  0.00    +0.028 A 
ENDBRANCH   7   8
ENDBRANCH   1   3
BRANCH   1  14
ATOM     14  S   LIG    1        0.306   0.289  -1.625  0.00  0.00    +0.073 S 
ATOM     15  O   LIG    1       -0.400  -0.947  -1.267  0.00  0.00    -0.150 OA
ATOM     16  O   LIG    1        0.377   0.744  -3.018  0.00  0.00    -0.150 OA
BRANCH  14  17
ATOM     17  C   LIG    1       -0.385   1.627  -0.655  0.00  0.00    +0.109 A 
ATOM     18  C   LIG    1       -0.218   2.947  -1.079  0.00  0.00    +0.030 A 
ATOM     19  C   LIG    1       -0.740   3.989  -0.318  0.00  0.00    +0.024 A 
ATOM     20  C   LIG    1       -1.423   3.708   0.865  0.00  0.00    +0.025 A 
ATOM     21  C   LIG    1       -1.586   2.390   1.292  0.00  0.00    +0.024 A 
ATOM     22  C   LIG    1       -1.065   1.347   0.532  0.00  0.00    +0.030 A 
BRANCH  20  23
ATOM     23  N   LIG    1       -1.946   4.752   1.627  0.00  0.00    -0.358 N 
ATOM     24  H   LIG    1       -1.826   5.705   1.314  0.00  0.00    +0.142 HD
ATOM     25  H   LIG    1       -2.443   4.544   2.481  0.00  0.00    +0.142 HD
ENDBRANCH  20  23
ENDBRANCH  14  17
ENDBRANCH   1  14
TORSDOF 5
