REMARK  Name = DB06306
REMARK                            x       y       z     vdW  Elec       q    Type
REMARK                         _______ _______ _______ _____ _____    ______ ____
ROOT
ATOM      1  C   LIG    1        1.393  -0.206   0.212  0.00  0.00    +0.251 C 
ATOM      2  N   LIG    1        1.887  -1.200   1.004  0.00  0.00    -0.289 N 
ATOM      3  C   LIG    1        3.328  -1.415   1.181  0.00  0.00    +0.143 C 
ATOM      4  C   LIG    1        3.453  -1.301   2.681  0.00  0.00    -0.025 A 
ATOM      5  C   LIG    1        4.569  -1.058   3.483  0.00  0.00    +0.007 A 
ATOM      6  C   LIG    1        4.429  -1.022   4.875  0.00  0.00    -0.064 A 
ATOM      7  C   LIG    1        3.168  -1.230   5.450  0.00  0.00    +0.002 A 
ATOM      8  C   LIG    1        2.058  -1.484   4.644  0.00  0.00    +0.006 A 
ATOM      9  C   LIG    1        2.206  -1.511   3.257  0.00  0.00    -0.025 A 
ATOM     10  C   LIG    1        1.192  -1.767   2.167  0.00  0.00    +0.143 C 
ATOM     11  O   LIG    1        2.136   0.544  -0.426  0.00  0.00    -0.270 OA
ENDROOT
BRANCH   1  16
ATOM     12  C   LIG    1       -2.360  -1.012  -0.016  0.00  0.00    -0.002 A 
ATOM     13  C   LIG    1       -2.905   0.272  -0.175  0.00  0.00    +0.124 A 
ATOM     14  C   LIG    1       -2.073   1.388  -0.212  0.00  0.00    +0.091 A 
ATOM     15  C   LIG    1       -0.692   1.254  -0.086  0.00  0.00    +0.132 A 
ATOM     16  C   LIG    1       -0.114  -0.021   0.094  0.00  0.00    +0.079 A 
ATOM     17  C   LIG    1       -0.969  -1.136   0.104  0.00  0.00    +0.024 A 
BRANCH  12  19
ATOM     18  C   LIG    1       -2.684  -3.484   0.728  0.00  0.00    +0.012 C 
ATOM     19  C   LIG    1       -3.274  -2.252   0.006  0.00  0.00    +0.016 C 
ATOM     20  C   LIG    1       -3.748  -2.623  -1.412  0.00  0.00    +0.012 C 
ENDBRANCH  12  19
BRANCH  13  21
ATOM     21  O   LIG    1       -4.257   0.467  -0.298  0.00  0.00    -0.506 OA
ATOM     22  H   LIG    1       -4.490   1.392  -0.402  0.00  0.00    +0.292 HD
ENDBRANCH  13  21
BRANCH  15  23
ATOM     23  O   LIG    1        0.056   2.406  -0.122  0.00  0.00    -0.506 OA
ATOM     24  H   LIG    1        0.998   2.236  -0.051  0.00  0.00    +0.292 HD
ENDBRANCH  15  23
ENDBRANCH   1  16
BRANCH   6  25
ATOM     25  C   LIG    1        5.634  -0.722   5.755  0.00  0.00    -0.043 C 
BRANCH  25  26
ATOM     26  N   LIG    1        6.553  -1.938   6.014  0.00  0.00    +0.384 N 
ATOM     27  H   LIG    1        6.824  -2.341   5.128  0.00  0.00    -0.081 HD
ATOM     28  C   LIG    1        7.840  -1.493   6.750  0.00  0.00    -0.063 C 
ATOM     29  C   LIG    1        8.733  -2.734   6.995  0.00  0.00    +0.065 C 
ATOM     30  N   LIG    1        8.052  -3.779   7.768  0.00  0.00    -0.309 NA
ATOM     31  C   LIG    1        7.857  -3.437   9.176  0.00  0.00    +0.104 C 
ATOM     32  C   LIG    1        6.822  -4.203   7.088  0.00  0.00    +0.065 C 
ATOM     33  C   LIG    1        5.837  -3.033   6.841  0.00  0.00    -0.063 C 
ENDBRANCH  25  26
ENDBRANCH   6  25
TORSDOF 6
