REMARK  Name = DB06504
REMARK                            x       y       z     vdW  Elec       q    Type
REMARK                         _______ _______ _______ _____ _____    ______ ____
ROOT
ATOM      1  C   LIG    1        7.298   1.339  -0.094  0.00  0.00    +0.084 C 
ATOM      2  C   LIG    1        5.936   0.658  -0.059  0.00  0.00    +0.051 A 
ATOM      3  N   LIG    1        5.907  -0.700   0.033  0.00  0.00    -0.257 NA
ATOM      4  C   LIG    1        4.718  -1.351   0.064  0.00  0.00    +0.140 A 
ATOM      5  C   LIG    1        3.508  -0.653   0.026  0.00  0.00    +0.108 A 
ATOM      6  N   LIG    1        2.216  -1.109   0.045  0.00  0.00    -0.225 NA
ATOM      7  C   LIG    1        1.479  -0.022   0.011  0.00  0.00    +0.161 A 
ATOM      8  N   LIG    1        2.238   1.130  -0.026  0.00  0.00    -0.336 N 
ATOM      9  H   LIG    1        1.838   2.057  -0.054  0.00  0.00    +0.167 HD
ATOM     10  C   LIG    1        3.563   0.759  -0.029  0.00  0.00    +0.075 A 
ATOM     11  C   LIG    1        4.776   1.460  -0.059  0.00  0.00    +0.025 A 
ATOM     12  C   LIG    1        4.874   2.985  -0.015  0.00  0.00    +0.199 C 
ATOM     13  O   LIG    1        6.206   3.466  -0.211  0.00  0.00    -0.375 OA
ATOM     14  C   LIG    1        7.208   2.753   0.509  0.00  0.00    +0.166 C 
ENDROOT
BRANCH   7  15
ATOM     15  C   LIG    1        0.015  -0.022   0.009  0.00  0.00    +0.148 A 
ATOM     16  N   LIG    1       -0.685   1.096  -0.004  0.00  0.00    -0.075 NA
ATOM     17  O   LIG    1       -2.031   0.724  -0.008  0.00  0.00    -0.362 OA
ATOM     18  C   LIG    1       -2.098  -0.629   0.003  0.00  0.00    +0.231 A 
ATOM     19  C   LIG    1       -0.822  -1.141   0.015  0.00  0.00    +0.075 A 
ENDBRANCH   7  15
TORSDOF 1
