REMARK  Name = DB06645
REMARK                            x       y       z     vdW  Elec       q    Type
REMARK                         _______ _______ _______ _____ _____    ______ ____
ROOT
ATOM      1  C   LIG    1       -0.398   0.392  -0.226  0.00  0.00    +0.163 C 
ENDROOT
BRANCH   1   2
ATOM      2  C   LIG    1        1.081   0.855  -0.049  0.00  0.00    +0.236 C 
ATOM      3  N   LIG    1        1.567   1.876  -0.809  0.00  0.00    -0.299 N 
ATOM      4  C   LIG    1        2.989   2.288  -0.712  0.00  0.00    +0.124 C 
ATOM      5  C   LIG    1        3.730   2.088  -2.088  0.00  0.00    +0.068 C 
ATOM      6  C   LIG    1        2.912   2.964  -3.099  0.00  0.00    +0.019 C 
ATOM      7  C   LIG    1        1.408   2.616  -3.130  0.00  0.00    +0.020 C 
ATOM      8  C   LIG    1        0.761   2.704  -1.728  0.00  0.00    +0.108 C 
ATOM      9  O   LIG    1        1.775   0.285   0.799  0.00  0.00    -0.274 OA
BRANCH   5  10
ATOM     10  C   LIG    1        3.752   0.545  -2.451  0.00  0.00    +0.237 C 
ATOM     11  N   LIG    1        3.757   0.081  -3.745  0.00  0.00    -0.237 N 
ATOM     12  C   LIG    1        4.263   0.818  -4.907  0.00  0.00    +0.153 C 
ATOM     13  O   LIG    1        3.791  -0.243  -1.500  0.00  0.00    -0.274 OA
BRANCH  11  14
ATOM     14  N   LIG    1        3.435  -1.286  -4.039  0.00  0.00    -0.231 NA
ATOM     15  C   LIG    1        2.084  -1.695  -3.657  0.00  0.00    +0.127 C 
ATOM     16  C   LIG    1        4.475  -2.248  -3.674  0.00  0.00    +0.127 C 
ENDBRANCH  11  14
ENDBRANCH   5  10
BRANCH   5  17
ATOM     17  C   LIG    1        5.198   2.630  -1.963  0.00  0.00    +0.053 C 
BRANCH  17  18
ATOM     18  C   LIG    1        6.232   1.747  -1.261  0.00  0.00    -0.046 A 
ATOM     19  C   LIG    1        7.063   0.910  -2.013  0.00  0.00    +0.003 A 
ATOM     20  C   LIG    1        7.996   0.098  -1.374  0.00  0.00    +0.000 A 
ATOM     21  C   LIG    1        8.101   0.129   0.015  0.00  0.00    +0.000 A 
ATOM     22  C   LIG    1        7.283   0.966   0.771  0.00  0.00    +0.000 A 
ATOM     23  C   LIG    1        6.349   1.778   0.132  0.00  0.00    +0.003 A 
ENDBRANCH  17  18
ENDBRANCH   5  17
ENDBRANCH   1   2
BRANCH   1  25
ATOM     24  C   LIG    1       -0.562  -1.726   1.172  0.00  0.00    +0.202 C 
ATOM     25  N   LIG    1       -0.908  -0.458   0.868  0.00  0.00    -0.305 N 
ATOM     26  H   LIG    1       -1.609  -0.013   1.442  0.00  0.00    +0.149 HD
ATOM     27  O   LIG    1        0.292  -2.344   0.526  0.00  0.00    -0.277 OA
BRANCH  24  29
ATOM     28  C   LIG    1       -1.045  -1.566   3.686  0.00  0.00    -0.001 C 
ATOM     29  C   LIG    1       -1.316  -2.360   2.383  0.00  0.00    +0.001 C 
ATOM     30  C   LIG    1       -2.835  -2.469   2.096  0.00  0.00    -0.001 C 
BRANCH  29  31
ATOM     31  N   LIG    1       -0.803  -3.798   2.622  0.00  0.00    +0.387 N 
ATOM     32  H   LIG    1       -0.953  -4.362   1.797  0.00  0.00    -0.089 HD
ATOM     33  H   LIG    1        0.184  -3.782   2.837  0.00  0.00    -0.089 HD
ATOM     34  H   LIG    1       -1.296  -4.219   3.396  0.00  0.00    -0.089 HD
ENDBRANCH  29  31
ENDBRANCH  24  29
ENDBRANCH   1  25
BRANCH   1  35
ATOM     35  C   LIG    1       -0.688  -0.262  -1.610  0.00  0.00    +0.069 C 
BRANCH  35  36
ATOM     36  C   LIG    1       -2.128  -0.567  -1.907  0.00  0.00    -0.020 A 
ATOM     37  C   LIG    1       -2.810  -1.859  -1.895  0.00  0.00    +0.003 A 
ATOM     38  C   LIG    1       -2.407  -3.197  -1.668  0.00  0.00    +0.010 A 
ATOM     39  C   LIG    1       -3.331  -4.260  -1.723  0.00  0.00    +0.001 A 
ATOM     40  C   LIG    1       -4.688  -4.011  -2.010  0.00  0.00    +0.002 A 
ATOM     41  C   LIG    1       -5.124  -2.694  -2.244  0.00  0.00    +0.026 A 
ATOM     42  C   LIG    1       -4.192  -1.642  -2.185  0.00  0.00    +0.047 A 
ATOM     43  N   LIG    1       -4.295  -0.278  -2.358  0.00  0.00    -0.360 N 
ATOM     44  H   LIG    1       -5.142   0.226  -2.578  0.00  0.00    +0.165 HD
ATOM     45  C   LIG    1       -3.079   0.351  -2.191  0.00  0.00    +0.087 A 
ENDBRANCH  35  36
ENDBRANCH   1  35
TORSDOF 10
