REMARK  Name = DB06410
REMARK                            x       y       z     vdW  Elec       q    Type
REMARK                         _______ _______ _______ _____ _____    ______ ____
ROOT
ATOM      1  C   LIG    1       -2.860  -1.610   0.366  0.00  0.00    +0.008 C 
ATOM      2  C   LIG    1       -4.370  -1.720   0.677  0.00  0.00    +0.005 C 
ATOM      3  C   LIG    1       -4.665  -1.777   2.197  0.00  0.00    +0.031 C 
ATOM      4  C   LIG    1       -3.943  -0.648   2.954  0.00  0.00    -0.066 C 
ATOM      5  C   LIG    1       -4.522   0.231   3.804  0.00  0.00    -0.000 C 
ATOM      6  C   LIG    1       -2.443  -0.642   2.617  0.00  0.00    +0.021 C 
ATOM      7  C   LIG    1       -1.471   0.309   3.319  0.00  0.00    +0.009 C 
ATOM      8  C   LIG    1       -0.231   0.289   2.413  0.00  0.00    +0.005 C 
ATOM      9  C   LIG    1       -0.641  -0.388   1.072  0.00  0.00    +0.002 C 
ATOM     10  C   LIG    1       -2.208  -0.404   1.101  0.00  0.00    -0.022 C 
ATOM     11  C   LIG    1       -2.799   0.953   0.605  0.00  0.00    +0.012 C 
ENDROOT
BRANCH   5  12
ATOM     12  C   LIG    1       -5.936   0.285   4.162  0.00  0.00    +0.004 C 
ATOM     13  C   LIG    1       -6.505   1.138   5.047  0.00  0.00    -0.040 C 
ATOM     14  C   LIG    1       -8.013   1.123   5.290  0.00  0.00    +0.067 C 
ATOM     15  C   LIG    1       -8.580   2.557   5.149  0.00  0.00    +0.122 C 
ATOM     16  C   LIG    1       -7.802   3.591   6.001  0.00  0.00    +0.067 C 
ATOM     17  C   LIG    1       -6.274   3.571   5.746  0.00  0.00    +0.147 C 
ATOM     18  C   LIG    1       -5.770   2.132   5.833  0.00  0.00    -0.023 C 
ATOM     19  C   LIG    1       -4.741   1.791   6.633  0.00  0.00    +0.015 C 
BRANCH  17  20
ATOM     20  O   LIG    1       -5.961   4.123   4.481  0.00  0.00    -0.387 OA
ATOM     21  H   LIG    1       -6.422   3.618   3.808  0.00  0.00    +0.210 HD
ENDBRANCH  17  20
BRANCH  15  22
ATOM     22  O   LIG    1       -9.957   2.583   5.464  0.00  0.00    -0.391 OA
ATOM     23  H   LIG    1      -10.065   2.331   6.384  0.00  0.00    +0.210 HD
ENDBRANCH  15  22
ENDBRANCH   5  12
BRANCH   9  24
ATOM     24  C   LIG    1        0.077   0.236  -0.169  0.00  0.00    +0.012 C 
ATOM     25  C   LIG    1       -0.293  -0.436  -1.505  0.00  0.00    +0.012 C 
BRANCH  24  26
ATOM     26  C   LIG    1        1.590   0.230   0.002  0.00  0.00    -0.027 C 
ATOM     27  C   LIG    1        2.365   1.328   0.053  0.00  0.00    -0.027 C 
BRANCH  27  28
ATOM     28  C   LIG    1        3.879   1.320   0.224  0.00  0.00    +0.011 C 
ATOM     29  C   LIG    1        4.254   1.970   1.571  0.00  0.00    +0.012 C 
BRANCH  28  30
ATOM     30  C   LIG    1        4.620   1.956  -0.993  0.00  0.00    -0.011 C 
ATOM     31  C   LIG    1        4.229   1.296  -2.335  0.00  0.00    +0.008 C 
ATOM     32  C   LIG    1        6.157   1.939  -0.844  0.00  0.00    +0.008 C 
ENDBRANCH  28  30
ENDBRANCH  27  28
ENDBRANCH  24  26
ENDBRANCH   9  24
TORSDOF 7
