REMARK  Name = DB06785
REMARK                            x       y       z     vdW  Elec       q    Type
REMARK                         _______ _______ _______ _____ _____    ______ ____
ROOT
ATOM      1  C   LIG    1        3.481  -1.868  -0.744  0.00  0.00    +0.234 C 
ATOM      2  O   LIG    1        4.266  -1.076  -0.221  0.00  0.00    -0.274 OA
ATOM      3  N   LIG    1        2.201  -2.027  -0.376  0.00  0.00    -0.302 N 
ATOM      4  H   LIG    1        1.629  -2.709  -0.853  0.00  0.00    +0.150 HD
ENDROOT
BRANCH   1   5
ATOM      5  C   LIG    1        3.959  -2.787  -1.885  0.00  0.00    +0.163 C 
BRANCH   5   7
ATOM      6  C   LIG    1        4.608  -1.081  -3.581  0.00  0.00    +0.236 C 
ATOM      7  N   LIG    1        4.902  -2.127  -2.789  0.00  0.00    -0.302 N 
ATOM      8  H   LIG    1        5.843  -2.495  -2.788  0.00  0.00    +0.150 HD
ATOM      9  O   LIG    1        3.497  -0.553  -3.648  0.00  0.00    -0.274 OA
BRANCH   6  10
ATOM     10  CA  LIG    1        5.772  -0.528  -4.421  0.00  0.00    +0.184 C 
BRANCH  10  13
ATOM     11  C   LIG    1        4.875  -0.610  -6.744  0.00  0.00    +0.234 C 
ATOM     12  O   LIG    1        4.870  -1.839  -6.822  0.00  0.00    -0.274 OA
ATOM     13  N   LIG    1        5.306   0.073  -5.671  0.00  0.00    -0.301 N 
ATOM     14  H   LIG    1        5.286   1.083  -5.690  0.00  0.00    +0.150 HD
BRANCH  11  15
ATOM     15  CA  LIG    1        4.379   0.255  -7.922  0.00  0.00    +0.163 C 
BRANCH  15  17
ATOM     16  C   LIG    1        3.305  -1.371  -9.535  0.00  0.00    +0.234 C 
ATOM     17  N   LIG    1        3.257  -0.383  -8.622  0.00  0.00    -0.302 N 
ATOM     18  H   LIG    1        2.347  -0.078  -8.311  0.00  0.00    +0.150 HD
ATOM     19  O   LIG    1        4.335  -1.846 -10.011  0.00  0.00    -0.274 OA
BRANCH  16  20
ATOM     20  CA  LIG    1        1.937  -1.928  -9.960  0.00  0.00    +0.163 C 
BRANCH  20  23
ATOM     21  C   LIG    1        2.232  -4.401  -9.536  0.00  0.00    +0.234 C 
ATOM     22  O   LIG    1        3.043  -4.619 -10.436  0.00  0.00    -0.274 OA
ATOM     23  N   LIG    1        1.670  -3.204  -9.286  0.00  0.00    -0.302 N 
ATOM     24  H   LIG    1        1.016  -3.142  -8.519  0.00  0.00    +0.150 HD
BRANCH  21  25
ATOM     25  CA  LIG    1        1.800  -5.542  -8.593  0.00  0.00    +0.163 C 
BRANCH  25  26
ATOM     26  N   LIG    1        1.891  -5.142  -7.180  0.00  0.00    -0.304 N 
ATOM     27  H   LIG    1        1.007  -5.061  -6.700  0.00  0.00    +0.149 HD
ATOM     28  C   LIG    1        3.017  -4.854  -6.503  0.00  0.00    +0.211 C 
ATOM     29  O   LIG    1        4.146  -4.923  -6.986  0.00  0.00    -0.276 OA
ATOM     30  C   LIG    1        2.844  -4.418  -5.054  0.00  0.00    +0.109 C 
ENDBRANCH  25  26
BRANCH  25  31
ATOM     31  C   LIG    1        2.495  -6.897  -8.912  0.00  0.00    +0.067 C 
BRANCH  31  36
ATOM     32  C   LIG    1        2.442 -11.163  -4.340  0.00  0.00    +0.001 A 
ATOM     33  C   LIG    1        2.968 -10.138  -5.122  0.00  0.00    +0.008 A 
ATOM     34  C   LIG    1        2.214  -9.598  -6.195  0.00  0.00    -0.018 A 
ATOM     35  C   LIG    1        2.717  -8.554  -7.009  0.00  0.00    +0.012 A 
ATOM     36  C   LIG    1        1.950  -8.035  -8.054  0.00  0.00    -0.045 A 
ATOM     37  C   LIG    1        0.679  -8.550  -8.308  0.00  0.00    +0.004 A 
ATOM     38  C   LIG    1        0.157  -9.579  -7.529  0.00  0.00    +0.009 A 
ATOM     39  C   LIG    1        0.911 -10.120  -6.460  0.00  0.00    -0.018 A 
ATOM     40  C   LIG    1        0.407 -11.165  -5.644  0.00  0.00    +0.008 A 
ATOM     41  C   LIG    1        1.174 -11.672  -4.598  0.00  0.00    +0.001 A 
ENDBRANCH  31  36
ENDBRANCH  25  31
ENDBRANCH  21  25
ENDBRANCH  20  23
BRANCH  20  42
ATOM     42  C   LIG    1        1.748  -1.956 -11.502  0.00  0.00    +0.067 C 
BRANCH  42  43
ATOM     43  C   LIG    1        0.348  -2.417 -11.906  0.00  0.00    -0.045 A 
ATOM     44  C   LIG    1       -0.778  -1.710 -11.472  0.00  0.00    +0.005 A 
ATOM     45  C   LIG    1       -2.053  -2.150 -11.815  0.00  0.00    +0.020 A 
ATOM     46  C   LIG    1       -2.202  -3.294 -12.597  0.00  0.00    +0.041 A 
ATOM     47 CL   LIG    1       -3.784  -3.847 -13.009  0.00  0.00    -0.084 Cl
ATOM     48  C   LIG    1       -1.084  -3.995 -13.045  0.00  0.00    +0.020 A 
ATOM     49  C   LIG    1        0.191  -3.555 -12.703  0.00  0.00    +0.005 A 
ENDBRANCH  42  43
ENDBRANCH  20  42
ENDBRANCH  16  20
ENDBRANCH  15  17
BRANCH  15  50
ATOM     50  C   LIG    1        5.530   0.719  -8.862  0.00  0.00    +0.068 C 
BRANCH  50  51
ATOM     51  C   LIG    1        6.488   1.699  -8.191  0.00  0.00    -0.027 A 
ATOM     52  C   LIG    1        7.767   1.295  -7.793  0.00  0.00    +0.114 A 
ATOM     53  N   LIG    1        8.645   2.124  -7.171  0.00  0.00    -0.263 NA
ATOM     54  C   LIG    1        8.251   3.401  -6.935  0.00  0.00    +0.111 A 
ATOM     55  C   LIG    1        6.996   3.889  -7.303  0.00  0.00    +0.020 A 
ATOM     56  C   LIG    1        6.106   3.022  -7.941  0.00  0.00    +0.006 A 
ENDBRANCH  50  51
ENDBRANCH  15  50
ENDBRANCH  11  15
ENDBRANCH  10  13
BRANCH  10  57
ATOM     57  C   LIG    1        6.561   0.533  -3.628  0.00  0.00    +0.187 C 
BRANCH  57  58
ATOM     58  O   LIG    1        7.869   0.660  -4.146  0.00  0.00    -0.393 OA
ATOM     59  H   LIG    1        7.816   1.043  -5.025  0.00  0.00    +0.209 HD
ENDBRANCH  57  58
ENDBRANCH  10  57
ENDBRANCH   6  10
ENDBRANCH   5   7
BRANCH   5  60
ATOM     60  C   LIG    1        4.606  -4.086  -1.356  0.00  0.00    +0.067 C 
BRANCH  60  61
ATOM     61  C   LIG    1        3.753  -4.880  -0.379  0.00  0.00    -0.045 A 
ATOM     62  C   LIG    1        2.636  -5.604  -0.847  0.00  0.00    +0.007 A 
ATOM     63  C   LIG    1        1.817  -6.303   0.060  0.00  0.00    +0.045 A 
ATOM     64  C   LIG    1        2.113  -6.284   1.438  0.00  0.00    +0.117 A 
ATOM     65  C   LIG    1        3.232  -5.568   1.907  0.00  0.00    +0.045 A 
ATOM     66  C   LIG    1        4.050  -4.867   1.000  0.00  0.00    +0.007 A 
BRANCH  64  67
ATOM     67  O   LIG    1        1.318  -6.957   2.318  0.00  0.00    -0.507 OA
ATOM     68  H   LIG    1        0.586  -7.410   1.893  0.00  0.00    +0.292 HD
ENDBRANCH  64  67
ENDBRANCH  60  61
ENDBRANCH   5  60
ENDBRANCH   1   5
BRANCH   3  69
ATOM     69  C   LIG    1        1.534  -1.285   0.688  0.00  0.00    +0.159 C 
BRANCH  69  70
ATOM     70  C   LIG    1        0.027  -1.268   0.395  0.00  0.00    +0.234 C 
ATOM     71  N   LIG    1       -0.614  -0.119   0.667  0.00  0.00    -0.302 N 
ATOM     72  H   LIG    1       -0.093   0.663   1.037  0.00  0.00    +0.150 HD
ATOM     73  O   LIG    1       -0.520  -2.282  -0.043  0.00  0.00    -0.274 OA
BRANCH  71  74
ATOM     74  C   LIG    1       -2.037   0.119   0.432  0.00  0.00    +0.159 C 
BRANCH  74  75
ATOM     75  C   LIG    1       -2.245   0.527  -1.036  0.00  0.00    +0.234 C 
ATOM     76  O   LIG    1       -2.208   1.715  -1.358  0.00  0.00    -0.274 OA
ATOM     77  N   LIG    1       -2.405  -0.491  -1.896  0.00  0.00    -0.302 N 
ATOM     78  H   LIG    1       -2.411  -1.435  -1.538  0.00  0.00    +0.150 HD
BRANCH  77  79
ATOM     79  C   LIG    1       -2.514  -0.369  -3.348  0.00  0.00    +0.159 C 
BRANCH  79  80
ATOM     80  C   LIG    1       -3.885   0.220  -3.754  0.00  0.00    +0.237 C 
ATOM     81  N   LIG    1       -3.910   1.343  -4.517  0.00  0.00    -0.288 N 
ATOM     82  C   LIG    1       -2.763   2.200  -4.824  0.00  0.00    +0.109 C 
ATOM     83  C   LIG    1       -3.367   3.512  -5.301  0.00  0.00    +0.021 C 
ATOM     84  C   LIG    1       -4.647   3.069  -5.983  0.00  0.00    +0.033 C 
ATOM     85  C   LIG    1       -5.142   1.875  -5.143  0.00  0.00    +0.162 C 
ATOM     86  O   LIG    1       -4.898  -0.372  -3.376  0.00  0.00    -0.274 OA
BRANCH  85  87
ATOM     87  C   LIG    1       -5.907   0.846  -5.999  0.00  0.00    +0.234 C 
ATOM     88  N   LIG    1       -7.124   0.498  -5.545  0.00  0.00    -0.303 N 
ATOM     89  H   LIG    1       -7.466   0.937  -4.703  0.00  0.00    +0.149 HD
ATOM     90  O   LIG    1       -5.377   0.378  -7.007  0.00  0.00    -0.274 OA
BRANCH  88  91
ATOM     91  C   LIG    1       -8.023  -0.505  -6.133  0.00  0.00    +0.156 C 
ATOM     92  C   LIG    1       -7.376  -1.908  -6.034  0.00  0.00    +0.038 C 
BRANCH  91  93
ATOM     93  C   LIG    1       -8.533  -0.149  -7.556  0.00  0.00    +0.231 C 
ATOM     94  O   LIG    1       -8.448   1.001  -7.985  0.00  0.00    -0.274 OA
ATOM     95  N   LIG    1       -9.101  -1.127  -8.268  0.00  0.00    -0.328 N 
ATOM     96  H   LIG    1       -9.173  -2.061  -7.891  0.00  0.00    +0.145 HD
ATOM     97  H   LIG    1       -9.459  -0.936  -9.192  0.00  0.00    +0.145 HD
ENDBRANCH  91  93
ENDBRANCH  88  91
ENDBRANCH  85  87
ENDBRANCH  79  80
BRANCH  79  98
ATOM     98  C   LIG    1       -2.346  -1.751  -4.018  0.00  0.00    +0.032 C 
BRANCH  98  99
ATOM     99  C   LIG    1       -1.025  -2.493  -3.709  0.00  0.00    +0.005 C 
BRANCH  99 100
ATOM    100  C   LIG    1        0.289  -1.718  -3.973  0.00  0.00    +0.041 C 
BRANCH 100 101
ATOM    101  C   LIG    1        0.454  -1.059  -5.363  0.00  0.00    +0.243 C 
BRANCH 101 102
ATOM    102  N   LIG    1        0.084  -1.978  -6.432  0.00  0.00    -0.114 NA
ATOM    103  C   LIG    1       -0.691  -1.589  -7.373  0.00  0.00    +0.381 C 
BRANCH 103 104
ATOM    104  N   LIG    1       -0.838  -0.223  -7.778  0.00  0.00    -0.276 N 
ATOM    105  H   LIG    1       -0.360   0.455  -7.202  0.00  0.00    +0.258 HD
BRANCH 104 106
ATOM    106  C   LIG    1       -2.118   0.276  -8.270  0.00  0.00    +0.192 C 
ATOM    107  C   LIG    1       -1.968   1.730  -8.732  0.00  0.00    +0.044 C 
ENDBRANCH 104 106
ENDBRANCH 103 104
BRANCH 103 108
ATOM    108  N   LIG    1       -1.448  -2.494  -8.175  0.00  0.00    -0.276 N 
ATOM    109  H   LIG    1       -2.180  -2.115  -8.758  0.00  0.00    +0.258 HD
BRANCH 108 110
ATOM    110  C   LIG    1       -1.603  -3.899  -7.817  0.00  0.00    +0.192 C 
ATOM    111  C   LIG    1       -2.027  -4.700  -9.055  0.00  0.00    +0.044 C 
ENDBRANCH 108 110
ENDBRANCH 103 108
ENDBRANCH 101 102
ENDBRANCH 100 101
ENDBRANCH  99 100
ENDBRANCH  98  99
ENDBRANCH  79  98
ENDBRANCH  77  79
ENDBRANCH  74  75
BRANCH  74 112
ATOM    112  C   LIG    1       -2.531   1.169   1.456  0.00  0.00    +0.034 C 
BRANCH 112 113
ATOM    113  C   LIG    1       -4.042   1.498   1.415  0.00  0.00    -0.015 C 
ATOM    114  C   LIG    1       -4.928   0.250   1.614  0.00  0.00    +0.007 C 
ATOM    115  C   LIG    1       -4.382   2.616   2.423  0.00  0.00    +0.007 C 
ENDBRANCH 112 113
ENDBRANCH  74 112
ENDBRANCH  71  74
ENDBRANCH  69  70
BRANCH  69 116
ATOM    116  C   LIG    1        1.851  -1.868   2.087  0.00  0.00    +0.032 C 
BRANCH 116 117
ATOM    117  C   LIG    1        1.245  -1.063   3.255  0.00  0.00    +0.005 C 
BRANCH 117 118
ATOM    118  C   LIG    1        1.545  -1.658   4.644  0.00  0.00    +0.041 C 
BRANCH 118 119
ATOM    119  C   LIG    1        1.046  -0.784   5.815  0.00  0.00    +0.243 C 
BRANCH 119 120
ATOM    120  N   LIG    1       -0.407  -0.660   5.785  0.00  0.00    -0.114 NA
ATOM    121  C   LIG    1       -0.976   0.471   5.584  0.00  0.00    +0.381 C 
BRANCH 121 122
ATOM    122  N   LIG    1       -2.359   0.590   5.244  0.00  0.00    -0.276 N 
ATOM    123  H   LIG    1       -2.823   1.449   5.503  0.00  0.00    +0.258 HD
BRANCH 122 124
ATOM    124  C   LIG    1       -3.239  -0.573   5.159  0.00  0.00    +0.192 C 
ATOM    125  C   LIG    1       -3.774  -0.970   6.543  0.00  0.00    +0.044 C 
ENDBRANCH 122 124
ENDBRANCH 121 122
BRANCH 121 126
ATOM    126  N   LIG    1       -0.342   1.742   5.766  0.00  0.00    -0.276 N 
ATOM    127  H   LIG    1        0.635   1.696   6.017  0.00  0.00    +0.258 HD
BRANCH 126 128
ATOM    128  C   LIG    1       -0.600   2.846   4.840  0.00  0.00    +0.192 C 
ATOM    129  C   LIG    1        0.211   2.681   3.545  0.00  0.00    +0.044 C 
ENDBRANCH 126 128
ENDBRANCH 121 126
ENDBRANCH 119 120
ENDBRANCH 118 119
ENDBRANCH 117 118
ENDBRANCH 116 117
ENDBRANCH  69 116
ENDBRANCH   3  69
TORSDOF 50
