REMARK  Name = DB06150
REMARK                            x       y       z     vdW  Elec       q    Type
REMARK                         _______ _______ _______ _____ _____    ______ ____
ROOT
ATOM      1  N   LIG    1        1.432   0.098   0.000  0.00  0.00    -0.199 N 
ATOM      2  H   LIG    1        1.900  -0.795   0.000  0.00  0.00    +0.175 HD
ENDROOT
BRANCH   1   5
ATOM      3  C   LIG    1       -2.054  -1.054   0.000  0.00  0.00    +0.222 A 
ATOM      4  C   LIG    1       -0.657  -1.100   0.000  0.00  0.00    +0.112 A 
ATOM      5  C   LIG    1        0.032   0.117   0.000  0.00  0.00    +0.148 A 
ATOM      6  N   LIG    1       -0.625   1.308   0.000  0.00  0.00    -0.178 NA
ATOM      7  C   LIG    1       -1.987   1.261   0.000  0.00  0.00    +0.323 A 
ATOM      8  N   LIG    1       -2.735   0.130   0.000  0.00  0.00    -0.160 NA
BRANCH   7   9
ATOM      9  O   LIG    1       -2.719   2.434   0.000  0.00  0.00    -0.466 OA
ATOM     10  C   LIG    1       -2.032   3.684   0.000  0.00  0.00    +0.280 C 
ENDBRANCH   7   9
BRANCH   3  11
ATOM     11  O   LIG    1       -2.755  -2.246   0.000  0.00  0.00    -0.479 OA
ATOM     12  C   LIG    1       -4.181  -2.222   0.000  0.00  0.00    +0.279 C 
ENDBRANCH   3  11
ENDBRANCH   1   5
BRANCH   1  13
ATOM     13  S   LIG    1        2.422   1.570   0.000  0.00  0.00    +0.073 S 
ATOM     14  O   LIG    1        2.168   2.253   1.274  0.00  0.00    -0.150 OA
ATOM     15  O   LIG    1        2.168   2.253  -1.274  0.00  0.00    -0.150 OA
BRANCH  13  16
ATOM     16  C   LIG    1        4.115   0.991   0.000  0.00  0.00    +0.109 A 
ATOM     17  C   LIG    1        4.769   0.759  -1.212  0.00  0.00    +0.030 A 
ATOM     18  C   LIG    1        6.085   0.303  -1.211  0.00  0.00    +0.024 A 
ATOM     19  C   LIG    1        6.740   0.077   0.000  0.00  0.00    +0.025 A 
ATOM     20  C   LIG    1        6.085   0.303   1.211  0.00  0.00    +0.024 A 
ATOM     21  C   LIG    1        4.769   0.759   1.212  0.00  0.00    +0.030 A 
BRANCH  19  22
ATOM     22  N   LIG    1        8.057  -0.378   0.000  0.00  0.00    -0.358 N 
ATOM     23  H   LIG    1        8.532  -0.529   0.879  0.00  0.00    +0.142 HD
ATOM     24  H   LIG    1        8.532  -0.529  -0.879  0.00  0.00    +0.142 HD
ENDBRANCH  19  22
ENDBRANCH  13  16
ENDBRANCH   1  13
TORSDOF 6
