REMARK  Name = DB06523
REMARK                            x       y       z     vdW  Elec       q    Type
REMARK                         _______ _______ _______ _____ _____    ______ ____
ROOT
ATOM      1  C1* LIG    1        1.492  -0.127   0.171  0.00  0.00    +0.270 C 
ATOM      2  O4* LIG    1        2.102   1.119  -0.009  0.00  0.00    -0.344 OA
ATOM      3  C4* LIG    1        2.470   1.730   1.228  0.00  0.00    +0.177 C 
ATOM      4  C3* LIG    1        1.936   0.770   2.301  0.00  0.00    +0.178 C 
ATOM      5  C2* LIG    1        1.847  -0.582   1.589  0.00  0.00    +0.196 C 
ENDROOT
BRANCH   1   7
ATOM      6  C   LIG    1       -0.714  -0.810  -0.913  0.00  0.00    +0.223 A 
ATOM      7  N   LIG    1        0.070  -0.033  -0.109  0.00  0.00    -0.220 N 
ATOM      8  N   LIG    1       -0.719   0.888   0.457  0.00  0.00    -0.142 NA
ATOM      9  C   LIG    1       -1.923   0.632  -0.037  0.00  0.00    +0.236 A 
ATOM     10  N   LIG    1       -1.954  -0.402  -0.875  0.00  0.00    -0.211 NA
BRANCH   9  11
ATOM     11  C   LIG    1       -3.116   1.387   0.298  0.00  0.00    +0.281 C 
ATOM     12  N   LIG    1       -2.937   2.452   1.089  0.00  0.00    -0.323 N 
ATOM     13  H   LIG    1       -3.726   3.023   1.357  0.00  0.00    +0.145 HD
ATOM     14  H   LIG    1       -2.013   2.692   1.418  0.00  0.00    +0.145 HD
ATOM     15  O   LIG    1       -4.229   1.073  -0.124  0.00  0.00    -0.267 OA
ENDBRANCH   9  11
ENDBRANCH   1   7
BRANCH   4  16
ATOM     16  O3* LIG    1        2.722   0.754   3.480  0.00  0.00    -0.386 OA
ATOM     17  H3* LIG    1        2.390   0.066   4.061  0.00  0.00    +0.210 HD
ENDBRANCH   4  16
BRANCH   5  18
ATOM     18  O2* LIG    1        3.062  -1.315   1.542  0.00  0.00    -0.385 OA
ATOM     19  H2* LIG    1        3.264  -1.631   2.425  0.00  0.00    +0.210 HD
ENDBRANCH   5  18
BRANCH   3  20
ATOM     20  C5* LIG    1        1.898   3.159   1.306  0.00  0.00    +0.190 C 
BRANCH  20  21
ATOM     21  O5* LIG    1        2.486   3.991   0.328  0.00  0.00    -0.392 OA
ATOM     22  H5* LIG    1        2.109   4.870   0.406  0.00  0.00    +0.210 HD
ENDBRANCH  20  21
ENDBRANCH   3  20
TORSDOF 6
