REMARK  Name = DB06797
REMARK                            x       y       z     vdW  Elec       q    Type
REMARK                         _______ _______ _______ _____ _____    ______ ____
ROOT
ATOM      1  C   LIG    1       -0.056   0.092  -0.051  0.00  0.00    +0.039 C 
ATOM      2  C   LIG    1       -0.639   1.529  -0.052  0.00  0.00    +0.018 C 
ENDROOT
BRANCH   1   3
ATOM      3  C   LIG    1        1.525   0.125  -0.040  0.00  0.00    -0.002 C 
ATOM      4  C   LIG    1        2.147   0.790  -1.297  0.00  0.00    +0.008 C 
BRANCH   3   5
ATOM      5  C   LIG    1        2.146   0.721   1.259  0.00  0.00    +0.000 C 
ATOM      6  C   LIG    1        3.666   0.532   1.404  0.00  0.00    +0.004 C 
ENDBRANCH   3   5
ENDBRANCH   1   3
BRANCH   1   7
ATOM      7  C   LIG    1       -0.613  -0.645   1.204  0.00  0.00    +0.244 C 
BRANCH   7   8
ATOM      8  O   LIG    1       -0.107  -1.973   1.306  0.00  0.00    -0.450 OA
BRANCH   8   9
ATOM      9  C   LIG    1       -0.465  -2.770   2.329  0.00  0.00    +0.398 C 
ATOM     10  O   LIG    1       -1.231  -2.461   3.243  0.00  0.00    -0.227 OA
ATOM     11  N   LIG    1        0.161  -3.988   2.199  0.00  0.00    -0.295 N 
ATOM     12  H   LIG    1        0.774  -4.148   1.413  0.00  0.00    +0.148 HD
ATOM     13  H   LIG    1       -0.002  -4.704   2.891  0.00  0.00    +0.148 HD
ENDBRANCH   8   9
ENDBRANCH   7   8
ENDBRANCH   1   7
BRANCH   1  14
ATOM     14  C   LIG    1       -0.562  -0.654  -1.323  0.00  0.00    +0.244 C 
BRANCH  14  15
ATOM     15  O   LIG    1       -1.980  -0.809  -1.338  0.00  0.00    -0.450 OA
BRANCH  15  16
ATOM     16  C   LIG    1       -2.593  -1.461  -2.343  0.00  0.00    +0.398 C 
ATOM     17  O   LIG    1       -2.031  -1.965  -3.316  0.00  0.00    -0.227 OA
ATOM     18  N   LIG    1       -3.950  -1.479  -2.115  0.00  0.00    -0.295 N 
ATOM     19  H   LIG    1       -4.318  -1.041  -1.283  0.00  0.00    +0.148 HD
ATOM     20  H   LIG    1       -4.557  -1.933  -2.781  0.00  0.00    +0.148 HD
ENDBRANCH  15  16
ENDBRANCH  14  15
ENDBRANCH   1  14
TORSDOF 8
