REMARK  Name = DB06558
REMARK                            x       y       z     vdW  Elec       q    Type
REMARK                         _______ _______ _______ _____ _____    ______ ____
ROOT
ATOM      1  C   LIG    1        1.487  -0.159  -1.407  0.00  0.00    +0.188 A 
ATOM      2  C   LIG    1        2.214  -1.298  -1.006  0.00  0.00    +0.231 A 
ATOM      3  C   LIG    1        3.208  -1.135  -0.024  0.00  0.00    +0.264 A 
ATOM      4  N   LIG    1        3.447   0.071   0.563  0.00  0.00    -0.190 NA
ATOM      5  C   LIG    1        2.690   1.121   0.154  0.00  0.00    +0.166 A 
ATOM      6  N   LIG    1        1.738   1.042  -0.811  0.00  0.00    -0.207 NA
ENDROOT
BRANCH   5   7
ATOM      7  C   LIG    1        2.900   2.448   0.826  0.00  0.00    +0.023 A 
ATOM      8  C   LIG    1        3.992   2.674   1.681  0.00  0.00    +0.031 A 
ATOM      9  C   LIG    1        4.146   3.917   2.294  0.00  0.00    +0.112 A 
ATOM     10  N   LIG    1        3.277   4.939   2.111  0.00  0.00    -0.252 NA
ATOM     11  C   LIG    1        2.211   4.742   1.287  0.00  0.00    +0.110 A 
ATOM     12  C   LIG    1        2.005   3.517   0.636  0.00  0.00    +0.043 A 
BRANCH  11  13
ATOM     13  C   LIG    1        1.258   5.898   1.129  0.00  0.00    +0.198 A 
ATOM     14  N   LIG    1        1.612   7.160   1.259  0.00  0.00    -0.107 NA
ATOM     15  N   LIG    1        0.467   7.887   1.036  0.00  0.00    -0.023 NA
ATOM     16  N   LIG    1       -0.545   7.002   0.776  0.00  0.00    -0.046 NA
ATOM     17  N   LIG    1       -0.015   5.735   0.839  0.00  0.00    -0.238 N 
ATOM     18  H   LIG    1       -0.489   4.884   0.697  0.00  0.00    +0.192 HD
ENDBRANCH  11  13
ENDBRANCH   5   7
BRANCH   1  19
ATOM     19  N   LIG    1        0.517  -0.295  -2.377  0.00  0.00    -0.195 N 
ATOM     20  H   LIG    1        0.361  -1.196  -2.744  0.00  0.00    +0.175 HD
BRANCH  19  21
ATOM     21  S   LIG    1       -0.359   0.886  -2.941  0.00  0.00    +0.091 S 
ATOM     22  O   LIG    1       -1.277   0.454  -4.001  0.00  0.00    -0.148 OA
ATOM     23  O   LIG    1        0.378   2.136  -3.171  0.00  0.00    -0.148 OA
BRANCH  21  24
ATOM     24  C   LIG    1       -1.436   1.185  -1.531  0.00  0.00    +0.197 A 
ATOM     25  C   LIG    1       -2.370   0.227  -1.125  0.00  0.00    +0.049 A 
ATOM     26  C   LIG    1       -3.162   0.502  -0.009  0.00  0.00    +0.009 A 
ATOM     27  C   LIG    1       -3.005   1.714   0.675  0.00  0.00    -0.027 A 
ATOM     28  C   LIG    1       -2.050   2.619   0.194  0.00  0.00    +0.117 A 
ATOM     29  N   LIG    1       -1.274   2.374  -0.891  0.00  0.00    -0.235 NA
BRANCH  27  30
ATOM     30  C   LIG    1       -3.843   2.034   1.912  0.00  0.00    +0.014 C 
ATOM     31  C   LIG    1       -2.973   2.142   3.178  0.00  0.00    +0.012 C 
ATOM     32  C   LIG    1       -4.720   3.284   1.708  0.00  0.00    +0.012 C 
ENDBRANCH  27  30
ENDBRANCH  21  24
ENDBRANCH  19  21
ENDBRANCH   1  19
BRANCH   3  33
ATOM     33  O   LIG    1        3.971  -2.225   0.362  0.00  0.00    -0.471 OA
BRANCH  33  34
ATOM     34  C   LIG    1        4.918  -2.101   1.422  0.00  0.00    +0.258 C 
BRANCH  34  35
ATOM     35  C   LIG    1        5.532  -3.484   1.681  0.00  0.00    +0.196 C 
BRANCH  35  36
ATOM     36  O   LIG    1        6.477  -3.427   2.728  0.00  0.00    -0.392 OA
ATOM     37  H   LIG    1        6.842  -4.305   2.860  0.00  0.00    +0.210 HD
ENDBRANCH  35  36
ENDBRANCH  34  35
ENDBRANCH  33  34
ENDBRANCH   3  33
BRANCH   2  38
ATOM     38  O   LIG    1        1.943  -2.528  -1.578  0.00  0.00    -0.443 OA
BRANCH  38  39
ATOM     39  C   LIG    1        1.726  -3.626  -0.773  0.00  0.00    +0.170 A 
ATOM     40  C   LIG    1        2.535  -4.747  -0.969  0.00  0.00    +0.050 A 
ATOM     41  C   LIG    1        2.369  -5.884  -0.182  0.00  0.00    +0.004 A 
ATOM     42  C   LIG    1        1.383  -5.909   0.801  0.00  0.00    +0.004 A 
ATOM     43  C   LIG    1        0.561  -4.800   0.995  0.00  0.00    +0.049 A 
ATOM     44  C   LIG    1        0.718  -3.644   0.208  0.00  0.00    +0.162 A 
BRANCH  44  45
ATOM     45  O   LIG    1       -0.067  -2.512   0.345  0.00  0.00    -0.491 OA
ATOM     46  C   LIG    1       -1.045  -2.457   1.376  0.00  0.00    +0.277 C 
ENDBRANCH  44  45
ENDBRANCH  38  39
ENDBRANCH   2  38
TORSDOF 13
