REMARK  Name = DB06230
REMARK                            x       y       z     vdW  Elec       q    Type
REMARK                         _______ _______ _______ _____ _____    ______ ____
ROOT
ATOM      1  C   LIG    1       -2.764   1.468   4.532  0.00  0.00    +0.159 A 
ATOM      2  C   LIG    1       -3.016   1.152   3.200  0.00  0.00    +0.167 A 
ATOM      3  C   LIG    1       -2.104   1.463   2.225  0.00  0.00    +0.014 A 
ATOM      4  C   LIG    1       -2.534   0.839   0.930  0.00  0.00    +0.072 C 
ATOM      5  C   LIG    1       -1.982   1.695  -0.253  0.00  0.00    +0.096 C 
ATOM      6  C   LIG    1       -2.768   3.027  -0.367  0.00  0.00    +0.042 C 
ATOM      7  C   LIG    1       -4.298   2.811  -0.412  0.00  0.00    +0.037 C 
ATOM      8  C   LIG    1       -4.766   2.139   0.875  0.00  0.00    -0.036 C 
ATOM      9  C   LIG    1       -5.706   2.702   1.659  0.00  0.00    +0.011 C 
ATOM     10  C   LIG    1       -0.423   1.829  -0.029  0.00  0.00    +0.094 C 
ATOM     11  N   LIG    1        0.209   0.483  -0.059  0.00  0.00    -0.296 NA
ATOM     12  C   LIG    1       -0.351  -0.530   0.859  0.00  0.00    +0.086 C 
ATOM     13  C   LIG    1       -0.102   2.649   1.274  0.00  0.00    +0.057 C 
ATOM     14  C   LIG    1       -4.064   0.805   1.226  0.00  0.00    +0.213 C 
ATOM     15  C   LIG    1       -1.897  -0.580   0.821  0.00  0.00    +0.034 C 
ATOM     16  C   LIG    1       -0.956   2.213   2.469  0.00  0.00    -0.038 A 
ATOM     17  C   LIG    1       -0.701   2.550   3.807  0.00  0.00    +0.008 A 
ATOM     18  O   LIG    1       -4.133   0.557   2.654  0.00  0.00    -0.480 OA
ATOM     19  C   LIG    1       -1.584   2.166   4.832  0.00  0.00    +0.049 A 
ENDROOT
BRANCH   1  20
ATOM     20  O   LIG    1       -3.658   1.133   5.514  0.00  0.00    -0.503 OA
ATOM     21  H   LIG    1       -3.379   1.416   6.388  0.00  0.00    +0.292 HD
ENDBRANCH   1  20
BRANCH   5  22
ATOM     22  O   LIG    1       -2.258   1.017  -1.478  0.00  0.00    -0.386 OA
ATOM     23  H   LIG    1       -1.766   0.192  -1.478  0.00  0.00    +0.210 HD
ENDBRANCH   5  22
BRANCH  11  24
ATOM     24  C   LIG    1        1.675   0.505  -0.084  0.00  0.00    +0.088 C 
BRANCH  24  25
ATOM     25  C   LIG    1        2.290  -0.803  -0.628  0.00  0.00    +0.003 C 
ATOM     26  C   LIG    1        1.748  -1.465  -1.876  0.00  0.00    +0.005 C 
ATOM     27  C   LIG    1        3.088  -0.764  -1.911  0.00  0.00    +0.005 C 
ENDBRANCH  24  25
ENDBRANCH  11  24
TORSDOF 4
