REMARK  Name = DB06329
REMARK                            x       y       z     vdW  Elec       q    Type
REMARK                         _______ _______ _______ _____ _____    ______ ____
ROOT
ATOM      1  O   LIG    1        0.006   2.292  -0.127  0.00  0.00    -0.259 OA
ATOM      2  C   LIG    1       -0.468   1.158  -0.067  0.00  0.00    +0.295 A 
ATOM      3  S   LIG    1       -2.266   0.811  -0.124  0.00  0.00    -0.023 S 
ATOM      4  C   LIG    1       -1.967  -0.906  -0.049  0.00  0.00    +0.078 A 
ATOM      5  C   LIG    1       -2.869  -1.970  -0.075  0.00  0.00    +0.133 A 
ATOM      6  N   LIG    1       -2.450  -3.263  -0.023  0.00  0.00    -0.222 NA
ATOM      7  C   LIG    1       -1.108  -3.463   0.054  0.00  0.00    +0.214 A 
ATOM      8  N   LIG    1       -0.162  -2.489   0.086  0.00  0.00    -0.196 NA
ATOM      9  C   LIG    1       -0.612  -1.202   0.036  0.00  0.00    +0.158 A 
ATOM     10  N   LIG    1        0.205  -0.065   0.057  0.00  0.00    -0.256 N 
ENDROOT
BRANCH  10  11
ATOM     11  C   LIG    1        1.655  -0.114   0.072  0.00  0.00    +0.265 C 
ATOM     12  O   LIG    1        2.195   0.764   1.017  0.00  0.00    -0.347 OA
ATOM     13  C   LIG    1        3.527   1.144   0.665  0.00  0.00    +0.150 C 
ATOM     14  C   LIG    1        3.767   0.427  -0.668  0.00  0.00    +0.083 C 
ATOM     15  C   LIG    1        2.370   0.211  -1.228  0.00  0.00    +0.229 C 
BRANCH  13  16
ATOM     16  C   LIG    1        3.609   2.680   0.582  0.00  0.00    +0.187 C 
BRANCH  16  17
ATOM     17  O   LIG    1        3.397   3.264   1.851  0.00  0.00    -0.392 OA
ATOM     18  H   LIG    1        3.410   4.219   1.754  0.00  0.00    +0.210 HD
ENDBRANCH  16  17
ENDBRANCH  13  16
BRANCH  15  19
ATOM     19  O   LIG    1        2.274  -0.859  -2.165  0.00  0.00    -0.457 OA
BRANCH  19  20
ATOM     20  C   LIG    1        2.616  -0.687  -3.459  0.00  0.00    +0.304 C 
ATOM     21  O   LIG    1        3.027   0.354  -3.974  0.00  0.00    -0.251 OA
ATOM     22  C   LIG    1        2.443  -1.961  -4.275  0.00  0.00    +0.136 C 
ENDBRANCH  19  20
ENDBRANCH  15  19
ENDBRANCH  10  11
BRANCH   7  23
ATOM     23  N   LIG    1       -0.663  -4.780   0.104  0.00  0.00    -0.327 N 
ATOM     24  H   LIG    1       -1.337  -5.532   0.082  0.00  0.00    +0.145 HD
ATOM     25  H   LIG    1        0.328  -4.965   0.162  0.00  0.00    +0.145 HD
ENDBRANCH   7  23
TORSDOF 6
