REMARK  Name = DB06247
REMARK                            x       y       z     vdW  Elec       q    Type
REMARK                         _______ _______ _______ _____ _____    ______ ____
ROOT
ATOM      1  C   LIG    1       -0.179   0.363   0.198  0.00  0.00    +0.039 A 
ATOM      2  C   LIG    1       -0.964   1.452  -0.199  0.00  0.00    +0.043 A 
ATOM      3  C   LIG    1       -2.371   1.331  -0.290  0.00  0.00    +0.090 A 
ATOM      4  N   LIG    1       -3.123   2.405  -0.665  0.00  0.00    -0.252 NA
ATOM      5  C   LIG    1       -4.467   2.232  -0.735  0.00  0.00    +0.131 A 
ATOM      6  C   LIG    1       -5.068   1.011  -0.438  0.00  0.00    +0.131 A 
ATOM      7  N   LIG    1       -4.341  -0.072  -0.064  0.00  0.00    -0.252 NA
ATOM      8  C   LIG    1       -2.988   0.078   0.014  0.00  0.00    +0.089 A 
ATOM      9  C   LIG    1       -2.179  -1.016   0.394  0.00  0.00    +0.030 A 
ATOM     10  C   LIG    1       -0.796  -0.865   0.474  0.00  0.00    +0.015 A 
ENDROOT
BRANCH   1  15
ATOM     11  C   LIG    1        3.197   1.479   3.461  0.00  0.00    +0.003 C 
ATOM     12  C   LIG    1        1.688   1.159   3.412  0.00  0.00    +0.019 C 
ATOM     13  C   LIG    1        1.404  -0.161   2.656  0.00  0.00    +0.108 C 
ATOM     14  N   LIG    1        2.003  -0.040   1.310  0.00  0.00    -0.298 N 
ATOM     15  C   LIG    1        1.325   0.510   0.261  0.00  0.00    +0.247 C 
ATOM     16  O   LIG    1        1.891   1.108  -0.659  0.00  0.00    -0.270 OA
ATOM     17  C   LIG    1        3.476   0.050   1.351  0.00  0.00    +0.108 C 
ATOM     18  C   LIG    1        3.849   1.372   2.066  0.00  0.00    +0.019 C 
ENDBRANCH   1  15
TORSDOF 1
