REMARK  Name = DB06188
REMARK                            x       y       z     vdW  Elec       q    Type
REMARK                         _______ _______ _______ _____ _____    ______ ____
ROOT
ATOM      1  C   LIG    1        1.514   0.207  -0.260  0.00  0.00    +0.145 C 
ENDROOT
BRANCH   1   2
ATOM      2  C   LIG    1        2.151   0.922  -1.499  0.00  0.00    +0.134 A 
ATOM      3  N   LIG    1        2.358   0.223  -2.694  0.00  0.00    -0.290 N 
ATOM      4  C   LIG    1        2.932   0.766  -3.835  0.00  0.00    +0.262 A 
ATOM      5  O   LIG    1        3.103   0.150  -4.892  0.00  0.00    -0.267 OA
ATOM      6  C   LIG    1        3.333   2.218  -3.670  0.00  0.00    +0.065 A 
ATOM      7  C   LIG    1        3.923   2.928  -4.722  0.00  0.00    +0.017 A 
ATOM      8  C   LIG    1        4.277   4.265  -4.533  0.00  0.00    +0.021 A 
ATOM      9  C   LIG    1        4.047   4.889  -3.305  0.00  0.00    +0.043 A 
ATOM     10 CL   LIG    1        4.486   6.543  -3.083  0.00  0.00    -0.083 Cl
ATOM     11  C   LIG    1        3.461   4.178  -2.256  0.00  0.00    +0.048 A 
ATOM     12  C   LIG    1        3.104   2.841  -2.441  0.00  0.00    +0.080 A 
ATOM     13  N   LIG    1        2.520   2.152  -1.375  0.00  0.00    -0.232 NA
BRANCH   3  14
ATOM     14  C   LIG    1        1.940  -1.195  -2.841  0.00  0.00    +0.161 C 
BRANCH  14  15
ATOM     15  C   LIG    1        3.040  -2.246  -2.677  0.00  0.00    -0.028 A 
ATOM     16  C   LIG    1        4.096  -2.064  -1.776  0.00  0.00    +0.005 A 
ATOM     17  C   LIG    1        5.083  -3.037  -1.651  0.00  0.00    +0.000 A 
ATOM     18  C   LIG    1        5.016  -4.192  -2.428  0.00  0.00    +0.000 A 
ATOM     19  C   LIG    1        3.970  -4.380  -3.329  0.00  0.00    +0.000 A 
ATOM     20  C   LIG    1        2.983  -3.407  -3.453  0.00  0.00    +0.005 A 
ENDBRANCH  14  15
ENDBRANCH   3  14
ENDBRANCH   1   2
BRANCH   1  22
ATOM     21  C   LIG    1       -0.716  -0.872  -0.197  0.00  0.00    +0.247 C 
ATOM     22  N   LIG    1        0.018   0.277  -0.342  0.00  0.00    -0.287 N 
ATOM     23  O   LIG    1       -0.217  -1.998  -0.251  0.00  0.00    -0.270 OA
BRANCH  21  28
ATOM     24  C   LIG    1       -6.457  -0.654   0.732  0.00  0.00    +0.044 C 
ATOM     25  C   LIG    1       -4.957  -0.703   0.500  0.00  0.00    -0.050 A 
ATOM     26  C   LIG    1       -4.087  -0.056   1.379  0.00  0.00    +0.004 A 
ATOM     27  C   LIG    1       -2.714  -0.106   1.160  0.00  0.00    +0.013 A 
ATOM     28  C   LIG    1       -2.202  -0.790   0.050  0.00  0.00    +0.037 A 
ATOM     29  C   LIG    1       -3.079  -1.456  -0.814  0.00  0.00    +0.013 A 
ATOM     30  C   LIG    1       -4.452  -1.405  -0.594  0.00  0.00    +0.004 A 
ENDBRANCH  21  28
BRANCH  22  31
ATOM     31  C   LIG    1       -0.597   1.630  -0.401  0.00  0.00    +0.107 C 
BRANCH  31  32
ATOM     32  C   LIG    1       -1.505   1.915  -1.622  0.00  0.00    -0.001 C 
BRANCH  32  33
ATOM     33  C   LIG    1       -0.814   1.721  -2.982  0.00  0.00    -0.085 C 
BRANCH  33  34
ATOM     34  N   LIG    1       -1.793   2.031  -4.118  0.00  0.00    +0.378 N 
ATOM     35  H   LIG    1       -2.593   1.416  -4.067  0.00  0.00    -0.090 HD
ATOM     36  H   LIG    1       -2.112   2.987  -4.053  0.00  0.00    -0.090 HD
ATOM     37  H   LIG    1       -1.340   1.901  -5.012  0.00  0.00    -0.090 HD
ENDBRANCH  33  34
ENDBRANCH  32  33
ENDBRANCH  31  32
ENDBRANCH  22  31
ENDBRANCH   1  22
BRANCH   1  38
ATOM     38  C   LIG    1        2.066   0.725   1.121  0.00  0.00    +0.011 C 
ATOM     39  C   LIG    1        1.315   0.138   2.337  0.00  0.00    +0.009 C 
ATOM     40  C   LIG    1        3.579   0.453   1.289  0.00  0.00    +0.009 C 
ENDBRANCH   1  38
TORSDOF 10
