REMARK  Name = DB06461
REMARK                            x       y       z     vdW  Elec       q    Type
REMARK                         _______ _______ _______ _____ _____    ______ ____
ROOT
ATOM      1  C   LIG    1        1.243   0.242  -0.145  0.00  0.00    -0.002 C 
ATOM      2  C   LIG    1        1.661   1.098   1.096  0.00  0.00    -0.026 C 
ATOM      3  C   LIG    1        0.767   2.372   1.221  0.00  0.00    +0.012 C 
ATOM      4  C   LIG    1        1.739   0.324   2.442  0.00  0.00    +0.007 C 
ATOM      5  C   LIG    1        2.428   1.153   3.550  0.00  0.00    +0.005 C 
ATOM      6  C   LIG    1        3.852   1.659   3.148  0.00  0.00    +0.001 C 
ATOM      7  C   LIG    1        4.561   2.537   4.253  0.00  0.00    -0.026 C 
ATOM      8  C   LIG    1        3.787   3.869   4.507  0.00  0.00    +0.012 C 
ATOM      9  C   LIG    1        4.677   1.737   5.590  0.00  0.00    +0.005 C 
ATOM     10  C   LIG    1        5.577   2.401   6.656  0.00  0.00    -0.015 C 
ATOM     11  C   LIG    1        6.999   2.698   6.117  0.00  0.00    -0.072 C 
ATOM     12  C   LIG    1        6.896   3.506   4.802  0.00  0.00    -0.012 C 
ATOM     13  C   LIG    1        6.029   2.779   3.743  0.00  0.00    -0.004 C 
ATOM     14  C   LIG    1        6.021   3.521   2.382  0.00  0.00    +0.035 C 
ATOM     15  C   LIG    1        5.301   2.714   1.280  0.00  0.00    +0.118 C 
ATOM     16  C   LIG    1        3.855   2.339   1.728  0.00  0.00    +0.025 C 
ATOM     17  C   LIG    1        3.132   1.404   0.712  0.00  0.00    +0.001 C 
ATOM     18  C   LIG    1        3.086   1.802  -0.765  0.00  0.00    +0.005 C 
ATOM     19  C   LIG    1        1.939   0.955  -1.339  0.00  0.00    +0.004 C 
ENDROOT
BRANCH  11  20
ATOM     20  N   LIG    1        7.779   3.563   7.128  0.00  0.00    +0.381 N 
ATOM     21  H   LIG    1        7.210   4.367   7.353  0.00  0.00    -0.086 HD
ATOM     22  H   LIG    1        8.600   3.925   6.664  0.00  0.00    -0.086 HD
BRANCH  20  23
ATOM     23  C   LIG    1        8.184   2.847   8.427  0.00  0.00    -0.084 C 
BRANCH  23  24
ATOM     24  C   LIG    1        9.018   3.802   9.297  0.00  0.00    -0.038 C 
BRANCH  24  25
ATOM     25  C   LIG    1        9.531   3.161  10.598  0.00  0.00    -0.084 C 
BRANCH  25  26
ATOM     26  N   LIG    1        8.354   2.842  11.536  0.00  0.00    +0.379 N 
ATOM     27  H   LIG    1        7.724   2.209  11.064  0.00  0.00    -0.086 HD
ATOM     28  H   LIG    1        7.852   3.697  11.730  0.00  0.00    -0.086 HD
BRANCH  26  29
ATOM     29  C   LIG    1        8.783   2.209  12.870  0.00  0.00    -0.083 C 
BRANCH  29  30
ATOM     30  C   LIG    1        7.537   1.920  13.721  0.00  0.00    -0.021 C 
BRANCH  30  31
ATOM     31  C   LIG    1        7.884   1.302  15.087  0.00  0.00    -0.021 C 
BRANCH  31  32
ATOM     32  C   LIG    1        6.631   1.004  15.930  0.00  0.00    -0.087 C 
BRANCH  32  33
ATOM     33  N   LIG    1        7.032   0.398  17.279  0.00  0.00    +0.378 N 
ATOM     34  H   LIG    1        7.539  -0.465  17.140  0.00  0.00    -0.090 HD
ATOM     35  H   LIG    1        7.618   1.041  17.793  0.00  0.00    -0.090 HD
ATOM     36  H   LIG    1        6.208   0.202  17.830  0.00  0.00    -0.090 HD
ENDBRANCH  32  33
ENDBRANCH  31  32
ENDBRANCH  30  31
ENDBRANCH  29  30
ENDBRANCH  26  29
ENDBRANCH  25  26
ENDBRANCH  24  25
ENDBRANCH  23  24
ENDBRANCH  20  23
ENDBRANCH  11  20
BRANCH   1  38
ATOM     37  C   LIG    1       -0.998  -0.698   0.798  0.00  0.00    +0.008 C 
ATOM     38  C   LIG    1       -0.280  -0.030  -0.395  0.00  0.00    -0.010 C 
BRANCH  38  39
ATOM     39  C   LIG    1       -0.546  -0.828  -1.702  0.00  0.00    +0.006 C 
BRANCH  39  40
ATOM     40  C   LIG    1        0.061  -2.248  -1.759  0.00  0.00    +0.034 C 
BRANCH  40  41
ATOM     41  C   LIG    1       -0.309  -3.051  -3.029  0.00  0.00    +0.154 C 
BRANCH  41  42
ATOM     42  C   LIG    1        0.207  -4.518  -2.984  0.00  0.00    +0.014 C 
ATOM     43  C   LIG    1       -0.388  -5.383  -4.111  0.00  0.00    +0.010 C 
ATOM     44  C   LIG    1        1.746  -4.635  -2.971  0.00  0.00    +0.010 C 
ENDBRANCH  41  42
BRANCH  41  45
ATOM     45  O   LIG    1        0.227  -2.384  -4.171  0.00  0.00    -0.212 OA
BRANCH  45  46
ATOM     46  S   LIG    1       -0.820  -1.807  -5.345  0.00  0.00    +0.208 S 
ATOM     47  O   LIG    1       -1.690  -0.865  -4.633  0.00  0.00    -0.118 OA
ATOM     48  O   LIG    1       -1.513  -3.002  -5.838  0.00  0.00    -0.118 OA
BRANCH  46  49
ATOM     49  O   LIG    1        0.077  -1.181  -6.322  0.00  0.00    -0.231 OA
ATOM     50  H   LIG    1        0.617  -1.864  -6.750  0.00  0.00    +0.247 HD
ENDBRANCH  46  49
ENDBRANCH  45  46
ENDBRANCH  41  45
ENDBRANCH  40  41
ENDBRANCH  39  40
ENDBRANCH  38  39
ENDBRANCH   1  38
BRANCH  15  51
ATOM     51  O   LIG    1        6.073   1.577   0.931  0.00  0.00    -0.391 OA
ATOM     52  H   LIG    1        5.644   1.131   0.196  0.00  0.00    +0.210 HD
ENDBRANCH  15  51
TORSDOF 19
