REMARK  Name = DB06455
REMARK                            x       y       z     vdW  Elec       q    Type
REMARK                         _______ _______ _______ _____ _____    ______ ____
ROOT
ATOM      1  C   LIG    1        1.408   0.132   0.036  0.00  0.00    +0.082 A 
ATOM      2  N   LIG    1        2.142   0.980  -0.770  0.00  0.00    -0.230 N 
ATOM      3  N   LIG    1        3.463   0.752  -0.685  0.00  0.00    -0.161 NA
ATOM      4  C   LIG    1        3.621  -0.237   0.173  0.00  0.00    +0.148 A 
ATOM      5  C   LIG    1        2.370  -0.649   0.657  0.00  0.00    +0.063 A 
ENDROOT
BRANCH   2   6
ATOM      6  C   LIG    1        1.667   1.952  -1.675  0.00  0.00    +0.077 A 
ATOM      7  C   LIG    1        2.010   3.339  -1.562  0.00  0.00    +0.026 A 
ATOM      8  C   LIG    1        2.841   3.878  -0.539  0.00  0.00    +0.013 A 
ATOM      9  C   LIG    1        3.114   5.243  -0.493  0.00  0.00    +0.021 A 
ATOM     10  C   LIG    1        2.577   6.106  -1.443  0.00  0.00    +0.043 A 
ATOM     11 CL   LIG    1        2.927   7.794  -1.362  0.00  0.00    -0.083 Cl
ATOM     12  C   LIG    1        1.756   5.619  -2.455  0.00  0.00    +0.048 A 
ATOM     13  C   LIG    1        1.456   4.237  -2.530  0.00  0.00    +0.074 A 
ATOM     14  N   LIG    1        0.633   3.811  -3.528  0.00  0.00    -0.255 NA
ATOM     15  C   LIG    1        0.327   2.494  -3.595  0.00  0.00    +0.113 A 
ATOM     16  C   LIG    1        0.812   1.546  -2.702  0.00  0.00    +0.048 A 
ENDBRANCH   2   6
BRANCH   1  18
ATOM     17  C   LIG    1       -0.781  -1.078  -0.111  0.00  0.00    +0.133 A 
ATOM     18  C   LIG    1       -0.086   0.117   0.154  0.00  0.00    +0.084 A 
ATOM     19  C   LIG    1       -0.780   1.284   0.524  0.00  0.00    +0.133 A 
ATOM     20  C   LIG    1       -2.181   1.244   0.607  0.00  0.00    +0.046 A 
ATOM     21  C   LIG    1       -2.874   0.069   0.340  0.00  0.00    +0.007 A 
ATOM     22  C   LIG    1       -2.182  -1.085  -0.013  0.00  0.00    +0.046 A 
BRANCH  17  24
ATOM     23  C   LIG    1       -0.702  -3.416  -0.765  0.00  0.00    +0.277 C 
ATOM     24  O   LIG    1       -0.040  -2.190  -0.475  0.00  0.00    -0.494 OA
ENDBRANCH  17  24
BRANCH  19  25
ATOM     25  O   LIG    1       -0.037   2.419   0.802  0.00  0.00    -0.494 OA
ATOM     26  C   LIG    1       -0.700   3.644   1.093  0.00  0.00    +0.277 C 
ENDBRANCH  19  25
ENDBRANCH   1  18
BRANCH   4  27
ATOM     27  C   LIG    1        4.888  -0.790   0.596  0.00  0.00    +0.265 C 
ATOM     28  N   LIG    1        5.944  -0.449  -0.181  0.00  0.00    -0.294 N 
ATOM     29  H   LIG    1        5.772   0.265  -0.874  0.00  0.00    +0.150 HD
ATOM     30  O   LIG    1        4.970  -1.522   1.584  0.00  0.00    -0.268 OA
BRANCH  28  31
ATOM     31  C   LIG    1        7.385  -0.834  -0.043  0.00  0.00    +0.137 C 
ATOM     32  C   LIG    1        8.188  -0.392   1.614  0.00  0.00    +0.024 C 
ATOM     33  C   LIG    1        9.908   0.217   1.690  0.00  0.00    +0.009 C 
ATOM     34  C   LIG    1       10.240   1.526   0.478  0.00  0.00    -0.010 C 
ATOM     35  C   LIG    1        9.156   2.470   0.763  0.00  0.00    +0.007 C 
ATOM     36  C   LIG    1        8.154   1.367   0.472  0.00  0.00    -0.010 C 
ATOM     37  C   LIG    1        9.031  -0.168  -0.573  0.00  0.00    +0.009 C 
ATOM     38  C   LIG    1        9.709   1.202  -1.285  0.00  0.00    +0.009 C 
ATOM     39  C   LIG    1        7.544   0.912   1.802  0.00  0.00    +0.009 C 
ATOM     40  C   LIG    1        8.251   0.057  -1.407  0.00  0.00    +0.024 C 
BRANCH  31  41
ATOM     41  C   LIG    1        7.387  -2.433  -0.254  0.00  0.00    +0.329 C 
ATOM     42  O   LIG    1        7.915  -3.154   0.625  0.00  0.00    -0.249 OA
BRANCH  41  43
ATOM     43  O   LIG    1        6.893  -2.899  -1.309  0.00  0.00    -0.479 OA
ATOM     44  H   LIG    1        6.507  -2.323  -1.940  0.00  0.00    +0.295 HD
ENDBRANCH  41  43
ENDBRANCH  31  41
ENDBRANCH  28  31
ENDBRANCH   4  27
TORSDOF 8
