REMARK  Name = DB06233
REMARK                            x       y       z     vdW  Elec       q    Type
REMARK                         _______ _______ _______ _____ _____    ______ ____
ROOT
ATOM      1  C   LIG    1       -7.356   1.408   2.324  0.00  0.00    +0.013 C 
ATOM      2  C   LIG    1       -6.117   2.264   1.980  0.00  0.00    +0.054 C 
ATOM      3  C   LIG    1       -4.845   1.491   1.520  0.00  0.00    +0.240 C 
ATOM      4  O   LIG    1       -3.783   2.410   1.353  0.00  0.00    -0.339 OA
ATOM      5  C   LIG    1       -3.971   3.477   0.404  0.00  0.00    +0.125 C 
ATOM      6  C   LIG    1       -2.696   4.362   0.416  0.00  0.00    +0.067 C 
ATOM      7  C   LIG    1       -2.578   5.560  -0.565  0.00  0.00    +0.146 C 
ATOM      8  C   LIG    1       -2.376   5.211  -2.050  0.00  0.00    -0.044 C 
ATOM      9  C   LIG    1       -3.543   4.522  -2.751  0.00  0.00    +0.042 C 
ATOM     10  C   LIG    1       -1.274   5.641  -2.706  0.00  0.00    +0.001 C 
ATOM     11  C   LIG    1       -0.986   5.455  -4.119  0.00  0.00    +0.000 C 
ATOM     12  C   LIG    1       -0.007   6.132  -4.747  0.00  0.00    -0.000 C 
ATOM     13  C   LIG    1        0.300   6.013  -6.159  0.00  0.00    -0.004 C 
ATOM     14  C   LIG    1        0.396   4.850  -6.833  0.00  0.00    -0.024 C 
ATOM     15  C   LIG    1        0.679   4.688  -8.323  0.00  0.00    +0.009 C 
ATOM     16  C   LIG    1        0.412   5.939  -9.192  0.00  0.00    +0.012 C 
ATOM     17  C   LIG    1        2.021   3.974  -8.664  0.00  0.00    +0.018 C 
ATOM     18  C   LIG    1        3.380   4.522  -8.118  0.00  0.00    +0.055 C 
ATOM     19  C   LIG    1        3.492   6.035  -7.847  0.00  0.00    +0.015 C 
ATOM     20  C   LIG    1        4.026   3.678  -6.998  0.00  0.00    +0.167 C 
ATOM     21  C   LIG    1        3.356   3.592  -5.605  0.00  0.00    +0.216 C 
ATOM     22  C   LIG    1        2.917   2.134  -5.260  0.00  0.00    +0.176 C 
ATOM     23  C   LIG    1        2.448   1.863  -3.826  0.00  0.00    -0.045 C 
ATOM     24  C   LIG    1        2.589   0.406  -3.400  0.00  0.00    +0.041 C 
ATOM     25  C   LIG    1        1.924   2.818  -3.021  0.00  0.00    -0.015 C 
ATOM     26  C   LIG    1        1.514   2.654  -1.557  0.00  0.00    +0.075 C 
ATOM     27  C   LIG    1        1.651   3.971  -0.769  0.00  0.00    +0.020 C 
ATOM     28  C   LIG    1        0.112   2.025  -1.397  0.00  0.00    +0.143 C 
ATOM     29  C   LIG    1       -0.276   1.453  -0.024  0.00  0.00    +0.119 C 
ATOM     30  C   LIG    1        0.182  -0.009   0.245  0.00  0.00    +0.186 C 
ATOM     31  O   LIG    1       -0.514  -0.524   1.381  0.00  0.00    -0.459 OA
ATOM     32  C   LIG    1       -1.764  -1.031   1.289  0.00  0.00    +0.328 C 
ATOM     33  C   LIG    1       -2.216  -1.699   2.616  0.00  0.00    +0.185 C 
ATOM     34  N   LIG    1       -3.695  -2.003   2.715  0.00  0.00    -0.282 N 
ATOM     35  C   LIG    1       -4.694  -1.067   2.556  0.00  0.00    +0.288 C 
ATOM     36  O   LIG    1       -5.896  -1.323   2.445  0.00  0.00    -0.267 OA
ATOM     37  C   LIG    1       -4.234  -3.361   3.030  0.00  0.00    +0.109 C 
ATOM     38  C   LIG    1       -3.175  -4.471   3.077  0.00  0.00    +0.019 C 
ATOM     39  C   LIG    1       -1.890  -4.015   3.749  0.00  0.00    +0.004 C 
ATOM     40  C   LIG    1       -1.290  -2.930   2.867  0.00  0.00    +0.034 C 
ATOM     41  O   LIG    1       -2.461  -1.041   0.271  0.00  0.00    -0.249 OA
ATOM     42  O   LIG    1       -0.699   1.989  -2.325  0.00  0.00    -0.297 OA
ATOM     43  O   LIG    1        5.080   3.079  -7.214  0.00  0.00    -0.294 OA
ATOM     44  C   LIG    1       -5.277   4.264   0.670  0.00  0.00    +0.032 C 
ATOM     45  C   LIG    1       -4.285   0.475   2.627  0.00  0.00    +0.276 C 
ATOM     46  O   LIG    1       -3.570   0.861   3.555  0.00  0.00    -0.281 OA
ATOM     47  C   LIG    1       -6.471   3.350   0.948  0.00  0.00    +0.011 C 
ENDROOT
BRANCH   3  48
ATOM     48  O   LIG    1       -5.115   0.808   0.350  0.00  0.00    -0.358 OA
ATOM     49  H   LIG    1       -4.310   0.363   0.075  0.00  0.00    +0.213 HD
ENDBRANCH   3  48
BRANCH   7  50
ATOM     50  O   LIG    1       -3.666   6.461  -0.363  0.00  0.00    -0.375 OA
ATOM     51  C   LIG    1       -3.515   7.759  -0.927  0.00  0.00    +0.194 C 
ENDBRANCH   7  50
BRANCH  21  52
ATOM     52  O   LIG    1        4.266   4.004  -4.580  0.00  0.00    -0.369 OA
ATOM     53  C   LIG    1        4.525   5.401  -4.498  0.00  0.00    +0.195 C 
ENDBRANCH  21  52
BRANCH  22  54
ATOM     54  O   LIG    1        1.891   1.680  -6.124  0.00  0.00    -0.384 OA
ATOM     55  H   LIG    1        1.736   0.749  -5.948  0.00  0.00    +0.210 HD
ENDBRANCH  22  54
BRANCH  30  56
ATOM     56  C   LIG    1        1.705  -0.239   0.486  0.00  0.00    +0.027 C 
ATOM     57  C   LIG    1        2.029  -1.742   0.634  0.00  0.00    +0.011 C 
BRANCH  56  58
ATOM     58  C   LIG    1        2.288   0.601   1.658  0.00  0.00    +0.010 C 
BRANCH  58  59
ATOM     59  C   LIG    1        3.834   0.671   1.757  0.00  0.00    -0.008 C 
ATOM     60  C   LIG    1        4.482   1.411   0.558  0.00  0.00    +0.037 C 
ATOM     61  C   LIG    1        6.023   1.416   0.657  0.00  0.00    +0.147 C 
ATOM     62  C   LIG    1        6.463   2.096   1.982  0.00  0.00    +0.155 C 
ATOM     63  C   LIG    1        5.797   1.424   3.207  0.00  0.00    +0.035 C 
ATOM     64  C   LIG    1        4.263   1.394   3.056  0.00  0.00    +0.006 C 
BRANCH  61  65
ATOM     65  O   LIG    1        6.515   2.100  -0.494  0.00  0.00    -0.377 OA
ATOM     66  C   LIG    1        7.797   1.693  -0.955  0.00  0.00    +0.194 C 
ENDBRANCH  61  65
BRANCH  62  67
ATOM     67  O   LIG    1        7.876   2.059   2.129  0.00  0.00    -0.322 OA
BRANCH  67  68
ATOM     68  P   LIG    1        8.689   3.287   2.833  0.00  0.00    +0.199 P 
ATOM     69  C   LIG    1        8.768   4.507   1.462  0.00  0.00    +0.111 C 
ATOM     70  C   LIG    1       10.368   2.558   2.953  0.00  0.00    +0.111 C 
ATOM     71  O   LIG    1        8.084   3.760   4.107  0.00  0.00    -0.291 OA
ENDBRANCH  67  68
ENDBRANCH  62  67
ENDBRANCH  58  59
ENDBRANCH  56  58
ENDBRANCH  30  56
TORSDOF 10
