REMARK  Name = DB06016
REMARK                            x       y       z     vdW  Elec       q    Type
REMARK                         _______ _______ _______ _____ _____    ______ ____
ROOT
ATOM      1  C   LIG    1       -4.649  -2.498   0.942  0.00  0.00    +0.085 C 
ENDROOT
BRANCH   1   2
ATOM      2  N   LIG    1       -6.112  -2.592   0.942  0.00  0.00    -0.299 NA
ATOM      3  C   LIG    1       -6.733  -1.404   1.535  0.00  0.00    +0.103 C 
ATOM      4  C   LIG    1       -8.275  -1.512   1.483  0.00  0.00    +0.120 C 
ATOM      5  N   LIG    1       -8.799  -2.714   2.158  0.00  0.00    -0.326 N 
ATOM      6  C   LIG    1       -8.075  -3.906   1.681  0.00  0.00    +0.120 C 
ATOM      7  C   LIG    1       -6.538  -3.748   1.732  0.00  0.00    +0.103 C 
BRANCH   5   8
ATOM      8  C   LIG    1      -10.152  -2.845   2.464  0.00  0.00    +0.050 A 
ATOM      9  C   LIG    1      -11.124  -2.250   1.644  0.00  0.00    +0.025 A 
ATOM     10  C   LIG    1      -12.481  -2.372   1.932  0.00  0.00    +0.003 A 
ATOM     11  C   LIG    1      -12.891  -3.085   3.052  0.00  0.00    +0.021 A 
ATOM     12  C   LIG    1      -11.947  -3.673   3.893  0.00  0.00    +0.061 A 
ATOM     13 CL   LIG    1      -12.511  -4.535   5.284  0.00  0.00    -0.082 Cl
ATOM     14  C   LIG    1      -10.577  -3.552   3.609  0.00  0.00    +0.080 A 
ATOM     15 CL   LIG    1       -9.422  -4.248   4.706  0.00  0.00    -0.080 Cl
ENDBRANCH   5   8
ENDBRANCH   1   2
BRANCH   1  16
ATOM     16  C   LIG    1       -4.109  -1.547  -0.152  0.00  0.00    +0.019 C 
BRANCH  16  19
ATOM     17  C   LIG    1       -0.540  -0.478   1.128  0.00  0.00    +0.022 C 
ATOM     18  C   LIG    1       -2.079  -0.555   1.078  0.00  0.00    +0.005 C 
ATOM     19  C   LIG    1       -2.571  -1.376  -0.134  0.00  0.00    -0.010 C 
ATOM     20  C   LIG    1       -2.079  -0.657  -1.407  0.00  0.00    +0.005 C 
ATOM     21  C   LIG    1       -0.540  -0.593  -1.464  0.00  0.00    +0.022 C 
ATOM     22  C   LIG    1        0.092   0.038  -0.196  0.00  0.00    +0.074 C 
BRANCH  22  23
ATOM     23  N   LIG    1        1.557   0.049  -0.230  0.00  0.00    -0.296 N 
ATOM     24  H   LIG    1        1.985  -0.654  -0.815  0.00  0.00    +0.151 HD
ATOM     25  C   LIG    1        2.369   0.824   0.519  0.00  0.00    +0.302 C 
ATOM     26  O   LIG    1        1.920   1.680   1.285  0.00  0.00    -0.253 OA
ATOM     27  N   LIG    1        3.703   0.596   0.370  0.00  0.00    -0.292 N 
ATOM     28  C   LIG    1        4.704   1.357   1.123  0.00  0.00    +0.133 C 
ATOM     29  C   LIG    1        4.314  -0.392  -0.532  0.00  0.00    +0.133 C 
ENDBRANCH  22  23
ENDBRANCH  16  19
ENDBRANCH   1  16
TORSDOF 5
