REMARK  Name = DB06799
REMARK                            x       y       z     vdW  Elec       q    Type
REMARK                         _______ _______ _______ _____ _____    ______ ____
ROOT
ATOM      1  C   LIG    1       -2.228  -7.364  -5.810  0.00  0.00    +0.176 C 
ATOM      2  N   LIG    1       -3.051  -8.328  -5.048  0.00  0.00    -0.264 NA
ATOM      3  C   LIG    1       -4.301  -7.629  -4.674  0.00  0.00    +0.176 C 
ATOM      4  N   LIG    1       -5.061  -7.089  -5.823  0.00  0.00    -0.264 NA
ATOM      5  C   LIG    1       -5.348  -8.227  -6.725  0.00  0.00    +0.176 C 
ATOM      6  N   LIG    1       -4.145  -8.952  -7.190  0.00  0.00    -0.264 NA
ATOM      7  C   LIG    1       -3.275  -7.961  -7.862  0.00  0.00    +0.176 C 
ATOM      8  C   LIG    1       -4.152  -6.178  -6.553  0.00  0.00    +0.176 C 
ATOM      9  C   LIG    1       -3.424  -9.413  -5.982  0.00  0.00    +0.176 C 
ATOM     10  N   LIG    1       -2.895  -6.811  -7.010  0.00  0.00    -0.264 NA
ENDROOT
TORSDOF 0
