REMARK  Name = DB06663
REMARK                            x       y       z     vdW  Elec       q    Type
REMARK                         _______ _______ _______ _____ _____    ______ ____
ROOT
ATOM      1  CA  LYS A  6       -0.016  -0.416   1.183  0.00  0.00    +0.159 C 
ATOM      2  C   LYS A  6       -0.708  -1.123   2.369  0.00  0.00    +0.234 C 
ATOM      3  O   LYS A  6       -0.594  -2.344   2.478  0.00  0.00    -0.274 OA
ATOM      4  N   UNK A  1       -1.412  -0.357   3.219  0.00  0.00    -0.302 N 
ATOM      5  H   UNK A  1       -1.450   0.638   3.049  0.00  0.00    +0.150 HD
ATOM      6  C   UNK A  1       -2.129  -0.804   4.408  0.00  0.00    +0.163 C 
ATOM      7  C   UNK A  1       -3.421   0.019   4.482  0.00  0.00    +0.234 C 
ATOM      8  N   PHE A  2       -4.566  -0.680   4.443  0.00  0.00    -0.302 N 
ATOM      9  H   PHE A  2       -4.507  -1.684   4.349  0.00  0.00    +0.150 HD
ATOM     10  CA  PHE A  2       -5.930  -0.158   4.565  0.00  0.00    +0.163 C 
ATOM     11  C   PHE A  2       -6.324   0.850   3.446  0.00  0.00    +0.237 C 
ATOM     12  O   PHE A  2       -6.663   0.331   2.380  0.00  0.00    -0.274 OA
ATOM     13  N   UNK A  3       -6.275   2.208   3.596  0.00  0.00    -0.285 N 
ATOM     14  C   UNK A  3       -6.041   2.942   4.850  0.00  0.00    +0.153 C 
ATOM     15  C   UNK A  3       -6.327   4.411   4.530  0.00  0.00    +0.198 C 
ATOM     16  C   UNK A  3       -7.216   4.371   3.293  0.00  0.00    +0.078 C 
ATOM     17  C   UNK A  3       -6.718   3.135   2.527  0.00  0.00    +0.166 C 
ATOM     18  C   UNK A  3       -5.601   3.428   1.488  0.00  0.00    +0.235 C 
ATOM     19  O   UNK A  3       -5.046   4.526   1.446  0.00  0.00    -0.274 OA
ATOM     20  N   UNK A  4       -5.309   2.434   0.625  0.00  0.00    -0.299 N 
ATOM     21  H   UNK A  4       -5.772   1.547   0.766  0.00  0.00    +0.150 HD
ATOM     22  C   UNK A  4       -4.406   2.469  -0.544  0.00  0.00    +0.190 C 
ATOM     23  C   UNK A  4       -2.879   2.646  -0.290  0.00  0.00    +0.238 C 
ATOM     24  O   UNK A  4       -2.112   2.390  -1.219  0.00  0.00    -0.273 OA
ATOM     25  N   TRP A  5       -2.465   3.056   0.926  0.00  0.00    -0.302 N 
ATOM     26  H   TRP A  5       -3.176   3.238   1.621  0.00  0.00    +0.150 HD
ATOM     27  CA  TRP A  5       -1.091   3.319   1.386  0.00  0.00    +0.163 C 
ATOM     28  C   TRP A  5       -0.262   2.058   1.702  0.00  0.00    +0.234 C 
ATOM     29  O   TRP A  5        0.507   2.091   2.662  0.00  0.00    -0.274 OA
ATOM     30  O   UNK A  1       -3.346   1.244   4.581  0.00  0.00    -0.274 OA
ATOM     31  N   LYS A  6       -0.488   0.961   0.952  0.00  0.00    -0.302 N 
ATOM     32  H   LYS A  6       -1.130   1.054   0.177  0.00  0.00    +0.150 HD
ENDROOT
BRANCH  22  33
ATOM     33  C   UNK A  4       -5.004   3.346  -1.637  0.00  0.00    -0.018 A 
ATOM     34  C   UNK A  4       -6.179   2.919  -2.270  0.00  0.00    +0.006 A 
ATOM     35  C   UNK A  4       -6.763   3.686  -3.274  0.00  0.00    +0.000 A 
ATOM     36  C   UNK A  4       -6.176   4.890  -3.651  0.00  0.00    +0.000 A 
ATOM     37  C   UNK A  4       -5.011   5.333  -3.032  0.00  0.00    +0.000 A 
ATOM     38  C   UNK A  4       -4.426   4.565  -2.029  0.00  0.00    +0.006 A 
ENDBRANCH  22  33
BRANCH  10  39
ATOM     39  CB  PHE A  2       -6.282   0.178   6.035  0.00  0.00    +0.067 C 
BRANCH  39  40
ATOM     40  CG  PHE A  2       -6.288  -1.028   6.959  0.00  0.00    -0.045 A 
ATOM     41  CD2 PHE A  2       -7.422  -1.866   7.025  0.00  0.00    +0.004 A 
ATOM     42  CE2 PHE A  2       -7.386  -3.024   7.790  0.00  0.00    +0.000 A 
ATOM     43  CZ  PHE A  2       -6.227  -3.379   8.470  0.00  0.00    +0.000 A 
ATOM     44  CE1 PHE A  2       -5.090  -2.586   8.382  0.00  0.00    +0.000 A 
ATOM     45  CD1 PHE A  2       -5.106  -1.423   7.623  0.00  0.00    +0.004 A 
ENDBRANCH  39  40
ENDBRANCH  10  39
BRANCH  15  46
ATOM     46  O   UNK A  3       -6.973   5.033   5.642  0.00  0.00    -0.445 OA
BRANCH  46  47
ATOM     47  C   UNK A  3       -7.065   6.378   5.752  0.00  0.00    +0.401 C 
ATOM     48  N   UNK A  3       -7.739   6.688   6.924  0.00  0.00    -0.280 N 
ATOM     49  H   UNK A  3       -8.069   5.931   7.504  0.00  0.00    +0.152 HD
ATOM     50  O   UNK A  3       -6.615   7.184   4.934  0.00  0.00    -0.226 OA
BRANCH  48  51
ATOM     51  C   UNK A  3       -8.035   8.062   7.336  0.00  0.00    +0.122 C 
BRANCH  51  52
ATOM     52  C   UNK A  3       -9.450   8.546   6.958  0.00  0.00    +0.096 C 
BRANCH  52  53
ATOM     53  N   UNK A  3       -9.652   8.587   5.521  0.00  0.00    -0.329 NA
ATOM     54  H   UNK A  3       -8.982   9.216   5.099  0.00  0.00    +0.118 HD
ATOM     55  H   UNK A  3      -10.567   8.961   5.314  0.00  0.00    +0.118 HD
ENDBRANCH  52  53
ENDBRANCH  51  52
ENDBRANCH  48  51
ENDBRANCH  46  47
ENDBRANCH  15  46
BRANCH  27  56
ATOM     56  CB  TRP A  5       -0.351   4.342   0.485  0.00  0.00    +0.069 C 
BRANCH  56  57
ATOM     57  CG  TRP A  5        1.059   4.687   0.874  0.00  0.00    -0.020 A 
ATOM     58  CD1 TRP A  5        2.172   4.272   0.227  0.00  0.00    +0.087 A 
ATOM     59  NE1 TRP A  5        3.292   4.741   0.882  0.00  0.00    -0.360 N 
ATOM     60  HE1 TRP A  5        4.231   4.552   0.562  0.00  0.00    +0.165 HD
ATOM     61  CE2 TRP A  5        2.957   5.472   2.003  0.00  0.00    +0.047 A 
ATOM     62  CZ2 TRP A  5        3.716   6.133   2.985  0.00  0.00    +0.026 A 
ATOM     63  CH2 TRP A  5        3.053   6.795   4.034  0.00  0.00    +0.002 A 
ATOM     64  CZ3 TRP A  5        1.646   6.789   4.090  0.00  0.00    +0.001 A 
ATOM     65  CE3 TRP A  5        0.895   6.124   3.099  0.00  0.00    +0.010 A 
ATOM     66  CD2 TRP A  5        1.528   5.450   2.027  0.00  0.00    +0.003 A 
ENDBRANCH  56  57
ENDBRANCH  27  56
BRANCH   6  67
ATOM     67  C   UNK A  1       -1.305  -0.646   5.717  0.00  0.00    +0.067 C 
BRANCH  67  68
ATOM     68  C   UNK A  1        0.058  -1.326   5.650  0.00  0.00    -0.045 A 
ATOM     69  C   UNK A  1        1.192  -0.582   5.315  0.00  0.00    +0.007 A 
ATOM     70  C   UNK A  1        2.432  -1.206   5.228  0.00  0.00    +0.046 A 
ATOM     71  C   UNK A  1        2.557  -2.571   5.483  0.00  0.00    +0.121 A 
ATOM     72  C   UNK A  1        1.415  -3.314   5.826  0.00  0.00    +0.046 A 
ATOM     73  C   UNK A  1        0.172  -2.692   5.908  0.00  0.00    +0.007 A 
BRANCH  71  74
ATOM     74  O   UNK A  1        3.828  -3.101   5.375  0.00  0.00    -0.487 OA
BRANCH  74  75
ATOM     75  C   UNK A  1        4.040  -4.482   5.667  0.00  0.00    +0.264 C 
BRANCH  75  76
ATOM     76  C   UNK A  1        5.515  -4.853   5.544  0.00  0.00    -0.010 A 
ATOM     77  C   UNK A  1        6.518  -3.876   5.571  0.00  0.00    +0.007 A 
ATOM     78  C   UNK A  1        7.856  -4.247   5.466  0.00  0.00    +0.000 A 
ATOM     79  C   UNK A  1        8.191  -5.594   5.339  0.00  0.00    +0.000 A 
ATOM     80  C   UNK A  1        7.201  -6.572   5.319  0.00  0.00    +0.000 A 
ATOM     81  C   UNK A  1        5.863  -6.201   5.423  0.00  0.00    +0.007 A 
ENDBRANCH  75  76
ENDBRANCH  74  75
ENDBRANCH  71  74
ENDBRANCH  67  68
ENDBRANCH   6  67
BRANCH   1  82
ATOM     82  CB  LYS A  6        1.527  -0.506   1.304  0.00  0.00    +0.032 C 
BRANCH  82  83
ATOM     83  CG  LYS A  6        2.287   0.053   0.089  0.00  0.00    +0.003 C 
BRANCH  83  84
ATOM     84  CD  LYS A  6        3.810  -0.095   0.236  0.00  0.00    +0.015 C 
BRANCH  84  85
ATOM     85  CE  LYS A  6        4.599   0.427  -0.975  0.00  0.00    +0.077 C 
BRANCH  85  86
ATOM     86  NZ  LYS A  6        4.512   1.872  -1.062  0.00  0.00    -0.330 NA
ATOM     87  HZ1 LYS A  6        4.850   2.281  -0.203  0.00  0.00    +0.118 HD
ATOM     88  HZ2 LYS A  6        3.544   2.146  -1.150  0.00  0.00    +0.118 HD
ENDBRANCH  85  86
ENDBRANCH  84  85
ENDBRANCH  83  84
ENDBRANCH  82  83
ENDBRANCH   1  82
TORSDOF 20
