REMARK  Name = DB06651
REMARK                            x       y       z     vdW  Elec       q    Type
REMARK                         _______ _______ _______ _____ _____    ______ ____
ROOT
ATOM      1  C   ILE A 12       -1.871   0.189   2.487  0.00  0.00    +0.241 C 
ATOM      2  O   ILE A 12       -2.591  -0.811   2.439  0.00  0.00    -0.273 OA
ATOM      3  N   PRO A 13       -1.712   1.021   1.416  0.00  0.00    -0.288 N 
ATOM      4  CA  PRO A 13       -2.404   0.819   0.116  0.00  0.00    +0.161 C 
ATOM      5  CB  PRO A 13       -2.149   2.122  -0.656  0.00  0.00    +0.033 C 
ATOM      6  CG  PRO A 13       -1.795   3.135   0.412  0.00  0.00    +0.021 C 
ATOM      7  CD  PRO A 13       -1.031   2.324   1.453  0.00  0.00    +0.109 C 
ENDROOT
BRANCH   4   8
ATOM      8  C   PRO A 13       -1.974  -0.468  -0.612  0.00  0.00    +0.204 C 
ATOM      9  N   ALA A 14       -2.855  -1.196  -1.183  0.00  0.00    -0.241 NA
BRANCH   8  10
ATOM     10  O   PRO A 13       -0.617  -0.714  -0.614  0.00  0.00    -0.494 OA
ATOM     11  H   PRO A 13       -0.432  -1.522  -1.097  0.00  0.00    +0.293 HD
ENDBRANCH   8  10
BRANCH   9  12
ATOM     12  CA  ALA A 14       -2.504  -2.455  -1.848  0.00  0.00    +0.190 C 
ATOM     13  CB  ALA A 14       -3.464  -3.541  -1.312  0.00  0.00    +0.043 C 
BRANCH  12  14
ATOM     14  C   ALA A 14       -2.591  -2.348  -3.389  0.00  0.00    +0.208 C 
ATOM     15  N   LEU A 15       -2.943  -1.273  -3.997  0.00  0.00    -0.240 NA
BRANCH  14  16
ATOM     16  O   ALA A 14       -2.214  -3.510  -4.028  0.00  0.00    -0.494 OA
ATOM     17  H   ALA A 14       -1.996  -4.185  -3.382  0.00  0.00    +0.293 HD
ENDBRANCH  14  16
BRANCH  15  18
ATOM     18  CA  LEU A 15       -3.038  -1.202  -5.457  0.00  0.00    +0.194 C 
BRANCH  18  19
ATOM     19  C   LEU A 15       -1.904  -0.305  -5.983  0.00  0.00    +0.209 C 
ATOM     20  N   ASP A 16       -1.002  -0.788  -6.747  0.00  0.00    -0.240 NA
BRANCH  19  21
ATOM     21  O   LEU A 15       -1.959   1.003  -5.551  0.00  0.00    -0.494 OA
ATOM     22  H   LEU A 15       -2.724   1.128  -4.986  0.00  0.00    +0.293 HD
ENDBRANCH  19  21
BRANCH  20  23
ATOM     23  CA  ASP A 16        0.179   0.026  -7.171  0.00  0.00    +0.205 C 
BRANCH  23  24
ATOM     24  C   ASP A 16        0.118   0.394  -8.687  0.00  0.00    +0.239 C 
ATOM     25  O   ASP A 16        0.382   1.599  -8.890  0.00  0.00    -0.273 OA
ATOM     26  N   SER A 17       -0.198  -0.610  -9.529  0.00  0.00    -0.300 N 
ATOM     27  H   SER A 17       -0.439  -1.506  -9.199  0.00  0.00    +0.150 HD
BRANCH  26  28
ATOM     28  CA  SER A 17       -0.163  -0.300 -10.967  0.00  0.00    +0.184 C 
BRANCH  28  29
ATOM     29  C   SER A 17       -1.561   0.129 -11.460  0.00  0.00    +0.206 C 
ATOM     30  N   LEU A 18       -2.481  -0.725 -11.732  0.00  0.00    -0.240 NA
BRANCH  29  31
ATOM     31  O   SER A 17       -1.699   1.496 -11.579  0.00  0.00    -0.494 OA
ATOM     32  H   SER A 17       -0.903   1.928 -11.261  0.00  0.00    +0.293 HD
ENDBRANCH  29  31
BRANCH  30  33
ATOM     33  CA  LEU A 18       -3.785  -0.313 -12.259  0.00  0.00    +0.193 C 
BRANCH  33  34
ATOM     34  C   LEU A 18       -4.871  -0.560 -11.197  0.00  0.00    +0.209 C 
ATOM     35  N   THR A 19       -5.665   0.383 -10.856  0.00  0.00    -0.238 NA
BRANCH  34  36
ATOM     36  O   LEU A 18       -4.905  -1.841 -10.683  0.00  0.00    -0.494 OA
ATOM     37  H   LEU A 18       -4.183  -2.357 -11.050  0.00  0.00    +0.293 HD
ENDBRANCH  34  36
BRANCH  35  38
ATOM     38  CA  THR A 19       -6.709   0.154  -9.819  0.00  0.00    +0.222 C 
BRANCH  38  39
ATOM     39  C   THR A 19       -8.008  -0.462 -10.437  0.00  0.00    +0.243 C 
ATOM     40  O   THR A 19       -8.507   0.109 -11.411  0.00  0.00    -0.273 OA
ATOM     41  N   PRO A 20       -8.579  -1.561  -9.869  0.00  0.00    -0.288 N 
ATOM     42  CA  PRO A 20       -9.846  -2.168 -10.357  0.00  0.00    +0.161 C 
ATOM     43  CB  PRO A 20       -9.931  -3.508  -9.613  0.00  0.00    +0.033 C 
ATOM     44  CG  PRO A 20       -8.502  -3.804  -9.211  0.00  0.00    +0.021 C 
ATOM     45  CD  PRO A 20       -7.912  -2.434  -8.892  0.00  0.00    +0.109 C 
BRANCH  42  46
ATOM     46  C   PRO A 20      -11.073  -1.254 -10.186  0.00  0.00    +0.204 C 
ATOM     47  N   ALA A 21      -11.989  -1.250 -11.077  0.00  0.00    -0.241 NA
BRANCH  46  48
ATOM     48  O   PRO A 20      -11.104  -0.537  -9.009  0.00  0.00    -0.494 OA
ATOM     49  H   PRO A 20      -10.316  -0.721  -8.495  0.00  0.00    +0.293 HD
ENDBRANCH  46  48
BRANCH  47  50
ATOM     50  CA  ALA A 21      -13.235  -0.495 -10.899  0.00  0.00    +0.190 C 
ATOM     51  CB  ALA A 21      -13.502   0.298 -12.195  0.00  0.00    +0.043 C 
BRANCH  50  52
ATOM     52  C   ALA A 21      -14.422  -1.432 -10.574  0.00  0.00    +0.208 C 
ATOM     53  N   ASN A 22      -14.348  -2.703 -10.714  0.00  0.00    -0.240 NA
BRANCH  52  54
ATOM     54  O   ALA A 21      -15.526  -0.763 -10.093  0.00  0.00    -0.494 OA
ATOM     55  H   ALA A 21      -15.342   0.177 -10.041  0.00  0.00    +0.293 HD
ENDBRANCH  52  54
BRANCH  53  56
ATOM     56  CA  ASN A 22      -15.467  -3.607 -10.314  0.00  0.00    +0.203 C 
BRANCH  56  57
ATOM     57  C   ASN A 22      -15.134  -4.323  -8.970  0.00  0.00    +0.239 C 
ATOM     58  O   ASN A 22      -16.101  -4.320  -8.179  0.00  0.00    -0.273 OA
ATOM     59  N   GLU A 23      -13.890  -4.835  -8.867  0.00  0.00    -0.302 N 
ATOM     60  H   GLU A 23      -13.272  -4.851  -9.634  0.00  0.00    +0.150 HD
BRANCH  59  61
ATOM     61  CA  GLU A 23      -13.503  -5.368  -7.551  0.00  0.00    +0.159 C 
BRANCH  61  62
ATOM     62  C   GLU A 23      -13.144  -4.280  -6.506  0.00  0.00    +0.204 C 
ATOM     63  N   ASP A 24      -12.635  -3.149  -6.834  0.00  0.00    -0.238 NA
BRANCH  62  64
ATOM     64  O   GLU A 23      -13.410  -4.671  -5.211  0.00  0.00    -0.494 OA
ATOM     65  H   GLU A 23      -13.816  -5.540  -5.213  0.00  0.00    +0.293 HD
ENDBRANCH  62  64
BRANCH  63  66
ATOM     66  CA  ASP A 24      -12.287  -2.132  -5.802  0.00  0.00    +0.227 C 
BRANCH  66  67
ATOM     67  C   ASP A 24      -12.958  -0.780  -6.154  0.00  0.00    +0.330 C 
ATOM     68  O   ASP A 24      -13.616  -0.583  -7.178  0.00  0.00    -0.249 OA
BRANCH  67  69
ATOM     69  OXT ASP A 24      -12.755   0.146  -5.172  0.00  0.00    -0.479 OA
ATOM     70  HXT ASP A 24      -13.181   0.983  -5.373  0.00  0.00    +0.295 HD
ENDBRANCH  67  69
ENDBRANCH  66  67
BRANCH  66  71
ATOM     71  CB  ASP A 24      -10.744  -1.969  -5.672  0.00  0.00    +0.158 C 
BRANCH  71  72
ATOM     72  CG  ASP A 24      -10.035  -3.223  -5.149  0.00  0.00    +0.307 C 
ATOM     73  OD1 ASP A 24       -9.391  -3.991  -5.859  0.00  0.00    -0.251 OA
BRANCH  72  74
ATOM     74  OD2 ASP A 24      -10.203  -3.388  -3.805  0.00  0.00    -0.481 OA
ATOM     75  HD2 ASP A 24       -9.770  -4.178  -3.472  0.00  0.00    +0.295 HD
ENDBRANCH  72  74
ENDBRANCH  71  72
ENDBRANCH  66  71
ENDBRANCH  63  66
ENDBRANCH  61  62
BRANCH  61  76
ATOM     76  CB  GLU A 23      -12.293  -6.347  -7.716  0.00  0.00    +0.043 C 
BRANCH  76  77
ATOM     77  CG  GLU A 23      -12.466  -7.596  -8.641  0.00  0.00    +0.123 C 
BRANCH  77  78
ATOM     78  CD  GLU A 23      -13.371  -8.733  -8.124  0.00  0.00    +0.305 C 
ATOM     79  OE1 GLU A 23      -14.198  -9.303  -8.832  0.00  0.00    -0.251 OA
BRANCH  78  80
ATOM     80  OE2 GLU A 23      -13.121  -9.043  -6.819  0.00  0.00    -0.481 OA
ATOM     81  HE2 GLU A 23      -13.683  -9.753  -6.502  0.00  0.00    +0.295 HD
ENDBRANCH  78  80
ENDBRANCH  77  78
ENDBRANCH  76  77
ENDBRANCH  61  76
ENDBRANCH  59  61
ENDBRANCH  56  57
BRANCH  56  82
ATOM     82  CB  ASN A 22      -15.728  -4.651 -11.440  0.00  0.00    +0.131 C 
BRANCH  82  83
ATOM     83  CG  ASN A 22      -16.292  -4.032 -12.717  0.00  0.00    +0.182 C 
ATOM     84  ND2 ASN A 22      -17.529  -3.962 -12.953  0.00  0.00    -0.271 NA
ATOM     85  HD2 ASN A 22      -17.727  -3.521 -13.840  0.00  0.00    +0.190 HD
BRANCH  83  86
ATOM     86  OD1 ASN A 22      -15.355  -3.548 -13.595  0.00  0.00    -0.496 OA
ATOM     87  HD1 ASN A 22      -14.476  -3.655 -13.222  0.00  0.00    +0.293 HD
ENDBRANCH  83  86
ENDBRANCH  82  83
ENDBRANCH  56  82
ENDBRANCH  53  56
ENDBRANCH  50  52
ENDBRANCH  47  50
ENDBRANCH  42  46
ENDBRANCH  38  39
BRANCH  38  88
ATOM     88  CB  THR A 19       -7.102   1.497  -9.114  0.00  0.00    +0.145 C 
ATOM     89  CG2 THR A 19       -5.953   2.096  -8.285  0.00  0.00    +0.040 C 
BRANCH  88  90
ATOM     90  OG1 THR A 19       -7.525   2.510 -10.015  0.00  0.00    -0.389 OA
ATOM     91  HG1 THR A 19       -6.777   2.755 -10.565  0.00  0.00    +0.210 HD
ENDBRANCH  88  90
ENDBRANCH  38  88
ENDBRANCH  35  38
ENDBRANCH  33  34
BRANCH  33  92
ATOM     92  CB  LEU A 18       -4.090  -1.105 -13.563  0.00  0.00    +0.039 C 
BRANCH  92  93
ATOM     93  CG  LEU A 18       -3.086  -0.909 -14.731  0.00  0.00    -0.015 C 
ATOM     94  CD2 LEU A 18       -3.438  -1.828 -15.916  0.00  0.00    +0.007 C 
ATOM     95  CD1 LEU A 18       -2.975   0.557 -15.194  0.00  0.00    +0.007 C 
ENDBRANCH  92  93
ENDBRANCH  33  92
ENDBRANCH  30  33
ENDBRANCH  28  29
BRANCH  28  96
ATOM     96  CB  SER A 17        0.363  -1.523 -11.771  0.00  0.00    +0.187 C 
BRANCH  96  97
ATOM     97  OG  SER A 17        1.735  -1.775 -11.526  0.00  0.00    -0.393 OA
ATOM     98  H   SER A 17        1.978  -2.594 -11.963  0.00  0.00    +0.209 HD
ENDBRANCH  96  97
ENDBRANCH  28  96
ENDBRANCH  26  28
ENDBRANCH  23  24
BRANCH  23  99
ATOM     99  CB  ASP A 16        1.533  -0.639  -6.769  0.00  0.00    +0.156 C 
BRANCH  99 100
ATOM    100  CG  ASP A 16        1.735  -2.103  -7.191  0.00  0.00    +0.307 C 
ATOM    101  OD1 ASP A 16        2.349  -2.445  -8.200  0.00  0.00    -0.251 OA
BRANCH 100 102
ATOM    102  OD2 ASP A 16        1.176  -2.982  -6.310  0.00  0.00    -0.481 OA
ATOM    103  HD2 ASP A 16        1.294  -3.894  -6.583  0.00  0.00    +0.295 HD
ENDBRANCH 100 102
ENDBRANCH  99 100
ENDBRANCH  23  99
ENDBRANCH  20  23
ENDBRANCH  18  19
BRANCH  18 104
ATOM    104  CB  LEU A 15       -4.433  -0.647  -5.860  0.00  0.00    +0.039 C 
BRANCH 104 105
ATOM    105  CG  LEU A 15       -5.662  -1.459  -5.374  0.00  0.00    -0.015 C 
ATOM    106  CD2 LEU A 15       -6.969  -0.704  -5.672  0.00  0.00    +0.007 C 
ATOM    107  CD1 LEU A 15       -5.698  -2.888  -5.949  0.00  0.00    +0.007 C 
ENDBRANCH 104 105
ENDBRANCH  18 104
ENDBRANCH  15  18
ENDBRANCH  12  14
ENDBRANCH   9  12
ENDBRANCH   4   8
BRANCH   1 108
ATOM    108  CA  ILE A 12       -1.088   0.406   3.829  0.00  0.00    +0.197 C 
BRANCH 108 109
ATOM    109  CB  ILE A 12       -1.877   1.384   4.774  0.00  0.00    +0.019 C 
ATOM    110  CG2 ILE A 12       -3.376   1.038   4.960  0.00  0.00    +0.010 C 
BRANCH 109 112
ATOM    111  CD1 ILE A 12       -1.732   2.655   7.032  0.00  0.00    +0.004 C 
ATOM    112  CG1 ILE A 12       -1.195   1.509   6.162  0.00  0.00    +0.002 C 
ENDBRANCH 109 112
ENDBRANCH 108 109
BRANCH 108 113
ATOM    113  N   ILE A 12        0.323   0.847   3.632  0.00  0.00    -0.240 NA
ATOM    114  C   VAL A 11        1.206   0.048   3.156  0.00  0.00    +0.209 C 
BRANCH 114 115
ATOM    115  O   VAL A 11        0.981  -1.280   2.863  0.00  0.00    -0.494 OA
ATOM    116  H   VAL A 11        0.071  -1.509   3.065  0.00  0.00    +0.293 HD
ENDBRANCH 114 115
BRANCH 114 117
ATOM    117  CA  VAL A 11        2.637   0.524   2.838  0.00  0.00    +0.196 C 
BRANCH 117 118
ATOM    118  CB  VAL A 11        3.353   1.175   4.071  0.00  0.00    +0.017 C 
ATOM    119  CG2 VAL A 11        3.426   0.237   5.299  0.00  0.00    +0.010 C 
ATOM    120  CG1 VAL A 11        4.774   1.678   3.730  0.00  0.00    +0.010 C 
ENDBRANCH 117 118
BRANCH 117 121
ATOM    121  N   VAL A 11        2.528   1.507   1.755  0.00  0.00    -0.240 NA
ATOM    122  C   ARG A 10        3.018   1.300   0.592  0.00  0.00    +0.209 C 
BRANCH 122 123
ATOM    123  O   ARG A 10        3.718   0.171   0.217  0.00  0.00    -0.494 OA
ATOM    124  H   ARG A 10        4.008   0.257  -0.694  0.00  0.00    +0.293 HD
ENDBRANCH 122 123
BRANCH 122 125
ATOM    125  CA  ARG A 10        2.819   2.340  -0.521  0.00  0.00    +0.193 C 
BRANCH 125 126
ATOM    126  N   ARG A 10        4.127   2.742  -1.042  0.00  0.00    -0.240 NA
ATOM    127  C   LEU A  9        4.485   3.969  -1.097  0.00  0.00    +0.209 C 
BRANCH 127 128
ATOM    128  O   LEU A  9        3.711   5.039  -0.697  0.00  0.00    -0.494 OA
ATOM    129  H   LEU A  9        4.181   5.860  -0.857  0.00  0.00    +0.293 HD
ENDBRANCH 127 128
BRANCH 127 130
ATOM    130  CA  LEU A  9        5.859   4.344  -1.675  0.00  0.00    +0.194 C 
BRANCH 130 131
ATOM    131  N   LEU A  9        5.648   5.053  -2.939  0.00  0.00    -0.240 NA
ATOM    132  C   LEU A  8        6.106   4.605  -4.048  0.00  0.00    +0.209 C 
BRANCH 132 133
ATOM    133  O   LEU A  8        6.870   3.464  -4.185  0.00  0.00    -0.494 OA
ATOM    134  H   LEU A  8        7.119   3.347  -5.104  0.00  0.00    +0.293 HD
ENDBRANCH 132 133
BRANCH 132 135
ATOM    135  CA  LEU A  8        5.834   5.358  -5.365  0.00  0.00    +0.194 C 
BRANCH 135 136
ATOM    136  N   LEU A  8        7.087   5.915  -5.869  0.00  0.00    -0.240 NA
ATOM    137  C   ALA A  7        7.375   7.160  -5.787  0.00  0.00    +0.208 C 
BRANCH 137 138
ATOM    138  O   ALA A  7        8.509   7.614  -6.418  0.00  0.00    -0.494 OA
ATOM    139  H   ALA A  7        8.955   6.884  -6.853  0.00  0.00    +0.293 HD
ENDBRANCH 137 138
BRANCH 137 140
ATOM    140  CA  ALA A  7        6.569   8.257  -5.039  0.00  0.00    +0.190 C 
ATOM    141  CB  ALA A  7        5.679   9.036  -6.028  0.00  0.00    +0.043 C 
BRANCH 140 142
ATOM    142  N   ALA A  7        7.465   9.207  -4.376  0.00  0.00    -0.240 NA
ATOM    143  C   VAL A  6        7.556   9.283  -3.097  0.00  0.00    +0.209 C 
BRANCH 143 144
ATOM    144  O   VAL A  6        6.863   8.476  -2.222  0.00  0.00    -0.494 OA
ATOM    145  H   VAL A  6        7.088   8.705  -1.318  0.00  0.00    +0.293 HD
ENDBRANCH 143 144
BRANCH 143 146
ATOM    146  CA  VAL A  6        8.488  10.293  -2.379  0.00  0.00    +0.196 C 
BRANCH 146 147
ATOM    147  CB  VAL A  6        7.726  11.547  -1.828  0.00  0.00    +0.017 C 
ATOM    148  CG2 VAL A  6        6.957  12.359  -2.897  0.00  0.00    +0.010 C 
ATOM    149  CG1 VAL A  6        6.814  11.231  -0.623  0.00  0.00    +0.010 C 
ENDBRANCH 146 147
BRANCH 146 150
ATOM    150  N   VAL A  6        9.550  10.756  -3.282  0.00  0.00    -0.240 NA
ATOM    151  C   GLY A  5       10.785  10.482  -3.087  0.00  0.00    +0.205 C 
BRANCH 151 152
ATOM    152  O   GLY A  5       11.280   9.752  -2.028  0.00  0.00    -0.494 OA
ATOM    153  H   GLY A  5       12.232   9.663  -2.107  0.00  0.00    +0.293 HD
ENDBRANCH 151 152
BRANCH 151 154
ATOM    154  CA  GLY A  5       11.860  10.968  -4.061  0.00  0.00    +0.240 C 
BRANCH 154 155
ATOM    155  N   GLY A  5       11.574  10.513  -5.422  0.00  0.00    -0.244 NA
ATOM    156  C   GLY A  4       11.238  11.338  -6.346  0.00  0.00    +0.201 C 
BRANCH 156 157
ATOM    157  O   GLY A  4       11.087  12.694  -6.161  0.00  0.00    -0.495 OA
ATOM    158  H   GLY A  4       10.817  13.110  -6.983  0.00  0.00    +0.293 HD
ENDBRANCH 156 157
BRANCH 156 159
ATOM    159  CA  GLY A  4       10.952  10.922  -7.795  0.00  0.00    +0.199 C 
BRANCH 159 160
ATOM    160  N   GLY A  4       11.162   9.486  -8.011  0.00  0.00    -0.305 N 
ATOM    161  H   GLY A  4       11.896   9.051  -7.470  0.00  0.00    +0.149 HD
ATOM    162  C   GLY A  3       10.497   8.737  -8.913  0.00  0.00    +0.235 C 
ATOM    163  O   GLY A  3        9.611   9.205  -9.628  0.00  0.00    -0.274 OA
BRANCH 162 164
ATOM    164  CA  GLY A  3       10.858   7.243  -9.074  0.00  0.00    +0.240 C 
BRANCH 164 165
ATOM    165  N   GLY A  3       11.954   6.814  -8.186  0.00  0.00    -0.244 NA
ATOM    166  C   LEU A  2       13.059   6.331  -8.615  0.00  0.00    +0.208 C 
BRANCH 166 167
ATOM    167  O   LEU A  2       13.360   6.189  -9.952  0.00  0.00    -0.494 OA
ATOM    168  H   LEU A  2       14.236   5.810 -10.053  0.00  0.00    +0.293 HD
ENDBRANCH 166 167
BRANCH 166 169
ATOM    169  CA  LEU A  2       14.215   5.914  -7.659  0.00  0.00    +0.193 C 
BRANCH 169 170
ATOM    170  N   LEU A  2       13.839   5.925  -6.232  0.00  0.00    -0.241 NA
ATOM    171  C   VAL A  1       13.099   5.029  -5.680  0.00  0.00    +0.201 C 
BRANCH 171 172
ATOM    172  O   VAL A  1       12.537   3.963  -6.346  0.00  0.00    -0.495 OA
ATOM    173  H   VAL A  1       12.015   3.435  -5.738  0.00  0.00    +0.293 HD
ENDBRANCH 171 172
BRANCH 171 174
ATOM    174  CA  VAL A  1       12.724   5.075  -4.186  0.00  0.00    +0.139 C 
BRANCH 174 175
ATOM    175  N   VAL A  1       13.729   5.735  -3.359  0.00  0.00    -0.320 NA
ATOM    176  H1  VAL A  1       13.843   6.689  -3.671  0.00  0.00    +0.119 HD
ATOM    177  H2  VAL A  1       14.622   5.282  -3.484  0.00  0.00    +0.119 HD
ENDBRANCH 174 175
BRANCH 174 178
ATOM    178  CB  VAL A  1       11.329   5.729  -3.917  0.00  0.00    +0.009 C 
ATOM    179  CG2 VAL A  1       11.194   7.188  -4.404  0.00  0.00    +0.009 C 
ATOM    180  CG1 VAL A  1       10.151   4.875  -4.429  0.00  0.00    +0.009 C 
ENDBRANCH 174 178
ENDBRANCH 171 174
ENDBRANCH 169 170
BRANCH 169 181
ATOM    181  CB  LEU A  2       14.957   4.606  -8.111  0.00  0.00    +0.039 C 
BRANCH 181 182
ATOM    182  CG  LEU A  2       16.132   4.130  -7.215  0.00  0.00    -0.015 C 
ATOM    183  CD2 LEU A  2       16.707   2.797  -7.727  0.00  0.00    +0.007 C 
ATOM    184  CD1 LEU A  2       17.245   5.186  -7.074  0.00  0.00    +0.007 C 
ENDBRANCH 181 182
ENDBRANCH 169 181
ENDBRANCH 166 169
ENDBRANCH 164 165
ENDBRANCH 162 164
ENDBRANCH 159 160
ENDBRANCH 156 159
ENDBRANCH 154 155
ENDBRANCH 151 154
ENDBRANCH 146 150
ENDBRANCH 143 146
ENDBRANCH 140 142
ENDBRANCH 137 140
ENDBRANCH 135 136
BRANCH 135 185
ATOM    185  CB  LEU A  8        5.221   4.442  -6.466  0.00  0.00    +0.039 C 
BRANCH 185 186
ATOM    186  CG  LEU A  8        3.738   4.037  -6.251  0.00  0.00    -0.015 C 
ATOM    187  CD2 LEU A  8        2.779   5.230  -6.447  0.00  0.00    +0.007 C 
ATOM    188  CD1 LEU A  8        3.339   2.866  -7.167  0.00  0.00    +0.007 C 
ENDBRANCH 185 186
ENDBRANCH 135 185
ENDBRANCH 132 135
ENDBRANCH 130 131
BRANCH 130 189
ATOM    189  CB  LEU A  9        6.675   5.233  -0.689  0.00  0.00    +0.039 C 
BRANCH 189 190
ATOM    190  CG  LEU A  9        8.159   5.482  -1.070  0.00  0.00    -0.015 C 
ATOM    191  CD2 LEU A  9        8.811   6.509  -0.125  0.00  0.00    +0.007 C 
ATOM    192  CD1 LEU A  9        8.991   4.184  -1.106  0.00  0.00    +0.007 C 
ENDBRANCH 189 190
ENDBRANCH 130 189
ENDBRANCH 127 130
ENDBRANCH 125 126
BRANCH 125 193
ATOM    193  CB  ARG A 10        1.955   1.764  -1.675  0.00  0.00    +0.039 C 
BRANCH 193 194
ATOM    194  CG  ARG A 10        1.499   2.821  -2.700  0.00  0.00    +0.039 C 
BRANCH 194 195
ATOM    195  CD  ARG A 10        0.653   2.223  -3.838  0.00  0.00    +0.196 C 
BRANCH 195 196
ATOM    196  NE  ARG A 10        0.277   3.246  -4.814  0.00  0.00    -0.276 N 
ATOM    197  HE  ARG A 10        1.069   3.602  -5.329  0.00  0.00    +0.258 HD
BRANCH 196 198
ATOM    198  CZ  ARG A 10       -0.782   4.173  -4.582  0.00  0.00    +0.376 C 
ATOM    199  NH1 ARG A 10       -0.855   5.268  -5.199  0.00  0.00    -0.130 NA
ATOM    200  HH1 ARG A 10       -0.093   5.404  -5.847  0.00  0.00    +0.306 HD
BRANCH 198 201
ATOM    201  NH2 ARG A 10       -1.765   3.787  -3.640  0.00  0.00    -0.289 N 
ATOM    202 HH21 ARG A 10       -1.823   2.836  -3.307  0.00  0.00    +0.255 HD
ATOM    203 HH22 ARG A 10       -2.608   4.327  -3.517  0.00  0.00    +0.255 HD
ENDBRANCH 198 201
ENDBRANCH 196 198
ENDBRANCH 195 196
ENDBRANCH 194 195
ENDBRANCH 193 194
ENDBRANCH 125 193
ENDBRANCH 122 125
ENDBRANCH 117 121
ENDBRANCH 114 117
ENDBRANCH 108 113
ENDBRANCH   1 108
TORSDOF 103
