REMARK  Name = DB06712
REMARK                            x       y       z     vdW  Elec       q    Type
REMARK                         _______ _______ _______ _____ _____    ______ ____
ROOT
ATOM      1  C   LIG    1       -0.225   2.751  -0.231  0.00  0.00    +0.061 C 
ATOM      2  C   LIG    1       -0.750   1.329  -0.035  0.00  0.00    +0.016 C 
ATOM      3  N   LIG    1       -2.127   1.294  -0.042  0.00  0.00    -0.309 N 
ATOM      4  H   LIG    1       -2.616   2.176  -0.101  0.00  0.00    +0.153 HD
ATOM      5  C   LIG    1       -2.884   0.150   0.025  0.00  0.00    +0.120 C 
ATOM      6  C   LIG    1       -2.290  -1.068   0.127  0.00  0.00    +0.080 C 
ATOM      7  C   LIG    1       -0.744  -1.220   0.221  0.00  0.00    +0.097 C 
ATOM      8  C   LIG    1       -0.035   0.167   0.055  0.00  0.00    +0.065 C 
ENDROOT
BRANCH   7   9
ATOM      9  C   LIG    1       -0.287  -2.018   1.460  0.00  0.00    -0.033 A 
ATOM     10  C   LIG    1       -0.327  -1.427   2.727  0.00  0.00    +0.005 A 
ATOM     11  C   LIG    1        0.107  -2.132   3.847  0.00  0.00    +0.003 A 
ATOM     12  C   LIG    1        0.588  -3.433   3.711  0.00  0.00    +0.032 A 
ATOM     13  C   LIG    1        0.642  -4.050   2.452  0.00  0.00    +0.122 A 
ATOM     14  C   LIG    1        0.198  -3.327   1.334  0.00  0.00    +0.037 A 
BRANCH  13  15
ATOM     15  N   LIG    1        1.161  -5.431   2.304  0.00  0.00    +0.006 N 
ATOM     16  O   LIG    1        1.526  -6.033   3.310  0.00  0.00    -0.130 OA
BRANCH  15  17
ATOM     17  O   LIG    1        1.207  -5.925   1.180  0.00  0.00    -0.396 OA
ATOM     18  H   LIG    1        0.918  -5.430   0.439  0.00  0.00    +0.329 HD
ENDBRANCH  15  17
ENDBRANCH  13  15
ENDBRANCH   7   9
BRANCH   5  19
ATOM     19  C   LIG    1       -4.298   0.364  -0.060  0.00  0.00    +0.115 C 
ATOM     20  N   LIG    1       -5.435   0.566  -0.137  0.00  0.00    -0.190 NA
ENDBRANCH   5  19
BRANCH   6  21
ATOM     21  C   LIG    1       -3.096  -2.309   0.204  0.00  0.00    +0.338 C 
ATOM     22  O   LIG    1       -4.192  -2.369   0.769  0.00  0.00    -0.245 OA
BRANCH  21  23
ATOM     23  O   LIG    1       -2.500  -3.365  -0.399  0.00  0.00    -0.465 OA
ATOM     24  C   LIG    1       -3.113  -4.646  -0.403  0.00  0.00    +0.280 C 
ENDBRANCH  21  23
ENDBRANCH   6  21
BRANCH   8  25
ATOM     25  C   LIG    1        1.456   0.162   0.098  0.00  0.00    +0.338 C 
ATOM     26  O   LIG    1        2.143   1.155   0.351  0.00  0.00    -0.245 OA
BRANCH  25  27
ATOM     27  O   LIG    1        1.996  -1.065  -0.139  0.00  0.00    -0.459 OA
BRANCH  27  28
ATOM     28  C   LIG    1        3.393  -1.333  -0.026  0.00  0.00    +0.171 C 
ATOM     29  C   LIG    1        3.811  -1.449   1.454  0.00  0.00    +0.052 C 
ATOM     30  C   LIG    1        3.672  -2.633  -0.794  0.00  0.00    +0.052 C 
ENDBRANCH  27  28
ENDBRANCH  25  27
ENDBRANCH   8  25
TORSDOF 9
