REMARK  Name = DB06346
REMARK                            x       y       z     vdW  Elec       q    Type
REMARK                         _______ _______ _______ _____ _____    ______ ____
ROOT
ATOM      1  N   LIG    1        1.490  -0.138   0.318  0.00  0.00    -0.338 N 
ATOM      2  C   LIG    1        2.146  -0.602  -0.818  0.00  0.00    +0.035 A 
ATOM      3  C   LIG    1        3.511  -0.371  -0.656  0.00  0.00    +0.037 A 
ATOM      4  C   LIG    1        3.701   0.151   0.663  0.00  0.00    +0.017 A 
ATOM      5  C   LIG    1        4.833   0.528   1.403  0.00  0.00    +0.056 A 
ATOM      6  C   LIG    1        4.678   1.074   2.686  0.00  0.00    +0.122 A 
ATOM      7  C   LIG    1        3.400   1.224   3.219  0.00  0.00    +0.048 A 
ATOM      8  C   LIG    1        2.249   0.854   2.525  0.00  0.00    +0.030 A 
ATOM      9  C   LIG    1        2.417   0.312   1.244  0.00  0.00    +0.051 A 
ENDROOT
BRANCH   1  10
ATOM     10  C   LIG    1        0.039  -0.021   0.512  0.00  0.00    +0.157 C 
BRANCH  10  14
ATOM     11  C   LIG    1       -1.529   4.002   0.101  0.00  0.00    -0.016 A 
ATOM     12  C   LIG    1       -0.560   3.523  -0.790  0.00  0.00    +0.009 A 
ATOM     13  C   LIG    1       -0.053   2.232  -0.666  0.00  0.00    +0.006 A 
ATOM     14  C   LIG    1       -0.502   1.399   0.362  0.00  0.00    -0.028 A 
ATOM     15  C   LIG    1       -1.475   1.861   1.248  0.00  0.00    +0.006 A 
ATOM     16  C   LIG    1       -1.981   3.151   1.119  0.00  0.00    +0.009 A 
BRANCH  11  20
ATOM     17  C   LIG    1       -2.999   7.999  -0.270  0.00  0.00    +0.215 A 
ATOM     18  N   LIG    1       -1.706   7.726  -0.604  0.00  0.00    -0.221 NA
ATOM     19  C   LIG    1       -1.267   6.449  -0.480  0.00  0.00    +0.123 A 
ATOM     20  C   LIG    1       -2.067   5.389  -0.028  0.00  0.00    +0.000 A 
ATOM     21  C   LIG    1       -3.396   5.699   0.302  0.00  0.00    +0.015 A 
ATOM     22  C   LIG    1       -3.869   7.006   0.180  0.00  0.00    +0.068 A 
BRANCH  17  23
ATOM     23  O   LIG    1       -3.479   9.293  -0.383  0.00  0.00    -0.477 OA
BRANCH  23  25
ATOM     24  C   LIG    1       -1.710  10.779   0.466  0.00  0.00    +0.048 C 
ATOM     25  C   LIG    1       -2.601  10.372  -0.720  0.00  0.00    +0.227 C 
ENDBRANCH  23  25
ENDBRANCH  17  23
ENDBRANCH  11  20
ENDBRANCH  10  14
ENDBRANCH   1  10
BRANCH   2  26
ATOM     26  C   LIG    1        1.397  -1.203  -2.015  0.00  0.00    +0.072 C 
BRANCH  26  27
ATOM     27  C   LIG    1        1.156  -2.757  -2.002  0.00  0.00    +0.067 C 
ATOM     28  C   LIG    1        0.345  -3.127  -3.281  0.00  0.00    +0.023 C 
ATOM     29  C   LIG    1        0.289  -3.197  -0.782  0.00  0.00    +0.023 C 
BRANCH  27  30
ATOM     30  C   LIG    1        2.543  -3.509  -2.011  0.00  0.00    +0.311 C 
ATOM     31  O   LIG    1        3.163  -3.611  -3.098  0.00  0.00    -0.250 OA
BRANCH  30  32
ATOM     32  O   LIG    1        3.013  -3.942  -0.932  0.00  0.00    -0.480 OA
ATOM     33  H   LIG    1        2.525  -3.850  -0.137  0.00  0.00    +0.295 HD
ENDBRANCH  30  32
ENDBRANCH  27  30
ENDBRANCH  26  27
ENDBRANCH   2  26
BRANCH   3  34
ATOM     34  S   LIG    1        4.795  -0.682  -1.827  0.00  0.00    -0.117 S 
BRANCH  34  35
ATOM     35  C   LIG    1        4.921   0.935  -2.683  0.00  0.00    +0.013 C 
ATOM     36  C   LIG    1        5.306   2.071  -1.710  0.00  0.00    +0.022 C 
ATOM     37  C   LIG    1        6.037   0.803  -3.741  0.00  0.00    +0.022 C 
ATOM     38  C   LIG    1        3.609   1.313  -3.406  0.00  0.00    +0.022 C 
ENDBRANCH  34  35
ENDBRANCH   3  34
BRANCH   6  39
ATOM     39  O   LIG    1        5.727   1.496   3.481  0.00  0.00    -0.486 OA
BRANCH  39  40
ATOM     40  C   LIG    1        7.064   1.401   2.986  0.00  0.00    +0.284 C 
BRANCH  40  41
ATOM     41  C   LIG    1        8.059   1.976   3.988  0.00  0.00    +0.078 A 
ATOM     42  N   LIG    1        7.763   1.833   5.309  0.00  0.00    -0.256 NA
ATOM     43  C   LIG    1        8.640   2.333   6.217  0.00  0.00    +0.114 A 
ATOM     44  C   LIG    1        9.825   2.980   5.855  0.00  0.00    -0.032 A 
ATOM     45  C   LIG    1       10.775   3.508   6.913  0.00  0.00    +0.045 C 
ATOM     46  C   LIG    1       10.120   3.108   4.494  0.00  0.00    +0.007 A 
ATOM     47  C   LIG    1        9.229   2.602   3.545  0.00  0.00    +0.027 A 
ENDBRANCH  40  41
ENDBRANCH  39  40
ENDBRANCH   6  39
TORSDOF 14
