REMARK  Name = DB06412
REMARK                            x       y       z     vdW  Elec       q    Type
REMARK                         _______ _______ _______ _____ _____    ______ ____
ROOT
ATOM      1  C   LIG    1       -0.383   1.450  -0.002  0.00  0.00    -0.001 C 
ATOM      2  C   LIG    1       -0.041   2.251   1.298  0.00  0.00    +0.005 C 
ATOM      3  C   LIG    1       -0.459   3.740   1.218  0.00  0.00    +0.010 C 
ATOM      4  C   LIG    1        0.141   4.445  -0.032  0.00  0.00    -0.000 C 
ATOM      5  C   LIG    1        1.706   4.454   0.054  0.00  0.00    +0.014 C 
ATOM      6  C   LIG    1       -0.373   5.896  -0.343  0.00  0.00    +0.069 C 
ATOM      7  C   LIG    1       -0.187   6.025  -1.882  0.00  0.00    +0.035 C 
ATOM      8  C   LIG    1       -0.116   4.597  -2.459  0.00  0.00    +0.007 C 
ATOM      9  C   LIG    1       -1.850   6.165   0.056  0.00  0.00    +0.042 C 
ATOM     10  C   LIG    1       -0.399   3.680  -1.265  0.00  0.00    +0.001 C 
ATOM     11  C   LIG    1        0.082  -0.060   0.014  0.00  0.00    -0.022 C 
ATOM     12  C   LIG    1        1.638  -0.184   0.052  0.00  0.00    +0.012 C 
ATOM     13  C   LIG    1       -0.532  -0.816   1.235  0.00  0.00    +0.049 C 
ATOM     14  C   LIG    1       -0.227  -2.317   1.206  0.00  0.00    +0.029 C 
ATOM     15  C   LIG    1       -0.576  -3.014  -0.046  0.00  0.00    +0.162 C 
ATOM     16  O   LIG    1       -1.022  -4.161  -0.069  0.00  0.00    -0.292 OA
ATOM     17  C   LIG    1       -0.267  -2.261  -1.351  0.00  0.00    +0.083 C 
ATOM     18  C   LIG    1        0.329  -2.981   2.244  0.00  0.00    +0.190 C 
ATOM     19  C   LIG    1       -0.509  -0.734  -1.275  0.00  0.00    +0.003 C 
ATOM     20  C   LIG    1       -0.054  -0.017  -2.570  0.00  0.00    +0.005 C 
ATOM     21  C   LIG    1       -0.465   1.465  -2.558  0.00  0.00    +0.004 C 
ATOM     22  C   LIG    1        0.075   2.200  -1.307  0.00  0.00    -0.004 C 
ENDROOT
BRANCH   6  23
ATOM     23  O   LIG    1        0.312   6.929   0.350  0.00  0.00    -0.388 OA
ATOM     24  H   LIG    1       -0.045   7.774   0.066  0.00  0.00    +0.210 HD
ENDBRANCH   6  23
BRANCH  18  25
ATOM     25  O   LIG    1        0.658  -4.300   2.331  0.00  0.00    -0.514 OA
ATOM     26  H   LIG    1        1.025  -4.485   3.198  0.00  0.00    +0.291 HD
ENDBRANCH  18  25
TORSDOF 2
