REMARK  Name = DB06228
REMARK                            x       y       z     vdW  Elec       q    Type
REMARK                         _______ _______ _______ _____ _____    ______ ____
ROOT
ATOM      1  N   LIG    1       -2.133  -0.049   1.071  0.00  0.00    -0.234 N 
ATOM      2  C   LIG    1       -0.931  -0.854   0.925  0.00  0.00    +0.163 C 
ATOM      3  C   LIG    1       -0.230  -0.261  -0.277  0.00  0.00    +0.213 C 
ATOM      4  O   LIG    1       -0.845   0.998  -0.406  0.00  0.00    -0.444 OA
ATOM      5  C   LIG    1       -1.999   1.105   0.282  0.00  0.00    +0.408 C 
ATOM      6  O   LIG    1       -2.726   2.091   0.168  0.00  0.00    -0.226 OA
ENDROOT
BRANCH   1  10
ATOM      7  C   LIG    1       -5.179  -0.829   3.898  0.00  0.00    +0.037 A 
ATOM      8  C   LIG    1       -5.456  -0.058   2.763  0.00  0.00    +0.025 A 
ATOM      9  C   LIG    1       -4.460   0.202   1.827  0.00  0.00    +0.025 A 
ATOM     10  C   LIG    1       -3.162  -0.295   2.012  0.00  0.00    +0.040 A 
ATOM     11  C   LIG    1       -2.888  -1.076   3.142  0.00  0.00    +0.025 A 
ATOM     12  C   LIG    1       -3.885  -1.337   4.079  0.00  0.00    +0.025 A 
BRANCH   7  19
ATOM     13  C   LIG    1       -7.049   0.075   5.270  0.00  0.00    +0.142 C 
ATOM     14  C   LIG    1       -8.535  -0.352   5.151  0.00  0.00    +0.180 C 
ATOM     15  O   LIG    1       -8.794  -1.660   5.671  0.00  0.00    -0.369 OA
ATOM     16  C   LIG    1       -7.692  -2.330   6.289  0.00  0.00    +0.256 C 
ATOM     17  C   LIG    1       -6.474  -2.326   5.336  0.00  0.00    +0.246 C 
ATOM     18  O   LIG    1       -5.884  -3.362   5.026  0.00  0.00    -0.273 OA
ATOM     19  N   LIG    1       -6.201  -1.071   4.850  0.00  0.00    -0.267 N 
ENDBRANCH   7  19
ENDBRANCH   1  10
BRANCH   3  20
ATOM     20  C   LIG    1        1.295  -0.077  -0.125  0.00  0.00    +0.150 C 
BRANCH  20  21
ATOM     21  N   LIG    1        2.029  -1.334   0.028  0.00  0.00    -0.307 N 
ATOM     22  H   LIG    1        2.411  -1.521   0.944  0.00  0.00    +0.149 HD
ATOM     23  C   LIG    1        2.235  -2.233  -0.953  0.00  0.00    +0.251 C 
ATOM     24  O   LIG    1        1.823  -2.091  -2.107  0.00  0.00    -0.270 OA
BRANCH  23  25
ATOM     25  C   LIG    1        2.983  -3.401  -0.549  0.00  0.00    +0.075 A 
ATOM     26  C   LIG    1        3.523  -3.726   0.700  0.00  0.00    +0.022 A 
ATOM     27  C   LIG    1        4.191  -4.957   0.709  0.00  0.00    +0.028 A 
ATOM     28  C   LIG    1        4.173  -5.590  -0.525  0.00  0.00    +0.079 A 
ATOM     29 CL   LIG    1        4.869  -7.103  -0.945  0.00  0.00    -0.076 Cl
ATOM     30  S   LIG    1        3.321  -4.654  -1.712  0.00  0.00    -0.072 S 
ENDBRANCH  23  25
ENDBRANCH  20  21
ENDBRANCH   3  20
TORSDOF 5
