REMARK  Name = DB06309
REMARK                            x       y       z     vdW  Elec       q    Type
REMARK                         _______ _______ _______ _____ _____    ______ ____
ROOT
ATOM      1  C   LIG    1        4.873  -0.591   0.923  0.00  0.00    +0.147 A 
ATOM      2  C   LIG    1        3.704  -1.087   1.544  0.00  0.00    +0.113 A 
ATOM      3  C   LIG    1        3.801  -1.702   2.814  0.00  0.00    +0.096 A 
ATOM      4  C   LIG    1        5.040  -1.800   3.456  0.00  0.00    +0.181 A 
ATOM      5  F   LIG    1        5.143  -2.377   4.678  0.00  0.00    -0.200 F 
ATOM      6  C   LIG    1        6.184  -1.295   2.848  0.00  0.00    +0.164 A 
ATOM      7  F   LIG    1        7.381  -1.387   3.471  0.00  0.00    -0.202 F 
ATOM      8  C   LIG    1        6.102  -0.697   1.597  0.00  0.00    +0.089 A 
ENDROOT
BRANCH   1  10
ATOM      9  C   LIG    1        5.918   0.542  -0.963  0.00  0.00    +0.277 C 
ATOM     10  O   LIG    1        4.777  -0.041  -0.342  0.00  0.00    -0.493 OA
ENDBRANCH   1  10
BRANCH   2  11
ATOM     11  N   LIG    1        2.434  -1.040   0.929  0.00  0.00    -0.215 N 
ATOM     12  H   LIG    1        1.704  -1.543   1.413  0.00  0.00    +0.174 HD
BRANCH  11  13
ATOM     13  S   LIG    1        1.856   0.267  -0.129  0.00  0.00    +0.049 S 
ATOM     14  O   LIG    1        2.278   1.528   0.493  0.00  0.00    -0.155 OA
ATOM     15  O   LIG    1        2.275  -0.063  -1.496  0.00  0.00    -0.155 OA
BRANCH  13  16
ATOM     16  C   LIG    1       -0.040   0.096  -0.020  0.00  0.00    +0.109 C 
ATOM     17  C   LIG    1       -0.651   0.657   1.244  0.00  0.00    +0.034 C 
ATOM     18  C   LIG    1       -0.779   1.417  -0.058  0.00  0.00    +0.034 C 
BRANCH  16  19
ATOM     19  C   LIG    1       -0.677  -1.118  -0.740  0.00  0.00    +0.065 C 
BRANCH  19  20
ATOM     20  C   LIG    1       -0.219  -2.517  -0.259  0.00  0.00    +0.142 C 
BRANCH  20  21
ATOM     21  O   LIG    1       -0.426  -2.631   1.137  0.00  0.00    -0.389 OA
ATOM     22  H   LIG    1       -1.364  -2.538   1.316  0.00  0.00    +0.210 HD
ENDBRANCH  20  21
BRANCH  20  23
ATOM     23  C   LIG    1       -0.973  -3.670  -0.955  0.00  0.00    +0.187 C 
BRANCH  23  24
ATOM     24  O   LIG    1       -0.642  -3.747  -2.328  0.00  0.00    -0.392 OA
ATOM     25  H   LIG    1       -1.110  -4.491  -2.714  0.00  0.00    +0.210 HD
ENDBRANCH  23  24
ENDBRANCH  20  23
ENDBRANCH  19  20
ENDBRANCH  16  19
ENDBRANCH  13  16
ENDBRANCH  11  13
ENDBRANCH   2  11
BRANCH   3  26
ATOM     26  N   LIG    1        2.670  -2.191   3.496  0.00  0.00    -0.308 N 
ATOM     27  H   LIG    1        2.709  -3.161   3.772  0.00  0.00    +0.152 HD
BRANCH  26  28
ATOM     28  C   LIG    1        1.600  -1.454   4.030  0.00  0.00    +0.067 A 
ATOM     29  C   LIG    1        0.433  -2.121   4.426  0.00  0.00    +0.145 A 
ATOM     30  F   LIG    1        0.333  -3.467   4.311  0.00  0.00    -0.204 F 
ATOM     31  C   LIG    1       -0.648  -1.401   4.939  0.00  0.00    +0.054 A 
ATOM     32  C   LIG    1       -0.570  -0.015   5.067  0.00  0.00    +0.016 A 
ATOM     33  I   LIG    1       -2.196   1.060   5.822  0.00  0.00    -0.044 I 
ATOM     34  C   LIG    1        0.591   0.655   4.684  0.00  0.00    +0.016 A 
ATOM     35  C   LIG    1        1.668  -0.059   4.160  0.00  0.00    +0.027 A 
ENDBRANCH  26  28
ENDBRANCH   3  26
TORSDOF 11
