REMARK  Name = DB06262
REMARK                            x       y       z     vdW  Elec       q    Type
REMARK                         _______ _______ _______ _____ _____    ______ ____
ROOT
ATOM      1  C   UNK    1        1.473  -0.256   0.010  0.00  0.00    +0.172 C 
ENDROOT
BRANCH   1   4
ATOM      2  C   UNK    1       -2.083   1.153  -0.233  0.00  0.00    +0.159 A 
ATOM      3  C   UNK    1       -0.692   1.041  -0.255  0.00  0.00    +0.055 A 
ATOM      4  C   UNK    1       -0.062  -0.175   0.041  0.00  0.00    -0.013 A 
ATOM      5  C   UNK    1       -0.858  -1.283   0.366  0.00  0.00    +0.010 A 
ATOM      6  C   UNK    1       -2.248  -1.177   0.388  0.00  0.00    +0.049 A 
ATOM      7  C   UNK    1       -2.866   0.038   0.089  0.00  0.00    +0.158 A 
BRANCH   2   8
ATOM      8  O   UNK    1       -2.661   2.363  -0.529  0.00  0.00    -0.503 OA
ATOM      9  H   UNK    1       -2.020   3.047  -0.733  0.00  0.00    +0.292 HD
ENDBRANCH   2   8
BRANCH   7  10
ATOM     10  O   UNK    1       -4.236   0.117   0.118  0.00  0.00    -0.503 OA
ATOM     11  H   UNK    1       -4.655  -0.714   0.354  0.00  0.00    +0.292 HD
ENDBRANCH   7  10
ENDBRANCH   1   4
BRANCH   1  12
ATOM     12  O   UNK    1        2.005  -1.473   0.519  0.00  0.00    -0.385 OA
ATOM     13  H   UNK    1        1.839  -1.507   1.464  0.00  0.00    +0.210 HD
ENDBRANCH   1  12
BRANCH   1  14
ATOM     14  C   UNK    1        2.041   0.054  -1.411  0.00  0.00    +0.194 C 
BRANCH  14  15
ATOM     15  N   UNK    1        1.621  -0.910  -2.448  0.00  0.00    -0.316 NA
ATOM     16  H   UNK    1        1.675  -1.860  -2.107  0.00  0.00    +0.119 HD
ATOM     17  H   UNK    1        2.202  -0.846  -3.272  0.00  0.00    +0.119 HD
ENDBRANCH  14  15
BRANCH  14  18
ATOM     18  C   UNK    1        3.582   0.198  -1.443  0.00  0.00    +0.325 C 
ATOM     19  O   UNK    1        4.343  -0.643  -1.925  0.00  0.00    -0.249 OA
BRANCH  18  20
ATOM     20  O   UNK    1        3.974   1.367  -0.858  0.00  0.00    -0.479 OA
ATOM     21  H   UNK    1        4.928   1.474  -0.865  0.00  0.00    +0.295 HD
ENDBRANCH  18  20
ENDBRANCH  14  18
ENDBRANCH   1  14
TORSDOF 8
