REMARK  Name = DB06187
REMARK                            x       y       z     vdW  Elec       q    Type
REMARK                         _______ _______ _______ _____ _____    ______ ____
ROOT
ATOM      1  C   LIG    1        3.677   0.216  -0.837  0.00  0.00    +0.212 C 
ATOM      2  C   LIG    1        4.176   1.473  -1.566  0.00  0.00    +0.187 C 
ATOM      3  O   LIG    1        4.769   2.263  -0.533  0.00  0.00    -0.347 OA
ATOM      4  C   LIG    1        4.580   1.682   0.723  0.00  0.00    +0.227 C 
ATOM      5  C   LIG    1        4.487   0.186   0.456  0.00  0.00    +0.102 C 
ENDROOT
BRANCH   4   6
ATOM      6  N   LIG    1        5.618   2.126   1.652  0.00  0.00    -0.272 N 
ATOM      7  C   LIG    1        5.300   2.803   2.825  0.00  0.00    +0.352 A 
ATOM      8  O   LIG    1        4.120   2.984   3.131  0.00  0.00    -0.244 OA
ATOM      9  N   LIG    1        6.394   3.236   3.609  0.00  0.00    -0.178 NA
ATOM     10  C   LIG    1        7.622   3.028   3.275  0.00  0.00    +0.123 A 
ATOM     11  C   LIG    1        7.955   2.334   2.066  0.00  0.00    +0.061 A 
ATOM     12  C   LIG    1        6.933   1.914   1.308  0.00  0.00    +0.096 A 
BRANCH  10  13
ATOM     13  N   LIG    1        8.631   3.455   4.046  0.00  0.00    -0.343 N 
ATOM     14  H   LIG    1        8.440   3.950   4.905  0.00  0.00    +0.144 HD
ATOM     15  H   LIG    1        9.590   3.292   3.775  0.00  0.00    +0.144 HD
ENDBRANCH  10  13
ENDBRANCH   4   6
BRANCH   1  16
ATOM     16  O   LIG    1        2.282   0.375  -0.561  0.00  0.00    -0.460 OA
BRANCH  16  17
ATOM     17  C   LIG    1        1.490  -0.675  -0.192  0.00  0.00    +0.293 C 
ATOM     18  O   LIG    1        1.873  -1.844  -0.122  0.00  0.00    -0.253 OA
BRANCH  17  19
ATOM     19  C   LIG    1        0.033  -0.300   0.081  0.00  0.00    +0.039 C 
BRANCH  19  20
ATOM     20  N   LIG    1        0.090   0.768   1.144  0.00  0.00    +0.387 N 
ATOM     21  H   LIG    1        0.536   1.589   0.759  0.00  0.00    -0.089 HD
ATOM     22  H   LIG    1       -0.849   0.992   1.440  0.00  0.00    -0.089 HD
ATOM     23  H   LIG    1        0.626   0.425   1.929  0.00  0.00    -0.089 HD
ENDBRANCH  19  20
BRANCH  19  25
ATOM     24  C   LIG    1       -0.916  -1.120  -2.166  0.00  0.00    +0.006 C 
ATOM     25  C   LIG    1       -0.812   0.063  -1.183  0.00  0.00    -0.021 C 
ATOM     26  C   LIG    1       -0.351   1.321  -1.954  0.00  0.00    +0.006 C 
ENDBRANCH  19  25
ENDBRANCH  17  19
ENDBRANCH  16  17
ENDBRANCH   1  16
BRANCH   2  27
ATOM     27  C   LIG    1        5.243   1.174  -2.636  0.00  0.00    +0.191 C 
BRANCH  27  28
ATOM     28  O   LIG    1        5.733   2.368  -3.211  0.00  0.00    -0.392 OA
ATOM     29  H   LIG    1        6.399   2.144  -3.865  0.00  0.00    +0.210 HD
ENDBRANCH  27  28
ENDBRANCH   2  27
TORSDOF 9
