REMARK  Name = DB06775
REMARK                            x       y       z     vdW  Elec       q    Type
REMARK                         _______ _______ _______ _____ _____    ______ ____
ROOT
ATOM      1  CA  GLU A  1        1.572   0.169  -0.042  0.00  0.00    +0.183 C 
ENDROOT
BRANCH   1   2
ATOM      2  N   GLU A  1        1.982   0.924  -1.234  0.00  0.00    -0.286 N 
ATOM      3  H   GLU A  1        1.303   0.960  -1.981  0.00  0.00    +0.151 HD
ATOM      4  C   UNK A  0        3.171   1.522  -1.409  0.00  0.00    +0.298 C 
ATOM      5  N   UNK A  0        3.273   2.111  -2.600  0.00  0.00    -0.313 N 
ATOM      6  H   UNK A  0        2.514   2.063  -3.263  0.00  0.00    +0.146 HD
ATOM      7  H   UNK A  0        4.120   2.601  -2.849  0.00  0.00    +0.146 HD
ATOM      8  O   UNK A  0        4.076   1.544  -0.577  0.00  0.00    -0.253 OA
ENDBRANCH   1   2
BRANCH   1   9
ATOM      9  C   GLU A  1        2.275  -1.204   0.065  0.00  0.00    +0.325 C 
ATOM     10  OXT GLU A  1        2.900  -1.733  -0.833  0.00  0.00    -0.249 OA
BRANCH   9  11
ATOM     11  O   GLU A  1        2.091  -1.715   1.318  0.00  0.00    -0.479 OA
ATOM     12  H   GLU A  1        2.520  -2.566   1.431  0.00  0.00    +0.295 HD
ENDBRANCH   9  11
ENDBRANCH   1   9
BRANCH   1  13
ATOM     13  CB  GLU A  1        0.028   0.025  -0.022  0.00  0.00    +0.045 C 
BRANCH  13  14
ATOM     14  CG  GLU A  1       -0.727   1.370   0.021  0.00  0.00    +0.123 C 
BRANCH  14  15
ATOM     15  CD  GLU A  1       -2.238   1.168   0.113  0.00  0.00    +0.305 C 
ATOM     16  OE1 GLU A  1       -2.872   1.220   1.164  0.00  0.00    -0.251 OA
BRANCH  15  17
ATOM     17  OE2 GLU A  1       -2.800   0.917  -1.105  0.00  0.00    -0.481 OA
ATOM     18  HE2 GLU A  1       -3.750   0.787  -1.052  0.00  0.00    +0.295 HD
ENDBRANCH  15  17
ENDBRANCH  14  15
ENDBRANCH  13  14
ENDBRANCH   1  13
TORSDOF 7
