REMARK  Name = DB06649
REMARK                            x       y       z     vdW  Elec       q    Type
REMARK                         _______ _______ _______ _____ _____    ______ ____
ROOT
ATOM      1  C   LIG    1        1.863  -1.375  -0.211  0.00  0.00    -0.033 A 
ATOM      2  C   LIG    1        2.060  -1.914   1.062  0.00  0.00    +0.008 A 
ATOM      3  C   LIG    1        2.562  -3.204   1.204  0.00  0.00    +0.046 A 
ATOM      4  C   LIG    1        2.878  -3.969   0.070  0.00  0.00    +0.121 A 
ATOM      5  C   LIG    1        2.682  -3.420  -1.198  0.00  0.00    +0.046 A 
ATOM      6  C   LIG    1        2.179  -2.129  -1.342  0.00  0.00    +0.008 A 
ENDROOT
BRANCH   1   7
ATOM      7  C   LIG    1        1.327   0.039  -0.366  0.00  0.00    +0.117 C 
BRANCH   7   8
ATOM      8  N   LIG    1       -0.048   0.131   0.117  0.00  0.00    -0.302 NA
ATOM      9  H   LIG    1       -0.603  -0.441  -0.503  0.00  0.00    +0.123 HD
BRANCH   8  11
ATOM     10  C   LIG    1       -2.137   1.526   0.148  0.00  0.00    +0.034 C 
ATOM     11  C   LIG    1       -0.597   1.508   0.109  0.00  0.00    +0.137 C 
BRANCH  11  12
ATOM     12  C   LIG    1       -0.015   2.299   1.306  0.00  0.00    +0.227 C 
ATOM     13  N   LIG    1        0.542   3.482   1.030  0.00  0.00    -0.328 N 
ATOM     14  H   LIG    1        0.940   4.037   1.773  0.00  0.00    +0.145 HD
ATOM     15  H   LIG    1        0.570   3.825   0.081  0.00  0.00    +0.145 HD
ATOM     16  O   LIG    1       -0.069   1.839   2.447  0.00  0.00    -0.274 OA
ENDBRANCH  11  12
ENDBRANCH   8  11
ENDBRANCH   7   8
ENDBRANCH   1   7
BRANCH   4  17
ATOM     17  O   LIG    1        3.381  -5.258   0.109  0.00  0.00    -0.487 OA
BRANCH  17  18
ATOM     18  C   LIG    1        3.640  -5.896   1.362  0.00  0.00    +0.267 C 
BRANCH  18  19
ATOM     19  C   LIG    1        4.895  -5.353   2.047  0.00  0.00    +0.025 A 
ATOM     20  C   LIG    1        4.997  -5.374   3.445  0.00  0.00    +0.130 A 
ATOM     21  F   LIG    1        3.988  -5.867   4.199  0.00  0.00    -0.205 F 
ATOM     22  C   LIG    1        6.143  -4.884   4.074  0.00  0.00    +0.039 A 
ATOM     23  C   LIG    1        7.195  -4.375   3.314  0.00  0.00    +0.003 A 
ATOM     24  C   LIG    1        7.104  -4.357   1.923  0.00  0.00    +0.001 A 
ATOM     25  C   LIG    1        5.960  -4.845   1.292  0.00  0.00    +0.010 A 
ENDBRANCH  18  19
ENDBRANCH  17  18
ENDBRANCH   4  17
TORSDOF 7
