REMARK  Name = DB06149
REMARK                            x       y       z     vdW  Elec       q    Type
REMARK                         _______ _______ _______ _____ _____    ______ ____
ROOT
ATOM      1  C   LIG    1       10.777  -3.774   3.090  0.00  0.00    +0.159 A 
ATOM      2  C   LIG    1        9.898  -4.798   3.438  0.00  0.00    +0.049 A 
ATOM      3  C   LIG    1        9.168  -4.723   4.624  0.00  0.00    +0.009 A 
ATOM      4  C   LIG    1        9.313  -3.630   5.493  0.00  0.00    -0.018 A 
ATOM      5  CA  LIG    1        8.521  -3.572   6.787  0.00  0.00    +0.168 C 
ATOM      6  C   LIG    1        6.981  -3.682   6.581  0.00  0.00    +0.235 C 
ATOM      7  O   LIG    1        6.498  -4.813   6.630  0.00  0.00    -0.274 OA
ATOM      8  N   LIG    1        6.169  -2.631   6.320  0.00  0.00    -0.302 N 
ATOM      9  H   LIG    1        5.198  -2.871   6.186  0.00  0.00    +0.150 HD
ATOM     10  CA  LIG    1        6.400  -1.184   6.186  0.00  0.00    +0.163 C 
ATOM     11  C   LIG    1        5.148  -0.402   6.710  0.00  0.00    +0.067 C 
ATOM     12  C   LIG    1        4.023  -0.307   5.680  0.00  0.00    -0.044 A 
ATOM     13  C   LIG    1        3.776   0.910   5.038  0.00  0.00    +0.027 A 
ATOM     14  C   LIG    1        2.975   0.951   3.899  0.00  0.00    +0.083 A 
ATOM     15 CL   LIG    1        2.777   2.450   3.061  0.00  0.00    -0.080 Cl
ATOM     16  C   LIG    1        2.420  -0.237   3.402  0.00  0.00    +0.147 A 
ATOM     17  O   LIG    1        1.851  -0.284   2.154  0.00  0.00    -0.451 OA
ATOM     18  C   LIG    1        2.678  -0.218   1.042  0.00  0.00    +0.174 A 
ATOM     19  C   LIG    1        2.089   0.094  -0.186  0.00  0.00    +0.208 A 
ATOM     20  C   LIG    1        2.867   0.194  -1.341  0.00  0.00    +0.174 A 
ATOM     21  O   LIG    1        2.239   0.422  -2.550  0.00  0.00    -0.451 OA
ATOM     22  C   LIG    1        2.706  -0.281  -3.634  0.00  0.00    +0.147 A 
ATOM     23  C   LIG    1        3.476   0.385  -4.588  0.00  0.00    +0.048 A 
ATOM     24  C   LIG    1        4.123  -0.334  -5.589  0.00  0.00    +0.010 A 
ATOM     25  C   LIG    1        4.005  -1.728  -5.646  0.00  0.00    -0.015 A 
ATOM     26  C   LIG    1        3.148  -2.378  -4.752  0.00  0.00    +0.030 A 
ATOM     27  C   LIG    1        4.849  -2.553  -6.622  0.00  0.00    +0.181 C 
ATOM     28  CA  LIG    1        6.395  -2.551  -6.299  0.00  0.00    +0.192 C 
ATOM     29  N   LIG    1        6.722  -2.397  -4.878  0.00  0.00    -0.300 N 
ATOM     30  H   LIG    1        7.289  -1.591  -4.656  0.00  0.00    +0.150 HD
ATOM     31  C   LIG    1        6.495  -3.309  -3.914  0.00  0.00    +0.239 C 
ATOM     32  O   LIG    1        5.796  -4.309  -4.080  0.00  0.00    -0.273 OA
ATOM     33  CA  LIG    1        7.222  -3.123  -2.554  0.00  0.00    +0.190 C 
ATOM     34  N   LIG    1        6.819  -1.882  -1.869  0.00  0.00    -0.299 N 
ATOM     35  H   LIG    1        6.339  -1.196  -2.435  0.00  0.00    +0.150 HD
ATOM     36  C   LIG    1        6.966  -1.664  -0.544  0.00  0.00    +0.239 C 
ATOM     37  O   LIG    1        7.508  -2.476   0.210  0.00  0.00    -0.273 OA
ATOM     38  CA  LIG    1        6.407  -0.333   0.026  0.00  0.00    +0.190 C 
ATOM     39  C   LIG    1        4.882  -0.257  -0.032  0.00  0.00    -0.011 A 
ATOM     40  N   LIG    1        6.978  -0.042   1.360  0.00  0.00    -0.298 N 
ATOM     41  H   LIG    1        7.587  -0.762   1.726  0.00  0.00    +0.150 HD
ATOM     42  C   LIG    1        6.853   1.103   2.061  0.00  0.00    +0.239 C 
ATOM     43  O   LIG    1        6.152   2.047   1.693  0.00  0.00    -0.273 OA
ATOM     44  CA  LIG    1        7.658   1.240   3.382  0.00  0.00    +0.190 C 
ATOM     45  N   LIG    1        7.164   0.504   4.574  0.00  0.00    -0.299 N 
ATOM     46  H   LIG    1        7.155   1.074   5.408  0.00  0.00    +0.150 HD
ATOM     47  C   LIG    1        9.155   1.074   3.216  0.00  0.00    -0.011 A 
ATOM     48  C   LIG    1        9.741  -0.188   3.310  0.00  0.00    +0.052 A 
ATOM     49  C   LIG    1       11.129  -0.364   3.350  0.00  0.00    +0.132 A 
ATOM     50  O   LIG    1       11.716  -1.604   3.546  0.00  0.00    -0.452 OA
ATOM     51  C   LIG    1       11.944   0.757   3.181  0.00  0.00    +0.091 A 
ATOM     52  C   LIG    1       11.379   2.022   3.004  0.00  0.00    +0.121 A 
ATOM     53  C   LIG    1        9.991   2.182   3.034  0.00  0.00    +0.051 A 
ATOM     54  C   LIG    1        8.733  -3.202  -2.725  0.00  0.00    -0.018 A 
ATOM     55  C   LIG    1        9.452  -4.216  -2.086  0.00  0.00    +0.009 A 
ATOM     56  C   LIG    1       10.800  -4.418  -2.374  0.00  0.00    +0.046 A 
ATOM     57  C   LIG    1       11.442  -3.628  -3.330  0.00  0.00    +0.125 A 
ATOM     58  C   LIG    1       10.749  -2.582  -3.965  0.00  0.00    +0.028 A 
ATOM     59  C   LIG    1       11.366  -1.721  -5.021  0.00  0.00    +0.033 A 
ATOM     60  C   LIG    1       10.873  -1.673  -6.357  0.00  0.00    -0.002 A 
ATOM     61  CA  LIG    1        9.758  -2.548  -6.950  0.00  0.00    +0.213 C 
ATOM     62  N   LIG    1        8.601  -1.689  -7.306  0.00  0.00    -0.297 N 
ATOM     63  H   LIG    1        8.941  -0.942  -7.894  0.00  0.00    +0.150 HD
ATOM     64  C   LIG    1       11.454  -0.755  -7.248  0.00  0.00    +0.052 A 
ATOM     65  C   LIG    1       12.495   0.079  -6.865  0.00  0.00    +0.121 A 
ATOM     66  C   LIG    1       12.991   0.011  -5.572  0.00  0.00    +0.091 A 
ATOM     67  C   LIG    1       12.434  -0.879  -4.647  0.00  0.00    +0.136 A 
ATOM     68  C   LIG    1        9.422  -2.348  -3.600  0.00  0.00    +0.018 A 
ATOM     69  C   LIG    1        7.271  -1.553  -7.096  0.00  0.00    +0.237 C 
ATOM     70  O   LIG    1        6.722  -0.558  -7.563  0.00  0.00    -0.274 OA
ATOM     71  C   LIG    1        2.497  -1.663  -3.749  0.00  0.00    +0.083 A 
ATOM     72 CL   LIG    1        1.494  -2.515  -2.628  0.00  0.00    -0.080 Cl
ATOM     73  C   LIG    1        4.260   0.056  -1.244  0.00  0.00    +0.056 A 
ATOM     74  C   LIG    1        4.069  -0.424   1.097  0.00  0.00    +0.056 A 
ATOM     75  C   LIG    1        2.549  -1.423   4.124  0.00  0.00    +0.048 A 
ATOM     76  C   LIG    1        3.348  -1.459   5.265  0.00  0.00    +0.007 A 
ATOM     77  C   LIG    1        6.795  -0.786   4.739  0.00  0.00    +0.234 C 
ATOM     78  O   LIG    1        6.742  -1.623   3.838  0.00  0.00    -0.274 OA
ATOM     79  C   LIG    1       10.233  -2.631   5.153  0.00  0.00    +0.055 A 
ATOM     80  C   LIG    1       10.935  -2.674   3.939  0.00  0.00    +0.170 A 
ENDROOT
BRANCH   5  81
ATOM     81  N   LIG    1        8.809  -2.526   7.786  0.00  0.00    -0.316 NA
ATOM     82  H1  LIG    1        9.804  -2.461   7.951  0.00  0.00    +0.119 HD
ATOM     83  H2  LIG    1        8.392  -2.764   8.675  0.00  0.00    +0.119 HD
ENDBRANCH   5  81
BRANCH   1  84
ATOM     84  O   LIG    1       11.456  -3.846   1.901  0.00  0.00    -0.503 OA
ATOM     85  H   LIG    1       12.075  -3.123   1.780  0.00  0.00    +0.292 HD
ENDBRANCH   1  84
BRANCH  52  86
ATOM     86  O   LIG    1       12.189   3.111   2.821  0.00  0.00    -0.507 OA
ATOM     87  H   LIG    1       11.699   3.930   2.717  0.00  0.00    +0.292 HD
ENDBRANCH  52  86
BRANCH  57  88
ATOM     88  O   LIG    1       12.746  -3.912  -3.645  0.00  0.00    -0.506 OA
ATOM     89  H   LIG    1       13.104  -4.646  -3.140  0.00  0.00    +0.292 HD
ENDBRANCH  57  88
BRANCH  61  90
ATOM     90  C   LIG    1        9.650  -4.020  -6.461  0.00  0.00    +0.330 C 
ATOM     91  OXT LIG    1        8.692  -4.531  -5.933  0.00  0.00    -0.249 OA
BRANCH  90  92
ATOM     92  O   LIG    1       10.841  -4.653  -6.682  0.00  0.00    -0.479 OA
ATOM     93  H   LIG    1       10.829  -5.564  -6.378  0.00  0.00    +0.295 HD
ENDBRANCH  90  92
ENDBRANCH  61  90
BRANCH  65  94
ATOM     94  O   LIG    1       13.035   0.959  -7.765  0.00  0.00    -0.507 OA
ATOM     95  H   LIG    1       13.746   1.486  -7.394  0.00  0.00    +0.292 HD
ENDBRANCH  65  94
BRANCH  27  96
ATOM     96  O   LIG    1        4.559  -2.130  -7.962  0.00  0.00    -0.339 OA
BRANCH  96  97
ATOM     97  C   LIG    1        3.771  -2.960  -8.772  0.00  0.00    +0.274 C 
ATOM     98  O   LIG    1        2.576  -3.320  -8.127  0.00  0.00    -0.341 OA
ATOM     99  C   LIG    1        1.646  -3.998  -8.980  0.00  0.00    +0.178 C 
ATOM    100  C   LIG    1        2.269  -5.331  -9.483  0.00  0.00    +0.176 C 
ATOM    101  C   LIG    1        3.661  -5.083 -10.114  0.00  0.00    +0.171 C 
ATOM    102  C   LIG    1        4.558  -4.221  -9.188  0.00  0.00    +0.160 C 
BRANCH 102 103
ATOM    103  N   LIG    1        5.900  -3.928  -9.714  0.00  0.00    -0.305 N 
ATOM    104  H   LIG    1        5.972  -3.107 -10.297  0.00  0.00    +0.149 HD
ATOM    105  C   LIG    1        7.019  -4.635  -9.479  0.00  0.00    +0.210 C 
ATOM    106  C   LIG    1        8.290  -4.125 -10.150  0.00  0.00    +0.109 C 
ATOM    107  O   LIG    1        7.064  -5.639  -8.768  0.00  0.00    -0.276 OA
ENDBRANCH 102 103
BRANCH 100 108
ATOM    108  O   LIG    1        1.413  -6.014 -10.384  0.00  0.00    -0.387 OA
ATOM    109  H   LIG    1        1.317  -5.484 -11.179  0.00  0.00    +0.210 HD
ENDBRANCH 100 108
BRANCH 101 110
ATOM    110  O   LIG    1        4.293  -6.295 -10.497  0.00  0.00    -0.387 OA
ATOM    111  H   LIG    1        4.450  -6.821  -9.709  0.00  0.00    +0.210 HD
ENDBRANCH 101 110
BRANCH  99 112
ATOM    112  C   LIG    1        0.347  -4.174  -8.161  0.00  0.00    +0.190 C 
BRANCH 112 113
ATOM    113  O   LIG    1       -0.759  -4.496  -8.980  0.00  0.00    -0.392 OA
ATOM    114  H   LIG    1       -1.532  -4.606  -8.421  0.00  0.00    +0.210 HD
ENDBRANCH 112 113
ENDBRANCH  99 112
ENDBRANCH  96  97
ENDBRANCH  27  96
BRANCH  67 115
ATOM    115  O   LIG    1       12.908  -0.981  -3.353  0.00  0.00    -0.460 OA
BRANCH 115 116
ATOM    116  C   LIG    1       13.366   0.152  -2.668  0.00  0.00    +0.339 C 
ATOM    117  O   LIG    1       12.384   1.159  -2.566  0.00  0.00    -0.331 OA
ATOM    118  C   LIG    1       11.163   0.765  -1.917  0.00  0.00    +0.179 C 
ATOM    119  C   LIG    1       11.418   0.208  -0.488  0.00  0.00    +0.177 C 
ATOM    120  C   LIG    1       12.557  -0.835  -0.497  0.00  0.00    +0.180 C 
ATOM    121  C   LIG    1       13.788  -0.312  -1.270  0.00  0.00    +0.214 C 
BRANCH 119 122
ATOM    122  O   LIG    1       10.240  -0.348   0.071  0.00  0.00    -0.386 OA
ATOM    123  H   LIG    1       10.009  -1.141  -0.420  0.00  0.00    +0.210 HD
ENDBRANCH 119 122
BRANCH 120 124
ATOM    124  O   LIG    1       12.917  -1.273   0.800  0.00  0.00    -0.386 OA
ATOM    125  H   LIG    1       12.125  -1.291   1.343  0.00  0.00    +0.210 HD
ENDBRANCH 120 124
BRANCH 121 126
ATOM    126  O   LIG    1       14.479   0.717  -0.582  0.00  0.00    -0.383 OA
ATOM    127  H   LIG    1       14.496   0.495   0.353  0.00  0.00    +0.210 HD
ENDBRANCH 121 126
BRANCH 118 128
ATOM    128  C   LIG    1       10.230   1.994  -1.951  0.00  0.00    +0.190 C 
BRANCH 128 129
ATOM    129  O   LIG    1        8.888   1.645  -1.682  0.00  0.00    -0.392 OA
ATOM    130  H   LIG    1        8.827   1.359  -0.766  0.00  0.00    +0.210 HD
ENDBRANCH 128 129
ENDBRANCH 118 128
ENDBRANCH 115 116
ENDBRANCH  67 115
BRANCH  19 131
ATOM    131  O   LIG    1        0.732   0.311  -0.248  0.00  0.00    -0.454 OA
BRANCH 131 132
ATOM    132  C   LIG    1        0.269   1.638  -0.158  0.00  0.00    +0.331 C 
ATOM    133  O   LIG    1        1.294   2.591   0.020  0.00  0.00    -0.332 OA
ATOM    134  C   LIG    1        0.835   3.945  -0.048  0.00  0.00    +0.179 C 
ATOM    135  C   LIG    1       -0.133   4.207   1.134  0.00  0.00    +0.176 C 
ATOM    136  C   LIG    1       -1.265   3.154   1.153  0.00  0.00    +0.172 C 
ATOM    137  C   LIG    1       -0.708   1.711   1.028  0.00  0.00    +0.173 C 
BRANCH 137 138
ATOM    138  N   LIG    1       -1.727   0.651   1.019  0.00  0.00    -0.304 N 
ATOM    139  H   LIG    1       -2.083   0.396   0.110  0.00  0.00    +0.149 HD
ATOM    140  C   LIG    1       -2.188  -0.023   2.088  0.00  0.00    +0.213 C 
ATOM    141  O   LIG    1       -1.802   0.186   3.240  0.00  0.00    -0.276 OA
BRANCH 140 142
ATOM    142  C   LIG    1       -3.244  -1.099   1.787  0.00  0.00    +0.096 C 
BRANCH 142 143
ATOM    143  C   LIG    1       -3.996  -1.628   3.030  0.00  0.00    +0.009 C 
BRANCH 143 144
ATOM    144  C   LIG    1       -5.154  -2.591   2.701  0.00  0.00    +0.000 C 
BRANCH 144 145
ATOM    145  C   LIG    1       -4.710  -3.917   2.052  0.00  0.00    +0.000 C 
BRANCH 145 146
ATOM    146  C   LIG    1       -5.876  -4.894   1.823  0.00  0.00    +0.000 C 
BRANCH 146 147
ATOM    147  C   LIG    1       -5.431  -6.213   1.165  0.00  0.00    -0.000 C 
BRANCH 147 148
ATOM    148  C   LIG    1       -6.593  -7.196   0.938  0.00  0.00    -0.000 C 
BRANCH 148 149
ATOM    149  C   LIG    1       -6.143  -8.513   0.282  0.00  0.00    -0.003 C 
ATOM    150  C   LIG    1       -7.301  -9.495   0.055  0.00  0.00    +0.004 C 
ENDBRANCH 148 149
ENDBRANCH 147 148
ENDBRANCH 146 147
ENDBRANCH 145 146
ENDBRANCH 144 145
ENDBRANCH 143 144
ENDBRANCH 142 143
ENDBRANCH 140 142
ENDBRANCH 137 138
BRANCH 136 151
ATOM    151  O   LIG    1       -2.096   3.311   2.292  0.00  0.00    -0.387 OA
ATOM    152  H   LIG    1       -2.567   2.487   2.439  0.00  0.00    +0.210 HD
ENDBRANCH 136 151
BRANCH 135 153
ATOM    153  O   LIG    1       -0.659   5.523   1.092  0.00  0.00    -0.387 OA
ATOM    154  H   LIG    1       -1.175   5.665   1.890  0.00  0.00    +0.210 HD
ENDBRANCH 135 153
BRANCH 134 155
ATOM    155  C   LIG    1        2.073   4.867  -0.024  0.00  0.00    +0.190 C 
BRANCH 155 156
ATOM    156  O   LIG    1        2.862   4.678  -1.183  0.00  0.00    -0.392 OA
ATOM    157  H   LIG    1        3.638   5.240  -1.120  0.00  0.00    +0.210 HD
ENDBRANCH 155 156
ENDBRANCH 134 155
ENDBRANCH 131 132
ENDBRANCH  19 131
TORSDOF 36
