REMARK  Name = DB06695
REMARK                            x       y       z     vdW  Elec       q    Type
REMARK                         _______ _______ _______ _____ _____    ______ ____
ROOT
ATOM      1  C   LIG    1       -2.625   5.506  -0.491  0.00  0.00    +0.039 A 
ATOM      2  C   LIG    1       -3.370   4.835   0.490  0.00  0.00    +0.015 A 
ATOM      3  C   LIG    1       -3.226   3.469   0.744  0.00  0.00    +0.029 A 
ATOM      4  C   LIG    1       -2.279   2.783  -0.023  0.00  0.00    +0.069 A 
ATOM      5  N   LIG    1       -1.868   1.465  -0.077  0.00  0.00    -0.329 N 
ATOM      6  C   LIG    1       -2.357   0.382   0.767  0.00  0.00    +0.150 C 
ATOM      7  C   LIG    1       -0.860   1.408  -1.025  0.00  0.00    +0.128 A 
ATOM      8  N   LIG    1       -0.618   2.564  -1.592  0.00  0.00    -0.231 NA
ATOM      9  C   LIG    1       -1.487   3.436  -0.997  0.00  0.00    +0.090 A 
ATOM     10  C   LIG    1       -1.656   4.806  -1.230  0.00  0.00    +0.043 A 
ENDROOT
BRANCH   1  12
ATOM     11  N   LIG    1       -2.757   7.511  -1.974  0.00  0.00    -0.252 N 
ATOM     12  C   LIG    1       -2.842   6.991  -0.708  0.00  0.00    +0.252 C 
ATOM     13  O   LIG    1       -3.010   7.698   0.290  0.00  0.00    -0.270 OA
BRANCH  11  14
ATOM     14  C   LIG    1       -3.032   6.778  -3.165  0.00  0.00    +0.128 A 
ATOM     15  C   LIG    1       -4.043   5.797  -3.214  0.00  0.00    +0.044 A 
ATOM     16  C   LIG    1       -4.274   5.112  -4.408  0.00  0.00    +0.005 A 
ATOM     17  C   LIG    1       -3.508   5.415  -5.533  0.00  0.00    +0.020 A 
ATOM     18  C   LIG    1       -2.535   6.407  -5.426  0.00  0.00    +0.113 A 
ATOM     19  N   LIG    1       -2.297   7.083  -4.274  0.00  0.00    -0.240 NA
ENDBRANCH  11  14
BRANCH  11  20
ATOM     20  C   LIG    1       -2.521   8.963  -2.119  0.00  0.00    +0.126 C 
BRANCH  20  21
ATOM     21  C   LIG    1       -1.020   9.323  -2.116  0.00  0.00    +0.140 C 
BRANCH  21  22
ATOM     22  C   LIG    1       -0.713  10.772  -2.505  0.00  0.00    +0.309 C 
ATOM     23  O   LIG    1       -1.598  11.613  -2.682  0.00  0.00    -0.251 OA
BRANCH  22  24
ATOM     24  O   LIG    1        0.613  10.980  -2.633  0.00  0.00    -0.465 OA
BRANCH  24  25
ATOM     25  C   LIG    1        1.115  12.257  -3.006  0.00  0.00    +0.229 C 
ATOM     26  C   LIG    1        2.643  12.195  -3.097  0.00  0.00    +0.048 C 
ENDBRANCH  24  25
ENDBRANCH  22  24
ENDBRANCH  21  22
ENDBRANCH  20  21
ENDBRANCH  11  20
ENDBRANCH   1  12
BRANCH   7  27
ATOM     27  C   LIG    1       -0.103   0.144  -1.385  0.00  0.00    +0.176 C 
BRANCH  27  28
ATOM     28  N   LIG    1        0.870  -0.221  -0.361  0.00  0.00    -0.337 N 
ATOM     29  H   LIG    1        0.682   0.094   0.580  0.00  0.00    +0.147 HD
BRANCH  28  30
ATOM     30  C   LIG    1        1.671  -1.367  -0.500  0.00  0.00    +0.027 A 
ATOM     31  C   LIG    1        1.846  -2.030  -1.721  0.00  0.00    +0.024 A 
ATOM     32  C   LIG    1        2.644  -3.168  -1.790  0.00  0.00    +0.017 A 
ATOM     33  C   LIG    1        3.275  -3.668  -0.643  0.00  0.00    +0.064 A 
ATOM     34  C   LIG    1        3.104  -2.993   0.572  0.00  0.00    +0.017 A 
ATOM     35  C   LIG    1        2.312  -1.850   0.641  0.00  0.00    +0.024 A 
BRANCH  33  36
ATOM     36  C   LIG    1        4.094  -4.902  -0.710  0.00  0.00    +0.314 C 
ATOM     37  N   LIG    1        3.855  -6.008  -0.093  0.00  0.00    +0.065 NA
BRANCH  36  38
ATOM     38  N   LIG    1        5.182  -4.681  -1.524  0.00  0.00    -0.248 N 
ATOM     39  H   LIG    1        5.321  -3.784  -1.964  0.00  0.00    +0.288 HD
ATOM     40  H   LIG    1        5.863  -5.412  -1.673  0.00  0.00    +0.288 HD
ENDBRANCH  36  38
BRANCH  37  41
ATOM     41  C   LIG    1        2.689  -6.234   0.635  0.00  0.00    +0.542 C 
ATOM     42  O   LIG    1        2.703  -6.676   1.785  0.00  0.00    -0.198 OA
BRANCH  41  43
ATOM     43  O   LIG    1        1.556  -5.997  -0.093  0.00  0.00    -0.430 OA
BRANCH  43  44
ATOM     44  C   LIG    1        0.257  -6.173   0.464  0.00  0.00    +0.236 C 
BRANCH  44  45
ATOM     45  C   LIG    1       -0.196  -7.643   0.408  0.00  0.00    +0.041 C 
BRANCH  45  46
ATOM     46  C   LIG    1       -1.624  -7.837   0.946  0.00  0.00    +0.003 C 
BRANCH  46  47
ATOM     47  C   LIG    1       -2.098  -9.299   0.878  0.00  0.00    -0.000 C 
BRANCH  47  48
ATOM     48  C   LIG    1       -3.522  -9.493   1.429  0.00  0.00    -0.003 C 
ATOM     49  C   LIG    1       -4.001 -10.948   1.350  0.00  0.00    +0.004 C 
ENDBRANCH  47  48
ENDBRANCH  46  47
ENDBRANCH  45  46
ENDBRANCH  44  45
ENDBRANCH  43  44
ENDBRANCH  41  43
ENDBRANCH  37  41
ENDBRANCH  33  36
ENDBRANCH  28  30
ENDBRANCH  27  28
ENDBRANCH   7  27
TORSDOF 19
