REMARK  Name = DB06311
REMARK                            x       y       z     vdW  Elec       q    Type
REMARK                         _______ _______ _______ _____ _____    ______ ____
ROOT
ATOM      1  N   LIG    1        1.279   0.065  -0.191  0.00  0.00    -0.297 N 
ATOM      2  C   LIG    1        2.313   0.602  -0.895  0.00  0.00    +0.236 C 
ATOM      3  O   LIG    1        2.127   1.208  -1.955  0.00  0.00    -0.274 OA
ENDROOT
BRANCH   1   4
ATOM      4  C   LIG    1       -0.113   0.179  -0.666  0.00  0.00    +0.089 C 
BRANCH   4   5
ATOM      5  C   LIG    1       -0.713   1.606  -0.652  0.00  0.00    -0.060 C 
BRANCH   5   6
ATOM      6  N   LIG    1       -1.165   1.994   0.780  0.00  0.00    +0.380 N 
ATOM      7  H   LIG    1       -1.406   1.131   1.248  0.00  0.00    -0.082 HD
BRANCH   6   9
ATOM      8  C   LIG    1       -0.237   2.405   3.107  0.00  0.00    -0.017 C 
ATOM      9  C   LIG    1       -0.021   2.639   1.603  0.00  0.00    -0.082 C 
ENDBRANCH   6   9
BRANCH   6  10
ATOM     10  C   LIG    1       -2.445   2.867   0.786  0.00  0.00    -0.082 C 
ATOM     11  C   LIG    1       -3.690   2.011   0.498  0.00  0.00    -0.017 C 
ENDBRANCH   6  10
ENDBRANCH   5   6
ENDBRANCH   4   5
ENDBRANCH   1   4
BRANCH   2  12
ATOM     12  C   LIG    1        3.760   0.463  -0.342  0.00  0.00    +0.219 C 
BRANCH  12  13
ATOM     13  N   LIG    1        4.809   0.838  -1.318  0.00  0.00    -0.315 N 
ATOM     14  C   LIG    1        5.136  -0.006  -2.404  0.00  0.00    +0.173 A 
ATOM     15  N   LIG    1        5.530   0.414  -3.558  0.00  0.00    -0.185 NA
ATOM     16  C   LIG    1        5.695   1.788  -3.835  0.00  0.00    +0.277 A 
ATOM     17  O   LIG    1        5.965   2.303  -4.918  0.00  0.00    -0.265 OA
ATOM     18  C   LIG    1        5.524   2.682  -2.684  0.00  0.00    +0.038 A 
ATOM     19  C   LIG    1        5.745   4.181  -2.620  0.00  0.00    +0.043 C 
ATOM     20  C   LIG    1        5.175   4.562  -1.254  0.00  0.00    +0.011 C 
ATOM     21  C   LIG    1        4.980   3.283  -0.440  0.00  0.00    +0.054 C 
ATOM     22  C   LIG    1        5.117   2.192  -1.486  0.00  0.00    +0.030 A 
BRANCH  14  23
ATOM     23  S   LIG    1        5.058  -1.791  -2.077  0.00  0.00    -0.083 S 
BRANCH  23  24
ATOM     24  C   LIG    1        4.540  -2.435  -3.702  0.00  0.00    +0.112 C 
BRANCH  24  25
ATOM     25  C   LIG    1        3.067  -2.139  -3.951  0.00  0.00    -0.037 A 
ATOM     26  C   LIG    1        2.091  -2.922  -3.330  0.00  0.00    +0.007 A 
ATOM     27  C   LIG    1        0.742  -2.627  -3.513  0.00  0.00    +0.038 A 
ATOM     28  C   LIG    1        0.373  -1.551  -4.317  0.00  0.00    +0.123 A 
ATOM     29  F   LIG    1       -0.936  -1.258  -4.483  0.00  0.00    -0.205 F 
ATOM     30  C   LIG    1        1.342  -0.774  -4.949  0.00  0.00    +0.038 A 
ATOM     31  C   LIG    1        2.690  -1.070  -4.769  0.00  0.00    +0.007 A 
ENDBRANCH  24  25
ENDBRANCH  23  24
ENDBRANCH  14  23
ENDBRANCH  12  13
ENDBRANCH   2  12
BRANCH   1  32
ATOM     32  C   LIG    1        1.460  -0.792   0.995  0.00  0.00    +0.142 C 
BRANCH  32  33
ATOM     33  C   LIG    1        1.684  -2.270   0.681  0.00  0.00    -0.030 A 
ATOM     34  C   LIG    1        2.878  -2.882   1.064  0.00  0.00    +0.006 A 
ATOM     35  C   LIG    1        3.106  -4.221   0.758  0.00  0.00    +0.009 A 
ATOM     36  C   LIG    1        2.140  -4.972   0.079  0.00  0.00    -0.018 A 
ATOM     37  C   LIG    1        0.931  -4.359  -0.270  0.00  0.00    +0.009 A 
ATOM     38  C   LIG    1        0.702  -3.019   0.029  0.00  0.00    +0.006 A 
BRANCH  36  39
ATOM     39  C   LIG    1        2.395  -6.397  -0.273  0.00  0.00    -0.018 A 
ATOM     40  C   LIG    1        2.056  -6.887  -1.539  0.00  0.00    +0.009 A 
ATOM     41  C   LIG    1        2.296  -8.217  -1.874  0.00  0.00    +0.013 A 
ATOM     42  C   LIG    1        2.878  -9.082  -0.943  0.00  0.00    +0.055 A 
ATOM     43  C   LIG    1        3.221  -8.598   0.323  0.00  0.00    +0.013 A 
ATOM     44  C   LIG    1        2.981  -7.268   0.653  0.00  0.00    +0.009 A 
BRANCH  42  45
ATOM     45  C   LIG    1        3.139 -10.545  -1.303  0.00  0.00    +0.417 C 
ATOM     46  F   LIG    1        3.004 -11.336  -0.237  0.00  0.00    -0.166 F 
ATOM     47  F   LIG    1        4.384 -10.661  -1.762  0.00  0.00    -0.166 F 
ATOM     48  F   LIG    1        2.299 -10.978  -2.245  0.00  0.00    -0.166 F 
ENDBRANCH  42  45
ENDBRANCH  36  39
ENDBRANCH  32  33
ENDBRANCH   1  32
TORSDOF 14
