REMARK  Name = DB06422
REMARK                            x       y       z     vdW  Elec       q    Type
REMARK                         _______ _______ _______ _____ _____    ______ ____
ROOT
ATOM      1  C   LIG    1        0.107  -0.041  -0.447  0.00  0.00    +0.248 C 
ATOM      2  N   LIG    1       -0.444  -1.243  -0.185  0.00  0.00    -0.306 N 
ATOM      3  H   LIG    1        0.156  -1.967   0.182  0.00  0.00    +0.149 HD
ATOM      4  O   LIG    1       -0.562   0.945  -0.763  0.00  0.00    -0.270 OA
ENDROOT
BRANCH   2   5
ATOM      5  C   LIG    1       -1.875  -1.554  -0.223  0.00  0.00    +0.098 C 
ATOM      6  C   LIG    1       -2.295  -2.722   0.697  0.00  0.00    +0.006 C 
ATOM      7  C   LIG    1       -3.814  -2.980   0.721  0.00  0.00    -0.081 C 
ATOM      8  N   LIG    1       -4.339  -3.150  -0.714  0.00  0.00    +0.381 N 
ATOM      9  H   LIG    1       -3.910  -3.962  -1.134  0.00  0.00    -0.086 HD
ATOM     10  H   LIG    1       -5.336  -3.316  -0.691  0.00  0.00    -0.086 HD
ATOM     11  C   LIG    1       -4.046  -1.917  -1.588  0.00  0.00    -0.049 C 
ATOM     12  C   LIG    1       -2.527  -1.637  -1.635  0.00  0.00    +0.121 C 
BRANCH  12  13
ATOM     13  O   LIG    1       -1.915  -2.645  -2.444  0.00  0.00    -0.380 OA
ATOM     14  C   LIG    1       -0.911  -2.197  -3.348  0.00  0.00    +0.194 C 
ENDBRANCH  12  13
ENDBRANCH   2   5
BRANCH   1  20
ATOM     15 CL   LIG    1        4.670  -2.473  -1.057  0.00  0.00    -0.082 Cl
ATOM     16  C   LIG    1        3.784  -1.051  -0.619  0.00  0.00    +0.062 A 
ATOM     17  C   LIG    1        4.428   0.120  -0.211  0.00  0.00    +0.047 A 
ATOM     18  C   LIG    1        3.672   1.240   0.131  0.00  0.00    +0.070 A 
ATOM     19  C   LIG    1        2.266   1.220   0.074  0.00  0.00    +0.134 A 
ATOM     20  C   LIG    1        1.617   0.035  -0.341  0.00  0.00    +0.080 A 
ATOM     21  C   LIG    1        2.393  -1.085  -0.680  0.00  0.00    +0.038 A 
BRANCH  17  22
ATOM     22  N   LIG    1        5.821   0.197  -0.138  0.00  0.00    -0.357 N 
ATOM     23  H   LIG    1        6.240   1.008   0.294  0.00  0.00    +0.142 HD
ATOM     24  H   LIG    1        6.356  -0.650  -0.264  0.00  0.00    +0.142 HD
ENDBRANCH  17  22
BRANCH  19  25
ATOM     25  O   LIG    1        1.491   2.314   0.427  0.00  0.00    -0.494 OA
ATOM     26  C   LIG    1        2.113   3.526   0.844  0.00  0.00    +0.277 C 
ENDBRANCH  19  25
ENDBRANCH   1  20
TORSDOF 5
