REMARK  Name = DB06741
REMARK                            x       y       z     vdW  Elec       q    Type
REMARK                         _______ _______ _______ _____ _____    ______ ____
ROOT
ATOM      1  C   LIG    1        3.741   0.972   0.398  0.00  0.00    +0.016 A 
ATOM      2  CA  LIG    1        4.662  -0.081   0.506  0.00  0.00    +0.132 A 
ATOM      3  N   LIG    1        5.923   0.405   0.236  0.00  0.00    -0.349 N 
ATOM      4  H   LIG    1        6.737  -0.193   0.261  0.00  0.00    +0.166 HD
ATOM      5  C   LIG    1        5.884   1.748  -0.043  0.00  0.00    +0.050 A 
ATOM      6  C   LIG    1        6.916   2.636  -0.364  0.00  0.00    +0.046 A 
ATOM      7  C   LIG    1        6.561   3.962  -0.602  0.00  0.00    +0.044 A 
ATOM      8 CL   LIG    1        7.792   5.104  -1.003  0.00  0.00    -0.083 Cl
ATOM      9  C   LIG    1        5.239   4.386  -0.525  0.00  0.00    +0.040 A 
ATOM     10  C   LIG    1        4.209   3.502  -0.205  0.00  0.00    +0.052 A 
ATOM     11 CL   LIG    1        2.590   4.103  -0.142  0.00  0.00    -0.083 Cl
ATOM     12  C   LIG    1        4.516   2.147   0.050  0.00  0.00    +0.026 A 
ENDROOT
BRANCH   1  14
ATOM     13  C   LIG    1        1.460  -0.016   0.120  0.00  0.00    +0.068 C 
ATOM     14  C   LIG    1        2.300   0.928   0.591  0.00  0.00    +0.016 C 
BRANCH  13  17
ATOM     15  N   LIG    1       -0.589  -1.064  -0.163  0.00  0.00    -0.282 N 
ATOM     16  H   LIG    1        0.007  -1.778  -0.554  0.00  0.00    +0.155 HD
ATOM     17  C   LIG    1        0.035   0.014   0.359  0.00  0.00    +0.241 C 
ATOM     18  O   LIG    1       -0.523   0.927   0.971  0.00  0.00    -0.270 OA
BRANCH  15  22
ATOM     19  C   LIG    1       -4.628  -2.183  -0.239  0.00  0.00    +0.000 A 
ATOM     20  C   LIG    1       -4.319  -0.843  -0.017  0.00  0.00    +0.002 A 
ATOM     21  C   LIG    1       -2.987  -0.436   0.017  0.00  0.00    +0.023 A 
ATOM     22  C   LIG    1       -1.961  -1.378  -0.165  0.00  0.00    +0.034 A 
ATOM     23  C   LIG    1       -2.286  -2.717  -0.401  0.00  0.00    +0.023 A 
ATOM     24  C   LIG    1       -3.618  -3.121  -0.434  0.00  0.00    +0.002 A 
ENDBRANCH  15  22
ENDBRANCH  13  17
ENDBRANCH   1  14
BRANCH   2  25
ATOM     25  C   LIG    1        4.541  -1.512   0.874  0.00  0.00    +0.354 C 
ATOM     26  O   LIG    1        3.666  -1.808   1.719  0.00  0.00    -0.243 OA
BRANCH  25  27
ATOM     27  OXT LIG    1        5.313  -2.336   0.327  0.00  0.00    -0.476 OA
ATOM     28  HXT LIG    1        5.946  -2.042  -0.298  0.00  0.00    +0.295 HD
ENDBRANCH  25  27
ENDBRANCH   2  25
TORSDOF 5
