REMARK  Name = DB06218
REMARK                            x       y       z     vdW  Elec       q    Type
REMARK                         _______ _______ _______ _____ _____    ______ ____
ROOT
ATOM      1  N   LIG    1       -0.109   1.816   0.101  0.00  0.00    -0.310 N 
ATOM      2  H   LIG    1        0.638   2.487   0.209  0.00  0.00    +0.149 HD
ATOM      3  C   LIG    1        0.200   0.524  -0.099  0.00  0.00    +0.236 C 
ATOM      4  O   LIG    1       -0.631  -0.377  -0.227  0.00  0.00    -0.274 OA
ENDROOT
BRANCH   1   5
ATOM      5  C   LIG    1       -1.473   2.329   0.229  0.00  0.00    +0.139 C 
BRANCH   5  11
ATOM      6  C   LIG    1       -3.503   1.341   1.376  0.00  0.00    +0.005 A 
ATOM      7  C   LIG    1       -4.184   0.927   2.518  0.00  0.00    +0.000 A 
ATOM      8  C   LIG    1       -3.579   1.055   3.767  0.00  0.00    +0.000 A 
ATOM      9  C   LIG    1       -2.299   1.592   3.884  0.00  0.00    +0.000 A 
ATOM     10  C   LIG    1       -1.618   2.006   2.743  0.00  0.00    +0.005 A 
ATOM     11  C   LIG    1       -2.217   1.880   1.485  0.00  0.00    -0.030 A 
ENDBRANCH   5  11
ENDBRANCH   1   5
BRANCH   3  12
ATOM     12  C   LIG    1        1.703   0.190  -0.123  0.00  0.00    +0.185 C 
BRANCH  12  13
ATOM     13  N   LIG    1        2.016  -0.857  -1.101  0.00  0.00    -0.302 N 
ATOM     14  H   LIG    1        2.265  -1.754  -0.711  0.00  0.00    +0.150 HD
ATOM     15  C   LIG    1        1.976  -0.710  -2.436  0.00  0.00    +0.211 C 
ATOM     16  C   LIG    1        2.316  -1.941  -3.269  0.00  0.00    +0.109 C 
ATOM     17  O   LIG    1        1.688   0.347  -2.998  0.00  0.00    -0.276 OA
ENDBRANCH  12  13
BRANCH  12  18
ATOM     18  C   LIG    1        2.182  -0.193   1.295  0.00  0.00    +0.191 C 
BRANCH  18  19
ATOM     19  O   LIG    1        3.581  -0.445   1.244  0.00  0.00    -0.381 OA
ATOM     20  C   LIG    1        4.137  -0.797   2.501  0.00  0.00    +0.194 C 
ENDBRANCH  18  19
ENDBRANCH  12  18
ENDBRANCH   3  12
TORSDOF 6
