REMARK  Name = DB06216
REMARK                            x       y       z     vdW  Elec       q    Type
REMARK                         _______ _______ _______ _____ _____    ______ ____
ROOT
ATOM      1  C   LIG    1       -1.588   1.460  -1.143  0.00  0.00    +0.045 C 
ATOM      2  C   LIG    1       -0.507   1.369  -0.061  0.00  0.00    +0.093 C 
ATOM      3  N   LIG    1       -0.070  -0.023  -0.049  0.00  0.00    -0.304 NA
ATOM      4  C   LIG    1       -0.307  -0.573  -1.383  0.00  0.00    +0.093 C 
ATOM      5  C   LIG    1        1.310  -0.172   0.394  0.00  0.00    +0.104 C 
ATOM      6  C   LIG    1       -2.053   2.867  -1.544  0.00  0.00    +0.001 A 
ATOM      7  C   LIG    1       -2.284   3.828  -0.548  0.00  0.00    +0.027 A 
ATOM      8  C   LIG    1       -2.757   5.101  -0.859  0.00  0.00    +0.041 A 
ATOM      9  C   LIG    1       -3.010   5.440  -2.183  0.00  0.00    +0.023 A 
ATOM     10  C   LIG    1       -2.783   4.505  -3.188  0.00  0.00    +0.048 A 
ATOM     11 CL   LIG    1       -3.032   6.253   0.398  0.00  0.00    -0.084 Cl
ATOM     12  C   LIG    1       -2.314   3.222  -2.891  0.00  0.00    +0.132 A 
ATOM     13  O   LIG    1       -2.035   2.413  -3.970  0.00  0.00    -0.455 OA
ATOM     14  C   LIG    1       -2.571   1.150  -4.051  0.00  0.00    +0.132 A 
ATOM     15  C   LIG    1       -3.568   0.881  -4.990  0.00  0.00    +0.046 A 
ATOM     16  C   LIG    1       -4.033  -0.419  -5.174  0.00  0.00    +0.004 A 
ATOM     17  C   LIG    1       -3.490  -1.460  -4.426  0.00  0.00    +0.001 A 
ATOM     18  C   LIG    1       -2.499  -1.197  -3.481  0.00  0.00    +0.007 A 
ATOM     19  C   LIG    1       -2.041   0.112  -3.267  0.00  0.00    -0.000 A 
ATOM     20  C   LIG    1       -1.023   0.518  -2.205  0.00  0.00    +0.045 C 
ENDROOT
TORSDOF 0
