REMARK  Name = DB06345
REMARK                            x       y       z     vdW  Elec       q    Type
REMARK                         _______ _______ _______ _____ _____    ______ ____
ROOT
ATOM      1  N   LIG    1       -1.895   0.580   0.245  0.00  0.00    -0.294 N 
ATOM      2  H   LIG    1       -2.499   1.310   0.593  0.00  0.00    +0.151 HD
ATOM      3  C   LIG    1       -0.609   0.940   0.048  0.00  0.00    +0.300 C 
ATOM      4  N   LIG    1        0.202  -0.002  -0.467  0.00  0.00    -0.296 N 
ATOM      5  H   LIG    1       -0.227  -0.811  -0.892  0.00  0.00    +0.151 HD
ATOM      6  O   LIG    1       -0.217   2.065   0.354  0.00  0.00    -0.253 OA
ENDROOT
BRANCH   1  13
ATOM      7  C   LIG    1       -4.825  -2.324  -1.105  0.00  0.00    +0.007 C 
ATOM      8  C   LIG    1       -3.367  -2.546  -1.584  0.00  0.00    -0.008 C 
ATOM      9  C   LIG    1       -2.714  -3.616  -0.668  0.00  0.00    +0.007 C 
ATOM     10  C   LIG    1       -2.730  -3.195   0.826  0.00  0.00    -0.008 C 
ATOM     11  C   LIG    1       -4.204  -2.956   1.246  0.00  0.00    +0.007 C 
ATOM     12  C   LIG    1       -1.966  -1.851   0.962  0.00  0.00    +0.029 C 
ATOM     13  C   LIG    1       -2.579  -0.718   0.075  0.00  0.00    +0.037 C 
ATOM     14  C   LIG    1       -4.068  -0.557   0.512  0.00  0.00    +0.029 C 
ATOM     15  C   LIG    1       -2.592  -1.214  -1.407  0.00  0.00    +0.029 C 
ATOM     16  C   LIG    1       -4.886  -1.869   0.376  0.00  0.00    -0.008 C 
ENDBRANCH   1  13
BRANCH   4  17
ATOM     17  C   LIG    1        1.660  -0.039  -0.364  0.00  0.00    +0.077 C 
ATOM     18  C   LIG    1        2.240  -0.114   1.077  0.00  0.00    +0.041 C 
ATOM     19  C   LIG    1        3.778  -0.283   1.115  0.00  0.00    +0.109 C 
ATOM     20  N   LIG    1        4.122  -1.399   0.221  0.00  0.00    -0.302 N 
ATOM     21  C   LIG    1        4.163  -2.688   0.652  0.00  0.00    +0.212 C 
ATOM     22  O   LIG    1        4.168  -3.653  -0.115  0.00  0.00    -0.276 OA
ATOM     23  C   LIG    1        4.402  -2.961   2.140  0.00  0.00    +0.109 C 
ATOM     24  C   LIG    1        3.881  -1.089  -1.196  0.00  0.00    +0.109 C 
ATOM     25  C   LIG    1        2.350  -0.971  -1.393  0.00  0.00    +0.041 C 
ENDBRANCH   4  17
TORSDOF 2
