REMARK  Name = DB06156
REMARK                            x       y       z     vdW  Elec       q    Type
REMARK                         _______ _______ _______ _____ _____    ______ ____
ROOT
ATOM      1  C   LIG    1        2.559  -1.689   1.079  0.00  0.00    +0.021 C 
ATOM      2  C   LIG    1        3.512  -2.920   1.144  0.00  0.00    -0.007 C 
ATOM      3  C   LIG    1        4.373  -3.094  -0.133  0.00  0.00    -0.068 C 
ATOM      4  C   LIG    1        5.200  -1.850  -0.511  0.00  0.00    -0.017 C 
ATOM      5  C   LIG    1        4.279  -0.988  -1.388  0.00  0.00    -0.016 C 
ATOM      6  C   LIG    1        2.946  -1.759  -1.480  0.00  0.00    -0.063 C 
ATOM      7  N   LIG    1        3.380  -3.227  -1.302  0.00  0.00    +0.382 N 
ATOM      8  H   LIG    1        2.585  -3.771  -0.998  0.00  0.00    -0.081 HD
ATOM      9  C   LIG    1        3.958  -3.890  -2.569  0.00  0.00    -0.095 C 
ATOM     10  C   LIG    1        1.931  -1.439  -0.340  0.00  0.00    +0.008 C 
ENDROOT
BRANCH   1  16
ATOM     11 CL   LIG    1        0.686   0.560   5.422  0.00  0.00    -0.082 Cl
ATOM     12  C   LIG    1        0.617  -0.697   4.236  0.00  0.00    +0.060 A 
ATOM     13  C   LIG    1       -0.374  -1.686   4.278  0.00  0.00    +0.059 A 
ATOM     14  C   LIG    1       -0.401  -2.680   3.299  0.00  0.00    +0.022 A 
ATOM     15  C   LIG    1        0.549  -2.688   2.279  0.00  0.00    +0.005 A 
ATOM     16  C   LIG    1        1.541  -1.702   2.225  0.00  0.00    -0.043 A 
ATOM     17 CL   LIG    1       -1.576  -1.703   5.521  0.00  0.00    -0.082 Cl
ATOM     18  C   LIG    1        1.569  -0.711   3.214  0.00  0.00    +0.025 A 
ENDBRANCH   1  16
BRANCH  10  19
ATOM     19  C   LIG    1        1.248  -0.055  -0.453  0.00  0.00    +0.162 C 
BRANCH  19  20
ATOM     20  O   LIG    1        0.101   0.000   0.384  0.00  0.00    -0.380 OA
BRANCH  20  21
ATOM     21  C   LIG    1       -0.547   1.262   0.407  0.00  0.00    +0.156 C 
ATOM     22  C   LIG    1       -1.704   1.191   1.409  0.00  0.00    +0.034 C 
ENDBRANCH  20  21
ENDBRANCH  19  20
ENDBRANCH  10  19
TORSDOF 4
