REMARK  Name = DB06600
REMARK                            x       y       z     vdW  Elec       q    Type
REMARK                         _______ _______ _______ _____ _____    ______ ____
ROOT
ATOM      1  C   LIG    1        1.501   0.335  -0.019  0.00  0.00    +0.074 A 
ATOM      2  C   LIG    1        2.081  -0.446   1.001  0.00  0.00    +0.165 A 
ATOM      3  C   LIG    1        3.487  -0.567   1.107  0.00  0.00    +0.097 A 
ATOM      4  N   LIG    1        4.128  -1.415   2.051  0.00  0.00    -0.340 N 
ATOM      5  C   LIG    1        5.483  -1.266   2.296  0.00  0.00    +0.105 A 
ATOM      6  C   LIG    1        6.376  -0.566   1.538  0.00  0.00    +0.122 A 
ATOM      7  C   LIG    1        5.832   0.148   0.342  0.00  0.00    +0.203 A 
ATOM      8  O   LIG    1        6.527   0.727  -0.497  0.00  0.00    -0.286 OA
ATOM      9  C   LIG    1        4.322   0.169   0.236  0.00  0.00    +0.050 A 
ATOM     10  C   LIG    1        3.728   0.945  -0.767  0.00  0.00    +0.016 A 
ATOM     11  C   LIG    1        2.348   1.017  -0.899  0.00  0.00    +0.027 A 
ENDROOT
BRANCH   1  15
ATOM     12  C   LIG    1       -2.602   3.015  -0.932  0.00  0.00    +0.009 C 
ATOM     13  C   LIG    1       -2.000   1.691  -0.435  0.00  0.00    +0.002 C 
ATOM     14  C   LIG    1       -0.537   1.500  -0.885  0.00  0.00    +0.108 C 
ATOM     15  N   LIG    1        0.115   0.390  -0.173  0.00  0.00    -0.328 N 
ATOM     16  C   LIG    1       -0.579  -0.867  -0.533  0.00  0.00    +0.089 C 
ATOM     17  C   LIG    1       -2.128  -0.868  -0.367  0.00  0.00    -0.057 C 
ATOM     18  C   LIG    1       -2.815   0.444  -0.821  0.00  0.00    -0.010 C 
BRANCH  17  19
ATOM     19  N   LIG    1       -2.410  -1.061   1.135  0.00  0.00    +0.381 N 
ATOM     20  H   LIG    1       -3.405  -1.082   1.306  0.00  0.00    -0.090 HD
ATOM     21  H   LIG    1       -2.005  -1.929   1.457  0.00  0.00    -0.090 HD
ATOM     22  H   LIG    1       -2.004  -0.300   1.659  0.00  0.00    -0.090 HD
ENDBRANCH  17  19
ENDBRANCH   1  15
BRANCH   4  23
ATOM     23  C   LIG    1        3.451  -2.543   2.704  0.00  0.00    +0.088 C 
ATOM     24  C   LIG    1        2.892  -3.634   1.804  0.00  0.00    +0.027 C 
ATOM     25  C   LIG    1        4.102  -3.919   2.642  0.00  0.00    +0.027 C 
ENDBRANCH   4  23
BRANCH   2  26
ATOM     26  O   LIG    1        1.254  -1.059   1.917  0.00  0.00    -0.491 OA
ATOM     27  C   LIG    1        0.912  -0.238   3.027  0.00  0.00    +0.277 C 
ENDBRANCH   2  26
BRANCH   6  28
ATOM     28  C   LIG    1        7.901  -0.567   2.014  0.00  0.00    +0.342 C 
ATOM     29  O   LIG    1        8.681   0.152   1.349  0.00  0.00    -0.245 OA
BRANCH  28  30
ATOM     30  O   LIG    1        8.204  -1.275   3.006  0.00  0.00    -0.477 OA
ATOM     31  H   LIG    1        7.545  -1.781   3.439  0.00  0.00    +0.295 HD
ENDBRANCH  28  30
ENDBRANCH   6  28
TORSDOF 6
