REMARK  Name = DB06207
REMARK                            x       y       z     vdW  Elec       q    Type
REMARK                         _______ _______ _______ _____ _____    ______ ____
ROOT
ATOM      1  C   LIG    1        1.690  -0.480   1.398  0.00  0.00    +0.053 C 
ENDROOT
BRANCH   1   2
ATOM      2  C   LIG    1        1.176  -1.920   1.400  0.00  0.00    -0.045 A 
ATOM      3  C   LIG    1        2.075  -2.987   1.414  0.00  0.00    +0.018 A 
ATOM      4  C   LIG    1        1.632  -4.319   1.395  0.00  0.00    +0.058 A 
ATOM      5  C   LIG    1        0.243  -4.576   1.381  0.00  0.00    +0.045 A 
ATOM      6  C   LIG    1       -0.657  -3.496   1.376  0.00  0.00    -0.024 A 
ATOM      7  C   LIG    1       -2.083  -3.965   1.302  0.00  0.00    +0.056 C 
ATOM      8  C   LIG    1       -1.904  -5.441   1.561  0.00  0.00    +0.110 C 
ATOM      9  N   LIG    1       -0.529  -5.740   1.182  0.00  0.00    -0.329 N 
ATOM     10  C   LIG    1       -0.193  -2.183   1.379  0.00  0.00    +0.009 A 
BRANCH   4  11
ATOM     11  C   LIG    1        2.668  -5.411   1.398  0.00  0.00    +0.243 C 
ATOM     12  N   LIG    1        3.580  -5.353   0.424  0.00  0.00    -0.325 N 
ATOM     13  H   LIG    1        4.313  -6.046   0.375  0.00  0.00    +0.145 HD
ATOM     14  H   LIG    1        3.532  -4.629  -0.277  0.00  0.00    +0.145 HD
ATOM     15  O   LIG    1        2.681  -6.284   2.264  0.00  0.00    -0.270 OA
ENDBRANCH   4  11
BRANCH   9  16
ATOM     16  C   LIG    1       -0.168  -7.116   1.551  0.00  0.00    +0.107 C 
BRANCH  16  17
ATOM     17  C   LIG    1       -1.186  -8.221   1.183  0.00  0.00    +0.047 C 
BRANCH  17  18
ATOM     18  C   LIG    1       -0.607  -9.635   1.352  0.00  0.00    +0.157 C 
BRANCH  18  19
ATOM     19  O   LIG    1       -1.573 -10.616   1.038  0.00  0.00    -0.395 OA
ATOM     20  H   LIG    1       -1.177 -11.483   1.152  0.00  0.00    +0.209 HD
ENDBRANCH  18  19
ENDBRANCH  17  18
ENDBRANCH  16  17
ENDBRANCH   9  16
ENDBRANCH   1   2
BRANCH   1  21
ATOM     21  C   LIG    1        1.657   0.232   0.015  0.00  0.00    +0.055 C 
ATOM     22  C   LIG    1        2.422  -0.540  -1.075  0.00  0.00    +0.024 C 
BRANCH  21  23
ATOM     23  N   LIG    1        0.289   0.457  -0.448  0.00  0.00    -0.310 NA
ATOM     24  H   LIG    1        0.288   0.564  -1.452  0.00  0.00    +0.122 HD
BRANCH  23  25
ATOM     25  C   LIG    1       -0.350   1.612   0.178  0.00  0.00    +0.122 C 
BRANCH  25  26
ATOM     26  C   LIG    1       -1.876   1.538   0.013  0.00  0.00    +0.244 C 
BRANCH  26  27
ATOM     27  O   LIG    1       -2.384   0.638   0.994  0.00  0.00    -0.487 OA
BRANCH  27  33
ATOM     28  C   LIG    1       -4.172  -0.469   2.096  0.00  0.00    +0.162 A 
ATOM     29  C   LIG    1       -5.535  -0.798   2.192  0.00  0.00    +0.049 A 
ATOM     30  C   LIG    1       -6.450  -0.313   1.260  0.00  0.00    +0.004 A 
ATOM     31  C   LIG    1       -6.018   0.508   0.224  0.00  0.00    +0.004 A 
ATOM     32  C   LIG    1       -4.670   0.842   0.115  0.00  0.00    +0.049 A 
ATOM     33  C   LIG    1       -3.735   0.353   1.044  0.00  0.00    +0.162 A 
BRANCH  28  34
ATOM     34  O   LIG    1       -3.212  -0.907   2.993  0.00  0.00    -0.479 OA
BRANCH  34  35
ATOM     35  C   LIG    1       -3.608  -1.646   4.147  0.00  0.00    +0.342 C 
BRANCH  35  37
ATOM     36  F   LIG    1       -2.739  -2.586   6.132  0.00  0.00    -0.167 F 
ATOM     37  C   LIG    1       -2.384  -1.922   5.033  0.00  0.00    +0.424 C 
ATOM     38  F   LIG    1       -1.473  -2.659   4.398  0.00  0.00    -0.167 F 
ATOM     39  F   LIG    1       -1.798  -0.789   5.420  0.00  0.00    -0.167 F 
ENDBRANCH  35  37
ENDBRANCH  34  35
ENDBRANCH  28  34
ENDBRANCH  27  33
ENDBRANCH  26  27
ENDBRANCH  25  26
ENDBRANCH  23  25
ENDBRANCH  21  23
ENDBRANCH   1  21
TORSDOF 15
