REMARK  Name = DB06151
REMARK                            x       y       z     vdW  Elec       q    Type
REMARK                         _______ _______ _______ _____ _____    ______ ____
ROOT
ATOM      1  CA  CYS A  1        1.451  -0.025   0.137  0.00  0.00    +0.191 C 
ENDROOT
BRANCH   1   2
ATOM      2  N   CYS A  1       -0.014  -0.017   0.179  0.00  0.00    -0.302 N 
ATOM      3  H   CYS A  1       -0.440  -0.829   0.600  0.00  0.00    +0.150 HD
ATOM      4  C   UNK A  0       -0.801   0.962  -0.296  0.00  0.00    +0.211 C 
ATOM      5  C   UNK A  0       -2.306   0.755  -0.157  0.00  0.00    +0.109 C 
ATOM      6  O   UNK A  0       -0.374   1.990  -0.820  0.00  0.00    -0.276 OA
ENDBRANCH   1   2
BRANCH   1   7
ATOM      7  C   CYS A  1        1.936  -0.551  -1.231  0.00  0.00    +0.326 C 
ATOM      8  OXT CYS A  1        2.220  -1.711  -1.454  0.00  0.00    -0.249 OA
BRANCH   7   9
ATOM      9  O   CYS A  1        2.009   0.476  -2.128  0.00  0.00    -0.479 OA
ATOM     10  H   CYS A  1        2.309   0.188  -2.993  0.00  0.00    +0.295 HD
ENDBRANCH   7   9
ENDBRANCH   1   7
BRANCH   1  11
ATOM     11  CB  CYS A  1        2.032  -0.866   1.295  0.00  0.00    +0.099 C 
BRANCH  11  12
ATOM     12  SG  CYS A  1        1.711  -0.053   2.885  0.00  0.00    -0.176 S 
ATOM     13  HG  CYS A  1        2.313  -0.977   3.640  0.00  0.00    +0.102 HD
ENDBRANCH  11  12
ENDBRANCH   1  11
TORSDOF 5
