REMARK  Name = DB06669
REMARK                            x       y       z     vdW  Elec       q    Type
REMARK                         _______ _______ _______ _____ _____    ______ ____
ROOT
ATOM      1  C   LIG    1        1.360  -0.120  -0.108  0.00  0.00    +0.025 C 
ENDROOT
BRANCH   1   2
ATOM      2  C   LIG    1       -0.201  -0.110  -0.039  0.00  0.00    +0.085 C 
BRANCH   2   3
ATOM      3  C   LIG    1       -0.703   1.359  -0.031  0.00  0.00    -0.024 A 
ATOM      4  C   LIG    1       -1.515   1.880  -1.050  0.00  0.00    +0.054 A 
ATOM      5  C   LIG    1       -1.952   3.217  -1.033  0.00  0.00    +0.162 A 
ATOM      6  C   LIG    1       -1.572   4.051   0.027  0.00  0.00    +0.162 A 
ATOM      7  C   LIG    1       -0.761   3.535   1.050  0.00  0.00    +0.050 A 
ATOM      8  C   LIG    1       -0.335   2.211   1.017  0.00  0.00    +0.009 A 
BRANCH   5   9
ATOM      9  O   LIG    1       -2.748   3.776  -2.018  0.00  0.00    -0.491 OA
ATOM     10  C   LIG    1       -3.160   2.981  -3.126  0.00  0.00    +0.277 C 
ENDBRANCH   5   9
BRANCH   6  11
ATOM     11  O   LIG    1       -2.028   5.358  -0.003  0.00  0.00    -0.491 OA
ATOM     12  C   LIG    1       -1.677   6.248   1.051  0.00  0.00    +0.277 C 
ENDBRANCH   6  11
ENDBRANCH   2   3
BRANCH   2  14
ATOM     13  C   LIG    1       -0.241  -2.336   1.347  0.00  0.00    +0.009 C 
ATOM     14  C   LIG    1       -0.722  -0.869   1.238  0.00  0.00    +0.007 C 
ATOM     15  C   LIG    1       -2.263  -0.834   1.375  0.00  0.00    +0.009 C 
ENDBRANCH   2  14
BRANCH   2  16
ATOM     16  C   LIG    1       -0.690  -0.836  -1.235  0.00  0.00    +0.074 C 
ATOM     17  N   LIG    1       -1.070  -1.406  -2.169  0.00  0.00    -0.196 NA
ENDBRANCH   2  16
ENDBRANCH   1   2
BRANCH   1  18
ATOM     18  C   LIG    1        1.975   0.639  -1.311  0.00  0.00    -0.017 C 
BRANCH  18  19
ATOM     19  C   LIG    1        3.510   0.573  -1.371  0.00  0.00    -0.083 C 
BRANCH  19  20
ATOM     20  N   LIG    1        4.115   1.373  -0.206  0.00  0.00    +0.379 N 
ATOM     21  H   LIG    1        3.772   0.990   0.664  0.00  0.00    -0.086 HD
ATOM     22  H   LIG    1        3.799   2.331  -0.272  0.00  0.00    -0.086 HD
BRANCH  20  23
ATOM     23  C   LIG    1        5.651   1.358  -0.180  0.00  0.00    -0.078 C 
BRANCH  23  24
ATOM     24  C   LIG    1        6.150   2.173   1.025  0.00  0.00    +0.016 C 
BRANCH  24  25
ATOM     25  C   LIG    1        7.668   2.190   1.113  0.00  0.00    -0.045 A 
ATOM     26  C   LIG    1        8.346   1.154   1.757  0.00  0.00    +0.053 A 
ATOM     27  C   LIG    1        9.750   1.152   1.843  0.00  0.00    +0.162 A 
ATOM     28  C   LIG    1       10.476   2.210   1.273  0.00  0.00    +0.161 A 
ATOM     29  C   LIG    1        9.785   3.248   0.624  0.00  0.00    +0.049 A 
ATOM     30  C   LIG    1        8.395   3.236   0.545  0.00  0.00    +0.007 A 
BRANCH  27  31
ATOM     31  O   LIG    1       10.478   0.153   2.465  0.00  0.00    -0.491 OA
ATOM     32  C   LIG    1        9.797  -0.948   3.057  0.00  0.00    +0.277 C 
ENDBRANCH  27  31
BRANCH  28  33
ATOM     33  O   LIG    1       11.854   2.162   1.387  0.00  0.00    -0.491 OA
ATOM     34  C   LIG    1       12.641   3.214   0.840  0.00  0.00    +0.277 C 
ENDBRANCH  28  33
ENDBRANCH  24  25
ENDBRANCH  23  24
ENDBRANCH  20  23
ENDBRANCH  19  20
ENDBRANCH  18  19
ENDBRANCH   1  18
TORSDOF 14
