REMARK  Name = DB06735
REMARK                            x       y       z     vdW  Elec       q    Type
REMARK                         _______ _______ _______ _____ _____    ______ ____
ROOT
ATOM      1 CL   LIG    1       -8.656   1.501  -0.936  0.00  0.00    -0.082 Cl
ATOM      2  C   LIG    1       -6.905   1.202  -0.971  0.00  0.00    +0.056 C 
ATOM      3  C   LIG    1       -6.071   1.759  -0.048  0.00  0.00    +0.008 C 
ENDROOT
BRANCH   2   4
ATOM      4  C   LIG    1       -6.498   0.347  -2.109  0.00  0.00    -0.006 A 
ATOM      5  C   LIG    1       -7.101  -0.901  -2.299  0.00  0.00    +0.009 A 
ATOM      6  C   LIG    1       -6.717  -1.712  -3.365  0.00  0.00    +0.001 A 
ATOM      7  C   LIG    1       -5.731  -1.273  -4.244  0.00  0.00    +0.000 A 
ATOM      8  C   LIG    1       -5.126  -0.031  -4.069  0.00  0.00    +0.001 A 
ATOM      9  C   LIG    1       -5.510   0.778  -3.003  0.00  0.00    +0.009 A 
ENDBRANCH   2   4
BRANCH   3  10
ATOM     10  C   LIG    1       -6.555   2.688   1.007  0.00  0.00    -0.016 A 
ATOM     11  C   LIG    1       -6.320   2.397   2.357  0.00  0.00    +0.008 A 
ATOM     12  C   LIG    1       -6.759   3.268   3.351  0.00  0.00    +0.001 A 
ATOM     13  C   LIG    1       -7.430   4.436   2.997  0.00  0.00    +0.000 A 
ATOM     14  C   LIG    1       -7.664   4.741   1.659  0.00  0.00    +0.001 A 
ATOM     15  C   LIG    1       -7.224   3.870   0.666  0.00  0.00    +0.008 A 
ENDBRANCH   3  10
BRANCH   3  16
ATOM     16  C   LIG    1       -4.609   1.477  -0.001  0.00  0.00    -0.016 A 
ATOM     17  C   LIG    1       -4.134   0.161  -0.001  0.00  0.00    +0.012 A 
ATOM     18  C   LIG    1       -2.767  -0.099   0.039  0.00  0.00    +0.046 A 
ATOM     19  C   LIG    1       -1.848   0.960   0.081  0.00  0.00    +0.120 A 
ATOM     20  C   LIG    1       -2.322   2.272   0.084  0.00  0.00    +0.046 A 
ATOM     21  C   LIG    1       -3.689   2.531   0.047  0.00  0.00    +0.012 A 
BRANCH  19  22
ATOM     22  O   LIG    1       -0.476   0.801   0.120  0.00  0.00    -0.494 OA
BRANCH  22  23
ATOM     23  C   LIG    1        0.077  -0.513   0.174  0.00  0.00    +0.210 C 
BRANCH  23  24
ATOM     24  C   LIG    1        1.616  -0.441   0.258  0.00  0.00    -0.037 C 
BRANCH  24  25
ATOM     25  N   LIG    1        2.106   0.595   1.307  0.00  0.00    +0.382 N 
ATOM     26  H   LIG    1        1.590   1.446   1.130  0.00  0.00    -0.082 HD
BRANCH  25  27
ATOM     27  C   LIG    1        3.609   0.933   1.133  0.00  0.00    -0.082 C 
ATOM     28  C   LIG    1        3.853   1.797  -0.117  0.00  0.00    -0.017 C 
ENDBRANCH  25  27
BRANCH  25  29
ATOM     29  C   LIG    1        1.766   0.169   2.759  0.00  0.00    -0.082 C 
ATOM     30  C   LIG    1        1.784   1.374   3.715  0.00  0.00    -0.017 C 
ENDBRANCH  25  29
ENDBRANCH  24  25
ENDBRANCH  23  24
ENDBRANCH  22  23
ENDBRANCH  19  22
ENDBRANCH   3  16
TORSDOF 9
