REMARK  Name = DB06112
REMARK                            x       y       z     vdW  Elec       q    Type
REMARK                         _______ _______ _______ _____ _____    ______ ____
ROOT
ATOM      1  C   LIG    1       -0.596  -0.669  -1.151  0.00  0.00    +0.019 C 
ENDROOT
BRANCH   1   2
ATOM      2  C   LIG    1       -2.116  -0.727  -1.216  0.00  0.00    -0.045 A 
ATOM      3  C   LIG    1       -2.841   0.402  -1.638  0.00  0.00    +0.053 A 
ATOM      4  C   LIG    1       -4.227   0.303  -1.683  0.00  0.00    +0.166 A 
ATOM      5  O   LIG    1       -5.138   1.252  -2.025  0.00  0.00    -0.453 OA
ATOM      6  C   LIG    1       -6.373   0.589  -2.073  0.00  0.00    +0.466 C 
ATOM      7  O   LIG    1       -6.221  -0.647  -1.428  0.00  0.00    -0.453 OA
ATOM      8  C   LIG    1       -4.881  -0.842  -1.323  0.00  0.00    +0.166 A 
ATOM      9  C   LIG    1       -4.196  -1.973  -0.893  0.00  0.00    +0.050 A 
ATOM     10  C   LIG    1       -2.796  -1.905  -0.848  0.00  0.00    +0.007 A 
ENDBRANCH   1   2
BRANCH   1  11
ATOM     11  C   LIG    1       -0.064   0.085   0.093  0.00  0.00    -0.070 C 
ATOM     12  C   LIG    1       -0.455  -0.568   1.432  0.00  0.00    -0.013 C 
BRANCH  11  13
ATOM     13  N   LIG    1        1.476   0.175   0.055  0.00  0.00    +0.382 N 
ATOM     14  H   LIG    1        1.761   0.613   0.919  0.00  0.00    -0.085 HD
ATOM     15  H   LIG    1        1.870  -0.755   0.051  0.00  0.00    -0.085 HD
BRANCH  13  17
ATOM     16  C   LIG    1        2.689   0.034  -2.141  0.00  0.00    -0.014 C 
ATOM     17  C   LIG    1        2.110   0.996  -1.088  0.00  0.00    -0.078 C 
ATOM     18  C   LIG    1        3.179   1.917  -0.477  0.00  0.00    -0.014 C 
ENDBRANCH  13  17
ENDBRANCH  11  13
ENDBRANCH   1  11
TORSDOF 4
