REMARK  Name = DB06629
REMARK                            x       y       z     vdW  Elec       q    Type
REMARK                         _______ _______ _______ _____ _____    ______ ____
ROOT
ATOM      1  C   LIG    1        3.481   1.497   0.353  0.00  0.00    +0.134 A 
ATOM      2  C   LIG    1        4.337   2.552  -0.039  0.00  0.00    +0.097 A 
ATOM      3  N   LIG    1        5.630   2.335  -0.408  0.00  0.00    -0.253 NA
ATOM      4  C   LIG    1        6.120   1.073  -0.367  0.00  0.00    +0.111 A 
ATOM      5  C   LIG    1        5.358  -0.016   0.042  0.00  0.00    +0.022 A 
ATOM      6  C   LIG    1        4.031   0.204   0.407  0.00  0.00    +0.032 A 
ENDROOT
BRANCH   2   7
ATOM      7  C   LIG    1        3.951   3.989  -0.064  0.00  0.00    +0.002 A 
ATOM      8  C   LIG    1        3.555   4.639   1.109  0.00  0.00    +0.011 A 
ATOM      9  C   LIG    1        3.191   5.982   1.084  0.00  0.00    +0.014 A 
ATOM     10  C   LIG    1        3.223   6.699  -0.115  0.00  0.00    +0.039 A 
ATOM     11  C   LIG    1        3.624   6.054  -1.289  0.00  0.00    +0.014 A 
ATOM     12  C   LIG    1        3.986   4.710  -1.262  0.00  0.00    +0.011 A 
BRANCH  10  13
ATOM     13  C   LIG    1        2.835   8.143  -0.144  0.00  0.00    +0.248 A 
ATOM     14  O   LIG    1        2.429   8.746   1.004  0.00  0.00    -0.423 OA
ATOM     15  C   LIG    1        2.169  10.014   0.598  0.00  0.00    +0.332 A 
ATOM     16  N   LIG    1        2.389  10.193  -0.680  0.00  0.00    -0.116 NA
ATOM     17  N   LIG    1        2.828   8.966  -1.168  0.00  0.00    -0.108 NA
ENDBRANCH  10  13
ENDBRANCH   2   7
BRANCH   1  18
ATOM     18  S   LIG    1        1.740   1.779   0.799  0.00  0.00    +0.076 S 
ATOM     19  O   LIG    1        1.803   2.115   2.226  0.00  0.00    -0.150 OA
ATOM     20  O   LIG    1        1.270   2.817  -0.127  0.00  0.00    -0.150 OA
BRANCH  18  21
ATOM     21  N   LIG    1        1.099   0.369   0.527  0.00  0.00    -0.195 N 
ATOM     22  H   LIG    1        1.695  -0.412   0.471  0.00  0.00    +0.175 HD
BRANCH  21  27
ATOM     23  C   LIG    1       -4.400  -0.658  -0.160  0.00  0.00    +0.067 C 
ATOM     24  C   LIG    1       -2.929  -0.343   0.030  0.00  0.00    +0.060 A 
ATOM     25  N   LIG    1       -2.063  -1.374  -0.124  0.00  0.00    -0.214 NA
ATOM     26  C   LIG    1       -0.729  -1.121   0.043  0.00  0.00    +0.257 A 
ATOM     27  C   LIG    1       -0.254   0.170   0.364  0.00  0.00    +0.201 A 
ATOM     28  N   LIG    1       -1.157   1.187   0.514  0.00  0.00    -0.233 NA
ATOM     29  C   LIG    1       -2.478   0.936   0.348  0.00  0.00    +0.136 A 
BRANCH  26  30
ATOM     30  O   LIG    1        0.168  -2.170  -0.114  0.00  0.00    -0.477 OA
ATOM     31  C   LIG    1       -0.311  -3.470  -0.454  0.00  0.00    +0.279 C 
ENDBRANCH  26  30
ENDBRANCH  21  27
ENDBRANCH  18  21
ENDBRANCH   1  18
TORSDOF 6
