REMARK  Name = DB06283
REMARK                            x       y       z     vdW  Elec       q    Type
REMARK                         _______ _______ _______ _____ _____    ______ ____
ROOT
ATOM      1  N   THR A 17        2.515  -2.716  11.973  0.00  0.00    -0.300 N 
ATOM      2  H   THR A 17        2.927  -3.611  11.752  0.00  0.00    +0.150 HD
ATOM      3  C   CYS A 16        2.987  -1.642  11.308  0.00  0.00    +0.235 C 
ATOM      4  O   CYS A 16        2.570  -0.492  11.443  0.00  0.00    -0.274 OA
ATOM      5  CA  CYS A 16        4.154  -1.926  10.343  0.00  0.00    +0.169 C 
ATOM      6  CB  CYS A 16        4.598  -0.718   9.486  0.00  0.00    +0.112 C 
ATOM      7  SG  CYS A 16        5.673   0.432  10.395  0.00  0.00    -0.091 S 
ATOM      8  SG  CYS A  1        5.578   2.186   9.368  0.00  0.00    -0.091 S 
ATOM      9  CB  CYS A  1        6.858   2.089   8.075  0.00  0.00    +0.109 C 
ATOM     10  CA  CYS A  1        8.342   2.337   8.442  0.00  0.00    +0.148 C 
ATOM     11  C   CYS A  1        8.576   3.708   9.143  0.00  0.00    +0.231 C 
ATOM     12  O   CYS A  1        8.725   4.682   8.407  0.00  0.00    -0.274 OA
ATOM     13  N   LYS A  2        8.590   3.879  10.485  0.00  0.00    -0.303 N 
ATOM     14  H   LYS A  2        8.753   4.821  10.808  0.00  0.00    +0.149 HD
ATOM     15  CA  LYS A  2        8.380   2.929  11.586  0.00  0.00    +0.159 C 
ATOM     16  C   LYS A  2        7.278   3.380  12.564  0.00  0.00    +0.234 C 
ATOM     17  O   LYS A  2        7.155   2.786  13.635  0.00  0.00    -0.274 OA
ATOM     18  N   GLY A  3        6.476   4.384  12.170  0.00  0.00    -0.305 N 
ATOM     19  H   GLY A  3        6.642   4.811  11.270  0.00  0.00    +0.149 HD
ATOM     20  CA  GLY A  3        5.297   4.847  12.896  0.00  0.00    +0.200 C 
ATOM     21  C   GLY A  3        4.086   4.041  12.395  0.00  0.00    +0.231 C 
ATOM     22  O   GLY A  3        4.022   2.842  12.660  0.00  0.00    -0.274 OA
ATOM     23  N   LYS A  4        3.089   4.623  11.700  0.00  0.00    -0.303 N 
ATOM     24  H   LYS A  4        2.334   4.014  11.419  0.00  0.00    +0.149 HD
ATOM     25  CA  LYS A  4        2.898   6.000  11.232  0.00  0.00    +0.159 C 
ATOM     26  C   LYS A  4        4.030   6.482  10.304  0.00  0.00    +0.234 C 
ATOM     27  O   LYS A  4        4.796   7.375  10.667  0.00  0.00    -0.274 OA
ATOM     28  N   GLY A  5        4.107   5.859   9.117  0.00  0.00    -0.305 N 
ATOM     29  H   GLY A  5        3.438   5.131   8.908  0.00  0.00    +0.149 HD
ATOM     30  CA  GLY A  5        5.058   6.190   8.057  0.00  0.00    +0.200 C 
ATOM     31  C   GLY A  5        4.494   7.337   7.189  0.00  0.00    +0.231 C 
ATOM     32  O   GLY A  5        3.947   8.297   7.731  0.00  0.00    -0.274 OA
ATOM     33  N   ALA A  6        4.617   7.321   5.846  0.00  0.00    -0.303 N 
ATOM     34  H   ALA A  6        4.234   8.120   5.361  0.00  0.00    +0.149 HD
ATOM     35  CA  ALA A  6        5.195   6.321   4.933  0.00  0.00    +0.156 C 
ATOM     36  CB  ALA A  6        6.713   6.162   5.168  0.00  0.00    +0.038 C 
ATOM     37  C   ALA A  6        4.463   4.962   4.864  0.00  0.00    +0.234 C 
ATOM     38  O   ALA A  6        4.920   4.083   4.135  0.00  0.00    -0.274 OA
ATOM     39  N   LYS A  7        3.356   4.814   5.611  0.00  0.00    -0.302 N 
ATOM     40  H   LYS A  7        3.030   5.602   6.153  0.00  0.00    +0.150 HD
ATOM     41  CA  LYS A  7        2.596   3.581   5.807  0.00  0.00    +0.159 C 
ATOM     42  C   LYS A  7        1.280   3.982   6.500  0.00  0.00    +0.234 C 
ATOM     43  O   LYS A  7        1.336   4.795   7.422  0.00  0.00    -0.274 OA
ATOM     44  N   CYS A  8        0.111   3.426   6.137  0.00  0.00    -0.302 N 
ATOM     45  H   CYS A  8       -0.713   3.734   6.634  0.00  0.00    +0.150 HD
ATOM     46  CA  CYS A  8       -0.158   2.412   5.116  0.00  0.00    +0.169 C 
ATOM     47  CB  CYS A  8       -1.590   1.911   5.351  0.00  0.00    +0.112 C 
ATOM     48  SG  CYS A  8       -2.007   0.355   4.532  0.00  0.00    -0.091 S 
ATOM     49  SG  CYS A 20       -3.956   0.107   5.019  0.00  0.00    -0.091 S 
ATOM     50  CB  CYS A 20       -3.894  -0.648   6.662  0.00  0.00    +0.112 C 
ATOM     51  CA  CYS A 20       -5.193  -0.451   7.466  0.00  0.00    +0.169 C 
ATOM     52  C   CYS A 20       -6.362  -1.383   7.096  0.00  0.00    +0.235 C 
ATOM     53  O   CYS A 20       -6.326  -2.033   6.052  0.00  0.00    -0.274 OA
ATOM     54  N   ARG A 21       -7.394  -1.379   7.955  0.00  0.00    -0.302 N 
ATOM     55  H   ARG A 21       -7.324  -0.798   8.777  0.00  0.00    +0.150 HD
ATOM     56  CA  ARG A 21       -8.680  -2.048   7.789  0.00  0.00    +0.159 C 
ATOM     57  C   ARG A 21       -9.915  -1.200   8.184  0.00  0.00    +0.234 C 
ATOM     58  O   ARG A 21      -10.933  -1.394   7.524  0.00  0.00    -0.274 OA
ATOM     59  N   UNK A 22       -9.938  -0.277   9.176  0.00  0.00    -0.301 N 
ATOM     60  H   UNK A 22      -10.825   0.197   9.269  0.00  0.00    +0.150 HD
ATOM     61  C   UNK A 22       -8.981   0.193  10.194  0.00  0.00    +0.184 C 
ATOM     62  C   UNK A 22       -7.946   1.210   9.654  0.00  0.00    +0.236 C 
ATOM     63  N   UNK A 22       -7.009   1.635  10.518  0.00  0.00    -0.305 N 
ATOM     64  H   UNK A 22       -7.053   1.318  11.477  0.00  0.00    +0.149 HD
ATOM     65  C   UNK A 22       -5.838   2.430  10.148  0.00  0.00    +0.200 C 
ATOM     66  C   UNK A 22       -5.989   3.914  10.514  0.00  0.00    +0.231 C 
ATOM     67  O   UNK A 22       -7.001   4.319  11.084  0.00  0.00    -0.274 OA
ATOM     68  N   UNK A 22       -4.987   4.757  10.196  0.00  0.00    -0.303 N 
ATOM     69  H   UNK A 22       -5.090   5.729  10.447  0.00  0.00    +0.149 HD
ATOM     70  C   UNK A 22       -3.716   4.426   9.534  0.00  0.00    +0.159 C 
ATOM     71  C   UNK A 22       -2.764   3.654  10.471  0.00  0.00    +0.234 C 
ATOM     72  O   UNK A 22       -2.688   3.978  11.657  0.00  0.00    -0.274 OA
ATOM     73  N   UNK A 22       -2.057   2.652   9.916  0.00  0.00    -0.302 N 
ATOM     74  H   UNK A 22       -2.156   2.455   8.931  0.00  0.00    +0.150 HD
ATOM     75  C   UNK A 22       -1.096   1.815  10.648  0.00  0.00    +0.169 C 
ATOM     76  C   UNK A 22       -0.834   0.528   9.840  0.00  0.00    +0.112 C 
ATOM     77  S   UNK A 22        0.254   0.624   8.388  0.00  0.00    -0.091 S 
ATOM     78  S   UNK A 15       -0.082  -1.159   7.475  0.00  0.00    -0.091 S 
ATOM     79  C   UNK A 15        0.989  -2.338   8.345  0.00  0.00    +0.112 C 
ATOM     80  C   UNK A 15        2.389  -2.541   7.736  0.00  0.00    +0.169 C 
ATOM     81  C   UNK A 15        3.207  -3.558   8.574  0.00  0.00    +0.235 C 
ATOM     82  O   UNK A 15        3.129  -4.749   8.280  0.00  0.00    -0.274 OA
ATOM     83  N   UNK A 15        2.158  -2.991   6.356  0.00  0.00    -0.302 N 
ATOM     84  H   UNK A 15        1.190  -2.952   6.071  0.00  0.00    +0.150 HD
ATOM     85  C   ASP A 14        3.035  -3.500   5.473  0.00  0.00    +0.235 C 
ATOM     86  O   ASP A 14        4.249  -3.578   5.661  0.00  0.00    -0.274 OA
ATOM     87  CA  ASP A 14        2.458  -3.996   4.133  0.00  0.00    +0.169 C 
ATOM     88  N   ASP A 14        2.163  -5.439   4.129  0.00  0.00    -0.302 N 
ATOM     89  H   ASP A 14        2.816  -5.940   3.544  0.00  0.00    +0.150 HD
ATOM     90  C   TYR A 13        1.241  -6.230   4.725  0.00  0.00    +0.234 C 
ATOM     91  O   TYR A 13        1.245  -7.438   4.498  0.00  0.00    -0.274 OA
ATOM     92  CA  TYR A 13        0.130  -5.675   5.645  0.00  0.00    +0.163 C 
ATOM     93  N   TYR A 13       -0.916  -5.103   4.805  0.00  0.00    -0.302 N 
ATOM     94  H   TYR A 13       -0.907  -5.408   3.843  0.00  0.00    +0.150 HD
ATOM     95  C   MET A 12       -1.796  -4.164   5.196  0.00  0.00    +0.234 C 
ATOM     96  O   MET A 12       -1.885  -3.746   6.350  0.00  0.00    -0.274 OA
ATOM     97  CA  MET A 12       -2.697  -3.535   4.117  0.00  0.00    +0.160 C 
ATOM     98  N   MET A 12       -2.224  -3.848   2.762  0.00  0.00    -0.302 N 
ATOM     99  H   MET A 12       -1.654  -4.679   2.713  0.00  0.00    +0.150 HD
ATOM    100  C   LEU A 11       -2.380  -3.169   1.611  0.00  0.00    +0.234 C 
ATOM    101  O   LEU A 11       -1.836  -3.557   0.578  0.00  0.00    -0.274 OA
ATOM    102  CA  LEU A 11       -3.294  -1.923   1.536  0.00  0.00    +0.159 C 
ATOM    103  N   LEU A 11       -2.750  -0.893   0.643  0.00  0.00    -0.302 N 
ATOM    104  H   LEU A 11       -3.313  -0.717  -0.177  0.00  0.00    +0.150 HD
ATOM    105  C   ARG A 10       -1.584  -0.229   0.754  0.00  0.00    +0.234 C 
ATOM    106  O   ARG A 10       -0.792  -0.363   1.680  0.00  0.00    -0.274 OA
ATOM    107  CA  ARG A 10       -1.235   0.669  -0.451  0.00  0.00    +0.159 C 
ATOM    108  N   ARG A 10       -1.062   2.110  -0.217  0.00  0.00    -0.302 N 
ATOM    109  H   ARG A 10       -1.745   2.631  -0.748  0.00  0.00    +0.150 HD
ATOM    110  C   SER A  9       -0.210   2.908   0.467  0.00  0.00    +0.236 C 
ATOM    111  O   SER A  9       -0.329   4.127   0.350  0.00  0.00    -0.274 OA
ATOM    112  CA  SER A  9        0.917   2.428   1.422  0.00  0.00    +0.184 C 
ATOM    113  N   SER A  9        0.471   2.075   2.771  0.00  0.00    -0.301 N 
ATOM    114  H   SER A  9        0.610   1.111   3.039  0.00  0.00    +0.150 HD
ATOM    115  O   UNK A 22       -8.000   1.574   8.479  0.00  0.00    -0.274 OA
ATOM    116  N   CYS A 20       -4.958  -0.306   8.905  0.00  0.00    -0.302 N 
ATOM    117  H   CYS A 20       -5.279   0.589   9.245  0.00  0.00    +0.150 HD
ATOM    118  C   SER A 19       -4.459  -1.119   9.852  0.00  0.00    +0.236 C 
ATOM    119  O   SER A 19       -4.438  -0.746  11.026  0.00  0.00    -0.274 OA
ATOM    120  CA  SER A 19       -3.900  -2.518   9.516  0.00  0.00    +0.184 C 
ATOM    121  N   SER A 19       -2.774  -2.758  10.414  0.00  0.00    -0.301 N 
ATOM    122  H   SER A 19       -2.745  -2.131  11.204  0.00  0.00    +0.150 HD
ATOM    123  C   GLY A 18       -1.814  -3.690  10.293  0.00  0.00    +0.231 C 
ATOM    124  O   GLY A 18       -1.799  -4.512   9.380  0.00  0.00    -0.274 OA
ATOM    125  CA  GLY A 18       -0.682  -3.696  11.337  0.00  0.00    +0.200 C 
ATOM    126  N   GLY A 18       -0.699  -2.444  12.097  0.00  0.00    -0.305 N 
ATOM    127  H   GLY A 18       -1.532  -1.886  11.992  0.00  0.00    +0.149 HD
ATOM    128  C   THR A 17        0.270  -1.934  12.873  0.00  0.00    +0.236 C 
ATOM    129  O   THR A 17        0.128  -0.830  13.397  0.00  0.00    -0.274 OA
ATOM    130  C   CYS A  8        0.017   2.953   3.684  0.00  0.00    +0.235 C 
ATOM    131  O   CYS A  8       -0.221   4.139   3.454  0.00  0.00    -0.274 OA
ATOM    132  N   CYS A 16        3.997  -3.181   9.598  0.00  0.00    -0.302 N 
ATOM    133  H   CYS A 16        4.530  -3.931  10.015  0.00  0.00    +0.150 HD
ATOM    134  CA  THR A 17        1.568  -2.759  13.096  0.00  0.00    +0.187 C 
ENDROOT
BRANCH  75 135
ATOM    135  C   UNK A 22        0.215   2.556  10.995  0.00  0.00    +0.232 C 
ATOM    136  N   UNK A 22        0.864   2.136  12.085  0.00  0.00    -0.328 N 
ATOM    137  H   UNK A 22        0.497   1.376  12.640  0.00  0.00    +0.145 HD
ATOM    138  H   UNK A 22        1.740   2.561  12.354  0.00  0.00    +0.145 HD
ATOM    139  O   UNK A 22        0.636   3.459  10.273  0.00  0.00    -0.274 OA
ENDBRANCH  75 135
BRANCH  10 140
ATOM    140  N   CYS A  1        9.024   1.227   9.130  0.00  0.00    -0.319 NA
ATOM    141  H1  CYS A  1       10.027   1.324   9.048  0.00  0.00    +0.119 HD
ATOM    142  H2  CYS A  1        8.795   0.346   8.693  0.00  0.00    +0.119 HD
ENDBRANCH  10 140
BRANCH 134 143
ATOM    143  CB  THR A 17        2.256  -2.373  14.445  0.00  0.00    +0.141 C 
ATOM    144  CG2 THR A 17        3.477  -3.249  14.767  0.00  0.00    +0.040 C 
BRANCH 143 145
ATOM    145  OG1 THR A 17        2.660  -1.017  14.530  0.00  0.00    -0.390 OA
ATOM    146  HG1 THR A 17        1.885  -0.461  14.413  0.00  0.00    +0.210 HD
ENDBRANCH 143 145
ENDBRANCH 134 143
BRANCH  41 147
ATOM    147  CB  LYS A  7        3.405   2.599   6.696  0.00  0.00    +0.032 C 
BRANCH 147 148
ATOM    148  CG  LYS A  7        3.525   1.161   6.167  0.00  0.00    +0.003 C 
BRANCH 148 149
ATOM    149  CD  LYS A  7        4.395   1.046   4.906  0.00  0.00    +0.015 C 
BRANCH 149 150
ATOM    150  CE  LYS A  7        4.842  -0.391   4.628  0.00  0.00    +0.077 C 
BRANCH 150 151
ATOM    151  NZ  LYS A  7        5.519  -0.466   3.349  0.00  0.00    -0.330 NA
ATOM    152  HZ1 LYS A  7        5.820  -1.416   3.180  0.00  0.00    +0.118 HD
ATOM    153  HZ2 LYS A  7        6.357   0.098   3.375  0.00  0.00    +0.118 HD
ENDBRANCH 150 151
ENDBRANCH 149 150
ENDBRANCH 148 149
ENDBRANCH 147 148
ENDBRANCH  41 147
BRANCH  56 154
ATOM    154  CB  ARG A 21       -8.684  -3.446   8.453  0.00  0.00    +0.035 C 
BRANCH 154 155
ATOM    155  CG  ARG A 21       -8.050  -4.550   7.588  0.00  0.00    +0.039 C 
BRANCH 155 156
ATOM    156  CD  ARG A 21       -7.885  -5.871   8.349  0.00  0.00    +0.196 C 
BRANCH 156 157
ATOM    157  NE  ARG A 21       -7.199  -6.859   7.537  0.00  0.00    -0.276 N 
ATOM    158  HE  ARG A 21       -6.963  -6.570   6.599  0.00  0.00    +0.258 HD
BRANCH 157 159
ATOM    159  CZ  ARG A 21       -6.762  -8.112   7.942  0.00  0.00    +0.376 C 
ATOM    160  NH1 ARG A 21       -6.951  -8.607   9.087  0.00  0.00    -0.130 NA
ATOM    161  HH1 ARG A 21       -6.552  -9.528   9.198  0.00  0.00    +0.306 HD
BRANCH 159 162
ATOM    162  NH2 ARG A 21       -6.082  -8.761   6.928  0.00  0.00    -0.289 N 
ATOM    163 HH21 ARG A 21       -6.382  -8.503   5.999  0.00  0.00    +0.255 HD
ATOM    164 HH22 ARG A 21       -6.081  -9.767   7.009  0.00  0.00    +0.255 HD
ENDBRANCH 159 162
ENDBRANCH 157 159
ENDBRANCH 156 157
ENDBRANCH 155 156
ENDBRANCH 154 155
ENDBRANCH  56 154
BRANCH  61 165
ATOM    165  C   UNK A 22       -8.407  -0.983  11.030  0.00  0.00    +0.187 C 
BRANCH 165 166
ATOM    166  O   UNK A 22       -7.868  -0.559  12.266  0.00  0.00    -0.393 OA
ATOM    167  H   UNK A 22       -7.579  -1.332  12.756  0.00  0.00    +0.209 HD
ENDBRANCH 165 166
ENDBRANCH  61 165
BRANCH  87 168
ATOM    168  CB  ASP A 14        1.310  -3.139   3.536  0.00  0.00    +0.152 C 
BRANCH 168 169
ATOM    169  CG  ASP A 14        1.724  -1.702   3.221  0.00  0.00    +0.307 C 
ATOM    170  OD1 ASP A 14        1.385  -0.730   3.893  0.00  0.00    -0.251 OA
BRANCH 169 171
ATOM    171  OD2 ASP A 14        2.524  -1.629   2.119  0.00  0.00    -0.481 OA
ATOM    172  HD2 ASP A 14        2.812  -0.734   1.925  0.00  0.00    +0.295 HD
ENDBRANCH 169 171
ENDBRANCH 168 169
ENDBRANCH  87 168
BRANCH  15 173
ATOM    173  CB  LYS A  2        9.733   2.643  12.281  0.00  0.00    +0.032 C 
BRANCH 173 174
ATOM    174  CG  LYS A  2       10.382   3.858  12.973  0.00  0.00    +0.003 C 
BRANCH 174 175
ATOM    175  CD  LYS A  2       11.717   3.506  13.645  0.00  0.00    +0.015 C 
BRANCH 175 176
ATOM    176  CE  LYS A  2       12.357   4.718  14.334  0.00  0.00    +0.077 C 
BRANCH 176 177
ATOM    177  NZ  LYS A  2       13.607   4.334  14.960  0.00  0.00    -0.330 NA
ATOM    178  HZ1 LYS A  2       14.233   3.951  14.266  0.00  0.00    +0.118 HD
ATOM    179  HZ2 LYS A  2       13.439   3.600  15.634  0.00  0.00    +0.118 HD
ENDBRANCH 176 177
ENDBRANCH 175 176
ENDBRANCH 174 175
ENDBRANCH 173 174
ENDBRANCH  15 173
BRANCH  92 180
ATOM    180  CB  TYR A 13       -0.509  -6.734   6.586  0.00  0.00    +0.067 C 
BRANCH 180 181
ATOM    181  CG  TYR A 13        0.417  -7.379   7.605  0.00  0.00    -0.045 A 
ATOM    182  CD2 TYR A 13        0.792  -6.668   8.764  0.00  0.00    +0.007 A 
ATOM    183  CE2 TYR A 13        1.633  -7.264   9.723  0.00  0.00    +0.045 A 
ATOM    184  CZ  TYR A 13        2.102  -8.577   9.530  0.00  0.00    +0.117 A 
ATOM    185  CE1 TYR A 13        1.726  -9.294   8.377  0.00  0.00    +0.045 A 
ATOM    186  CD1 TYR A 13        0.883  -8.698   7.419  0.00  0.00    +0.007 A 
BRANCH 184 187
ATOM    187  OH  TYR A 13        2.919  -9.153  10.459  0.00  0.00    -0.507 OA
ATOM    188  HH  TYR A 13        3.175 -10.049  10.226  0.00  0.00    +0.292 HD
ENDBRANCH 184 187
ENDBRANCH 180 181
ENDBRANCH  92 180
BRANCH  70 189
ATOM    189  C   UNK A 22       -3.074   5.743   9.046  0.00  0.00    +0.032 C 
BRANCH 189 190
ATOM    190  C   UNK A 22       -1.881   5.546   8.092  0.00  0.00    +0.003 C 
BRANCH 190 191
ATOM    191  C   UNK A 22       -1.218   6.862   7.653  0.00  0.00    +0.015 C 
BRANCH 191 192
ATOM    192  C   UNK A 22       -0.335   7.481   8.748  0.00  0.00    +0.077 C 
BRANCH 192 193
ATOM    193  N   UNK A 22        0.354   8.647   8.233  0.00  0.00    -0.330 NA
ATOM    194  H   UNK A 22        0.964   9.025   8.945  0.00  0.00    +0.118 HD
ATOM    195  H   UNK A 22       -0.315   9.371   8.015  0.00  0.00    +0.118 HD
ENDBRANCH 192 193
ENDBRANCH 191 192
ENDBRANCH 190 191
ENDBRANCH 189 190
ENDBRANCH  70 189
BRANCH  97 196
ATOM    196  CB  MET A 12       -4.178  -3.930   4.323  0.00  0.00    +0.042 C 
BRANCH 196 197
ATOM    197  CG  MET A 12       -4.536  -5.376   3.944  0.00  0.00    +0.071 C 
BRANCH 197 198
ATOM    198  SD  MET A 12       -6.275  -5.784   4.244  0.00  0.00    -0.164 S 
ATOM    199  CE  MET A 12       -6.300  -7.470   3.582  0.00  0.00    +0.084 C 
ENDBRANCH 197 198
ENDBRANCH 196 197
ENDBRANCH  97 196
BRANCH 102 200
ATOM    200  CB  LEU A 11       -4.675  -2.349   0.973  0.00  0.00    +0.034 C 
BRANCH 200 201
ATOM    201  CG  LEU A 11       -5.748  -1.236   0.900  0.00  0.00    -0.015 C 
ATOM    202  CD2 LEU A 11       -7.009  -1.739   0.165  0.00  0.00    +0.007 C 
ATOM    203  CD1 LEU A 11       -6.086  -0.636   2.279  0.00  0.00    +0.007 C 
ENDBRANCH 200 201
ENDBRANCH 102 200
BRANCH 107 204
ATOM    204  CB  ARG A 10       -0.215   0.100  -1.476  0.00  0.00    +0.035 C 
BRANCH 204 205
ATOM    205  CG  ARG A 10        0.009  -1.423  -1.442  0.00  0.00    +0.039 C 
BRANCH 205 206
ATOM    206  CD  ARG A 10        0.933  -1.917  -2.562  0.00  0.00    +0.196 C 
BRANCH 206 207
ATOM    207  NE  ARG A 10        1.186  -3.341  -2.436  0.00  0.00    -0.276 N 
ATOM    208  HE  ARG A 10        2.082  -3.591  -2.044  0.00  0.00    +0.258 HD
BRANCH 207 209
ATOM    209  CZ  ARG A 10        0.299  -4.377  -2.696  0.00  0.00    +0.376 C 
ATOM    210  NH1 ARG A 10       -0.866  -4.235  -3.158  0.00  0.00    -0.130 NA
ATOM    211  HH1 ARG A 10       -1.362  -5.108  -3.272  0.00  0.00    +0.306 HD
BRANCH 209 212
ATOM    212  NH2 ARG A 10        0.855  -5.604  -2.382  0.00  0.00    -0.289 N 
ATOM    213 HH21 ARG A 10        1.858  -5.646  -2.494  0.00  0.00    +0.255 HD
ATOM    214 HH22 ARG A 10        0.436  -6.383  -2.869  0.00  0.00    +0.255 HD
ENDBRANCH 209 212
ENDBRANCH 207 209
ENDBRANCH 206 207
ENDBRANCH 205 206
ENDBRANCH 204 205
ENDBRANCH 107 204
BRANCH  25 215
ATOM    215  CB  LYS A  4        2.550   6.945  12.410  0.00  0.00    +0.032 C 
BRANCH 215 216
ATOM    216  CG  LYS A  4        2.006   8.320  11.972  0.00  0.00    +0.003 C 
BRANCH 216 217
ATOM    217  CD  LYS A  4        1.548   9.200  13.146  0.00  0.00    +0.015 C 
BRANCH 217 218
ATOM    218  CE  LYS A  4        2.708   9.706  14.016  0.00  0.00    +0.077 C 
BRANCH 218 219
ATOM    219  NZ  LYS A  4        2.200  10.557  15.073  0.00  0.00    -0.330 NA
ATOM    220  HZ1 LYS A  4        2.967  10.884  15.643  0.00  0.00    +0.118 HD
ATOM    221  HZ2 LYS A  4        1.603  10.015  15.682  0.00  0.00    +0.118 HD
ENDBRANCH 218 219
ENDBRANCH 217 218
ENDBRANCH 216 217
ENDBRANCH 215 216
ENDBRANCH  25 215
BRANCH 112 222
ATOM    222  CB  SER A  9        1.929   1.391   0.899  0.00  0.00    +0.187 C 
BRANCH 222 223
ATOM    223  OG  SER A  9        2.587   1.849  -0.264  0.00  0.00    -0.393 OA
ATOM    224  H   SER A  9        1.949   1.894  -0.980  0.00  0.00    +0.209 HD
ENDBRANCH 222 223
ENDBRANCH 112 222
BRANCH 120 225
ATOM    225  CB  SER A 19       -4.943  -3.653   9.657  0.00  0.00    +0.187 C 
BRANCH 225 226
ATOM    226  OG  SER A 19       -5.626  -3.629  10.896  0.00  0.00    -0.393 OA
ATOM    227  H   SER A 19       -6.178  -2.845  10.926  0.00  0.00    +0.209 HD
ENDBRANCH 225 226
ENDBRANCH 120 225
TORSDOF 53
