REMARK  Name = DB06148
REMARK                            x       y       z     vdW  Elec       q    Type
REMARK                         _______ _______ _______ _____ _____    ______ ____
ROOT
ATOM      1  N   LIG    1        0.018   1.564  -2.545  0.00  0.00    -0.320 N 
ATOM      2  C   LIG    1        0.125   2.241  -3.762  0.00  0.00    +0.034 A 
ATOM      3  C   LIG    1        1.073   1.900  -4.743  0.00  0.00    +0.023 A 
ATOM      4  C   LIG    1        1.151   2.593  -5.948  0.00  0.00    +0.002 A 
ATOM      5  C   LIG    1        0.285   3.652  -6.195  0.00  0.00    +0.000 A 
ATOM      6  C   LIG    1       -0.649   4.019  -5.231  0.00  0.00    +0.006 A 
ATOM      7  C   LIG    1       -0.731   3.334  -4.013  0.00  0.00    -0.022 A 
ATOM      8  C   LIG    1       -1.744   3.743  -2.951  0.00  0.00    +0.072 C 
ATOM      9  C   LIG    1       -1.024   4.417  -1.795  0.00  0.00    -0.038 A 
ATOM     10  C   LIG    1       -1.283   5.762  -1.502  0.00  0.00    +0.004 A 
ATOM     11  C   LIG    1       -0.611   6.417  -0.475  0.00  0.00    +0.000 A 
ATOM     12  C   LIG    1        0.335   5.731   0.277  0.00  0.00    +0.000 A 
ATOM     13  C   LIG    1        0.597   4.392   0.001  0.00  0.00    +0.006 A 
ATOM     14  C   LIG    1       -0.070   3.707  -1.026  0.00  0.00    -0.022 A 
ATOM     15  C   LIG    1        0.519   0.178  -2.475  0.00  0.00    +0.121 C 
ATOM     16  C   LIG    1       -0.209  -0.624  -1.369  0.00  0.00    +0.103 C 
ATOM     17  N   LIG    1       -0.067  -0.006  -0.050  0.00  0.00    -0.302 NA
ATOM     18  C   LIG    1        1.266  -0.178   0.526  0.00  0.00    +0.105 C 
ATOM     19  C   LIG    1       -0.492   1.396  -0.111  0.00  0.00    +0.111 C 
ATOM     20  C   LIG    1        0.239   2.207  -1.224  0.00  0.00    +0.118 C 
ENDROOT
TORSDOF 0
