REMARK  Name = DB06431
REMARK                            x       y       z     vdW  Elec       q    Type
REMARK                         _______ _______ _______ _____ _____    ______ ____
ROOT
ATOM      1  O   LIG    1        1.587  -1.546   2.166  0.00  0.00    -0.340 OA
ENDROOT
BRANCH   1   2
ATOM      2  C   LIG    1        2.940  -1.619   2.508  0.00  0.00    +0.282 C 
ATOM      3  O   LIG    1        3.612  -0.405   2.217  0.00  0.00    -0.343 OA
ATOM      4  C   LIG    1        5.024  -0.387   2.506  0.00  0.00    +0.150 C 
ATOM      5  C   LIG    1        5.531   1.045   2.293  0.00  0.00    +0.041 C 
ATOM      6  C   LIG    1        5.635  -1.470   1.606  0.00  0.00    +0.187 C 
ATOM      7  O   LIG    1        7.015  -1.739   1.657  0.00  0.00    -0.318 OA
ATOM      8  C   LIG    1        7.172  -3.000   1.054  0.00  0.00    +0.289 C 
ATOM      9  C   LIG    1        7.701  -2.843  -0.380  0.00  0.00    +0.132 C 
ATOM     10  C   LIG    1        7.923  -4.218  -1.037  0.00  0.00    +0.153 C 
ATOM     11  C   LIG    1        8.782  -5.128  -0.125  0.00  0.00    +0.179 C 
ATOM     12  C   LIG    1        8.224  -5.124   1.322  0.00  0.00    +0.152 C 
ATOM     13  C   LIG    1        9.131  -5.875   2.309  0.00  0.00    +0.041 C 
ATOM     14  O   LIG    1        8.080  -3.779   1.795  0.00  0.00    -0.321 OA
ATOM     15  O   LIG    1        5.871  -3.557   1.047  0.00  0.00    -0.315 OA
ATOM     16  C   LIG    1        5.084  -2.835   1.978  0.00  0.00    +0.131 C 
ATOM     17  C   LIG    1        5.417  -3.383   3.401  0.00  0.00    +0.047 C 
ATOM     18  C   LIG    1        3.556  -2.810   1.718  0.00  0.00    +0.205 C 
BRANCH  10  19
ATOM     19  O   LIG    1        8.508  -4.054  -2.314  0.00  0.00    -0.389 OA
ATOM     20  H   LIG    1        9.372  -3.651  -2.205  0.00  0.00    +0.210 HD
ENDBRANCH  10  19
BRANCH  18  21
ATOM     21  O   LIG    1        3.269  -2.748   0.328  0.00  0.00    -0.384 OA
ATOM     22  H   LIG    1        2.316  -2.727   0.218  0.00  0.00    +0.210 HD
ENDBRANCH  18  21
BRANCH  11  23
ATOM     23  O   LIG    1        9.040  -6.458  -0.604  0.00  0.00    -0.343 OA
BRANCH  23  24
ATOM     24  C   LIG    1        8.002  -7.197  -1.180  0.00  0.00    +0.254 C 
ATOM     25  C   LIG    1        8.598  -8.539  -1.603  0.00  0.00    +0.096 C 
ATOM     26  C   LIG    1        7.507  -9.402  -2.264  0.00  0.00    +0.169 C 
ATOM     27  C   LIG    1        6.266  -9.510  -1.352  0.00  0.00    +0.234 C 
ATOM     28  C   LIG    1        5.847  -8.107  -0.831  0.00  0.00    +0.161 C 
ATOM     29  C   LIG    1        4.745  -8.157   0.238  0.00  0.00    +0.042 C 
ATOM     30  O   LIG    1        6.979  -7.447  -0.252  0.00  0.00    -0.345 OA
BRANCH  27  31
ATOM     31  O   LIG    1        5.219 -10.108  -2.115  0.00  0.00    -0.453 OA
BRANCH  31  32
ATOM     32  C   LIG    1        4.372 -11.042  -1.623  0.00  0.00    +0.344 C 
ATOM     33  O   LIG    1        4.446 -11.514  -0.486  0.00  0.00    -0.245 OA
BRANCH  32  34
ATOM     34  C   LIG    1        3.449 -11.560  -2.693  0.00  0.00    +0.106 A 
ATOM     35  C   LIG    1        3.282 -12.949  -2.913  0.00  0.00    -0.011 A 
ATOM     36  C   LIG    1        4.107 -13.989  -2.136  0.00  0.00    +0.046 C 
ATOM     37  C   LIG    1        2.374 -13.402  -3.891  0.00  0.00    +0.088 A 
ATOM     38 CL   LIG    1        2.187 -15.124  -4.144  0.00  0.00    -0.079 Cl
ATOM     39  C   LIG    1        1.615 -12.477  -4.639  0.00  0.00    +0.157 A 
ATOM     40  C   LIG    1        1.769 -11.096  -4.405  0.00  0.00    +0.126 A 
ATOM     41 CL   LIG    1        0.787  -9.911  -5.234  0.00  0.00    -0.076 Cl
ATOM     42  C   LIG    1        2.701 -10.642  -3.462  0.00  0.00    +0.156 A 
BRANCH  39  43
ATOM     43  O   LIG    1        0.784 -12.887  -5.523  0.00  0.00    -0.504 OA
ATOM     44  H   LIG    1        0.283 -12.268  -6.017  0.00  0.00    +0.292 HD
ENDBRANCH  39  43
BRANCH  42  45
ATOM     45  O   LIG    1        2.809  -9.284  -3.228  0.00  0.00    -0.493 OA
ATOM     46  C   LIG    1        3.594  -8.558  -4.172  0.00  0.00    +0.277 C 
ENDBRANCH  42  45
ENDBRANCH  32  34
ENDBRANCH  31  32
ENDBRANCH  27  31
BRANCH  26  47
ATOM     47  O   LIG    1        8.024 -10.706  -2.531  0.00  0.00    -0.344 OA
BRANCH  47  48
ATOM     48  C   LIG    1        8.558 -10.918  -3.807  0.00  0.00    +0.254 C 
ATOM     49  O   LIG    1        7.562 -10.974  -4.799  0.00  0.00    -0.346 OA
ATOM     50  C   LIG    1        6.631 -12.056  -4.665  0.00  0.00    +0.149 C 
ATOM     51  C   LIG    1        5.550 -11.858  -5.739  0.00  0.00    +0.041 C 
ATOM     52  C   LIG    1        7.354 -13.425  -4.747  0.00  0.00    +0.178 C 
ATOM     53  C   LIG    1        8.502 -13.496  -3.689  0.00  0.00    +0.146 C 
ATOM     54  C   LIG    1        7.990 -13.751  -2.243  0.00  0.00    +0.044 C 
ATOM     55  C   LIG    1        9.379 -12.215  -3.797  0.00  0.00    +0.098 C 
BRANCH  52  56
ATOM     56  O   LIG    1        6.427 -14.499  -4.549  0.00  0.00    -0.375 OA
ATOM     57  C   LIG    1        6.005 -15.195  -5.716  0.00  0.00    +0.194 C 
ENDBRANCH  52  56
BRANCH  53  58
ATOM     58  N   LIG    1        9.417 -14.689  -3.945  0.00  0.00    -0.020 N 
ATOM     59  O   LIG    1        9.070 -15.564  -4.733  0.00  0.00    -0.135 OA
BRANCH  58  60
ATOM     60  O   LIG    1       10.484 -14.745  -3.337  0.00  0.00    -0.400 OA
ATOM     61  H   LIG    1       10.721 -14.060  -2.742  0.00  0.00    +0.329 HD
ENDBRANCH  58  60
ENDBRANCH  53  58
ENDBRANCH  47  48
ENDBRANCH  26  47
ENDBRANCH  23  24
ENDBRANCH  11  23
ENDBRANCH   1   2
BRANCH   1  67
ATOM     62  C   LIG    1       -1.561  -0.118   3.703  0.00  0.00    +0.282 C 
ATOM     63  O   LIG    1       -1.562   1.032   2.894  0.00  0.00    -0.343 OA
ATOM     64  C   LIG    1       -0.292   1.684   2.831  0.00  0.00    +0.150 C 
ATOM     65  C   LIG    1       -0.464   3.047   2.141  0.00  0.00    +0.041 C 
ATOM     66  C   LIG    1        0.712   0.759   2.110  0.00  0.00    +0.178 C 
ATOM     67  C   LIG    1        0.787  -0.589   2.866  0.00  0.00    +0.186 C 
ATOM     68  C   LIG    1       -0.625  -1.180   3.095  0.00  0.00    +0.202 C 
BRANCH  66  69
ATOM     69  O   LIG    1        0.280   0.578   0.759  0.00  0.00    -0.375 OA
ATOM     70  C   LIG    1        1.313   0.523  -0.216  0.00  0.00    +0.194 C 
ENDBRANCH  66  69
BRANCH  68  71
ATOM     71  O   LIG    1       -0.556  -2.321   3.933  0.00  0.00    -0.384 OA
ATOM     72  H   LIG    1       -1.425  -2.728   3.960  0.00  0.00    +0.210 HD
ENDBRANCH  68  71
BRANCH  62  73
ATOM     73  O   LIG    1       -2.838  -0.690   3.754  0.00  0.00    -0.340 OA
BRANCH  73  77
ATOM     74  C   LIG    1       -5.465   2.530   4.565  0.00  0.00    +0.285 C 
ATOM     75  O   LIG    1       -5.770   1.589   3.565  0.00  0.00    -0.340 OA
ATOM     76  C   LIG    1       -4.611   0.909   3.067  0.00  0.00    +0.178 C 
ATOM     77  C   LIG    1       -3.957   0.082   4.212  0.00  0.00    +0.183 C 
ATOM     78  C   LIG    1       -3.719   0.978   5.455  0.00  0.00    +0.179 C 
ATOM     79  C   LIG    1       -4.996   1.772   5.819  0.00  0.00    +0.205 C 
BRANCH  78  80
ATOM     80  O   LIG    1       -3.245   0.243   6.569  0.00  0.00    -0.386 OA
ATOM     81  H   LIG    1       -3.913  -0.404   6.810  0.00  0.00    +0.210 HD
ENDBRANCH  78  80
BRANCH  79  82
ATOM     82  O   LIG    1       -6.003   0.872   6.295  0.00  0.00    -0.372 OA
ATOM     83  C   LIG    1       -6.807   1.357   7.363  0.00  0.00    +0.194 C 
ENDBRANCH  79  82
BRANCH  74  84
ATOM     84  O   LIG    1       -6.616   3.239   4.909  0.00  0.00    -0.317 OA
BRANCH  84  98
ATOM     85  C   LIG    1       -9.890   7.036   6.388  0.00  0.00    +0.317 C 
ATOM     86  O   LIG    1      -10.351   8.073   5.534  0.00  0.00    -0.321 OA
ATOM     87  C   LIG    1      -11.776   8.096   5.314  0.00  0.00    +0.213 C 
ATOM     88  C   LIG    1      -12.606   8.110   6.628  0.00  0.00    +0.234 C 
ATOM     89  C   LIG    1      -12.134   6.917   7.459  0.00  0.00    +0.200 C 
ATOM     90  O   LIG    1      -12.589   6.826   8.793  0.00  0.00    -0.344 OA
ATOM     91  C   LIG    1      -11.532   6.305   9.552  0.00  0.00    +0.324 C 
ATOM     92  O   LIG    1      -10.443   6.154   8.690  0.00  0.00    -0.340 OA
ATOM     93  C   LIG    1      -10.656   7.134   7.709  0.00  0.00    +0.243 C 
ATOM     94  O   LIG    1       -8.515   7.162   6.636  0.00  0.00    -0.316 OA
ATOM     95  C   LIG    1       -7.924   6.561   5.513  0.00  0.00    +0.181 C 
ATOM     96  C   LIG    1       -6.454   6.152   5.556  0.00  0.00    +0.197 C 
ATOM     97  O   LIG    1       -6.141   5.437   4.345  0.00  0.00    -0.346 OA
ATOM     98  C   LIG    1       -6.944   4.294   4.051  0.00  0.00    +0.284 C 
ATOM     99  C   LIG    1       -8.472   4.544   4.202  0.00  0.00    +0.202 C 
ATOM    100  C   LIG    1       -8.726   5.288   5.523  0.00  0.00    +0.188 C 
ATOM    101  O   LIG    1      -10.026   5.762   5.806  0.00  0.00    -0.316 OA
BRANCH  99 102
ATOM    102  O   LIG    1       -8.998   5.252   3.091  0.00  0.00    -0.384 OA
ATOM    103  H   LIG    1       -8.865   4.722   2.301  0.00  0.00    +0.210 HD
ENDBRANCH  99 102
BRANCH  88 104
ATOM    104  O   LIG    1      -14.006   7.954   6.412  0.00  0.00    -0.453 OA
BRANCH 104 105
ATOM    105  C   LIG    1      -14.788   8.985   6.004  0.00  0.00    +0.343 C 
ATOM    106  O   LIG    1      -14.383  10.146   5.895  0.00  0.00    -0.245 OA
BRANCH 105 107
ATOM    107  C   LIG    1      -16.233   8.584   5.859  0.00  0.00    +0.103 A 
ATOM    108  C   LIG    1      -16.615   7.376   5.219  0.00  0.00    -0.029 A 
ATOM    109  C   LIG    1      -15.615   6.407   4.588  0.00  0.00    +0.045 C 
ATOM    110  C   LIG    1      -17.970   7.050   5.099  0.00  0.00    +0.049 A 
ATOM    111  C   LIG    1      -18.956   7.900   5.588  0.00  0.00    +0.121 A 
ATOM    112  C   LIG    1      -18.596   9.095   6.200  0.00  0.00    +0.091 A 
ATOM    113  C   LIG    1      -17.252   9.443   6.336  0.00  0.00    +0.135 A 
BRANCH 111 114
ATOM    114  O   LIG    1      -20.278   7.566   5.461  0.00  0.00    -0.507 OA
ATOM    115  H   LIG    1      -20.411   6.723   5.022  0.00  0.00    +0.292 HD
ENDBRANCH 111 114
BRANCH 113 116
ATOM    116  O   LIG    1      -16.983  10.634   6.969  0.00  0.00    -0.506 OA
ATOM    117  H   LIG    1      -17.775  11.104   7.239  0.00  0.00    +0.292 HD
ENDBRANCH 113 116
ENDBRANCH 105 107
ENDBRANCH 104 105
ENDBRANCH  88 104
ENDBRANCH  84  98
ENDBRANCH  74  84
BRANCH  76 118
ATOM    118  C   LIG    1       -5.052   0.054   1.863  0.00  0.00    +0.193 C 
BRANCH 118 119
ATOM    119  O   LIG    1       -3.917  -0.512   1.220  0.00  0.00    -0.380 OA
ATOM    120  C   LIG    1       -4.241  -1.340   0.116  0.00  0.00    +0.194 C 
ENDBRANCH 118 119
ENDBRANCH  76 118
ENDBRANCH  73  77
ENDBRANCH  62  73
ENDBRANCH   1  67
TORSDOF 32
