REMARK  Name = DB06579
REMARK                            x       y       z     vdW  Elec       q    Type
REMARK                         _______ _______ _______ _____ _____    ______ ____
ROOT
ATOM      1  C   LIG    1       -0.800   1.339  -0.041  0.00  0.00    +0.163 A 
ATOM      2  N   LIG    1       -0.449   2.648  -0.089  0.00  0.00    -0.211 NA
ATOM      3  C   LIG    1       -1.620   3.263  -0.122  0.00  0.00    +0.149 A 
ATOM      4  C   LIG    1       -1.708   4.771  -0.169  0.00  0.00    +0.090 C 
ATOM      5  N   LIG    1       -2.708   2.512  -0.089  0.00  0.00    -0.149 NA
ATOM      6  C   LIG    1       -0.065   0.132   0.009  0.00  0.00    +0.020 A 
ATOM      7  C   LIG    1       -0.822  -1.066   0.055  0.00  0.00    +0.069 A 
ATOM      8  N   LIG    1       -2.187  -1.087   0.067  0.00  0.00    -0.238 NA
ATOM      9  C   LIG    1       -2.861   0.084   0.015  0.00  0.00    +0.225 A 
ATOM     10  N   LIG    1       -2.191   1.271  -0.039  0.00  0.00    -0.202 N 
ENDROOT
BRANCH   6  11
ATOM     11  C   LIG    1        1.465   0.135   0.029  0.00  0.00    +0.040 C 
BRANCH  11  12
ATOM     12  C   LIG    1        2.070  -0.119   1.424  0.00  0.00    +0.001 C 
ATOM     13  C   LIG    1        1.707   0.948   2.469  0.00  0.00    +0.004 C 
ENDBRANCH  11  12
ENDBRANCH   6  11
BRANCH   7  14
ATOM     14  C   LIG    1       -0.166  -2.453   0.122  0.00  0.00    +0.179 C 
BRANCH  14  15
ATOM     15  N   LIG    1       -0.832  -3.505  -0.650  0.00  0.00    -0.323 N 
ATOM     16  C   LIG    1       -1.748  -4.399  -0.154  0.00  0.00    +0.108 A 
ATOM     17  C   LIG    1       -2.090  -5.211  -1.217  0.00  0.00    +0.131 A 
ATOM     18  N   LIG    1       -1.447  -4.867  -2.316  0.00  0.00    -0.234 NA
ATOM     19  C   LIG    1       -0.689  -3.839  -1.990  0.00  0.00    +0.162 A 
BRANCH  19  20
ATOM     20  C   LIG    1        0.185  -3.140  -2.994  0.00  0.00    +0.141 A 
ATOM     21  C   LIG    1        0.839  -3.824  -4.034  0.00  0.00    +0.152 A 
ATOM     22  C   LIG    1        1.624  -3.098  -4.932  0.00  0.00    +0.042 A 
ATOM     23  C   LIG    1        1.745  -1.716  -4.782  0.00  0.00    +0.023 A 
ATOM     24  C   LIG    1        1.069  -1.102  -3.728  0.00  0.00    +0.112 A 
ATOM     25  F   LIG    1        0.733  -5.166  -4.175  0.00  0.00    -0.203 F 
ATOM     26  N   LIG    1        0.302  -1.792  -2.847  0.00  0.00    -0.249 NA
ENDBRANCH  19  20
ENDBRANCH  14  15
ENDBRANCH   7  14
TORSDOF 5
