REMARK  Name = DB06710
REMARK                            x       y       z     vdW  Elec       q    Type
REMARK                         _______ _______ _______ _____ _____    ______ ____
ROOT
ATOM      1  C   LIG    1       -0.217  -2.204   0.981  0.00  0.00    +0.007 C 
ATOM      2  C   LIG    1       -0.360  -2.360  -0.547  0.00  0.00    +0.035 C 
ATOM      3  C   LIG    1       -0.504  -0.934  -1.150  0.00  0.00    +0.069 C 
ATOM      4  C   LIG    1       -1.986  -0.640  -1.510  0.00  0.00    +0.042 C 
ATOM      5  C   LIG    1        0.106  -0.005  -0.040  0.00  0.00    -0.000 C 
ATOM      6  C   LIG    1        1.668  -0.015  -0.152  0.00  0.00    +0.014 C 
ATOM      7  C   LIG    1       -0.417   1.460   0.018  0.00  0.00    +0.010 C 
ATOM      8  C   LIG    1        0.090   2.196   1.282  0.00  0.00    +0.005 C 
ATOM      9  C   LIG    1       -0.272   1.444   2.606  0.00  0.00    +0.002 C 
ATOM     10  C   LIG    1        0.235   2.173   3.912  0.00  0.00    -0.007 C 
ATOM     11  C   LIG    1        1.776   2.361   3.928  0.00  0.00    +0.016 C 
ATOM     12  C   LIG    1       -0.149   1.316   5.156  0.00  0.00    -0.060 C 
ATOM     13  C   LIG    1        0.203  -0.172   5.074  0.00  0.00    +0.032 C 
ATOM     14  C   LIG    1       -0.397  -0.779   3.800  0.00  0.00    +0.008 C 
ATOM     15  C   LIG    1       -0.718   1.836   6.270  0.00  0.00    +0.046 C 
ATOM     16  C   LIG    1       -1.037   3.243   6.463  0.00  0.00    +0.156 C 
ATOM     17  O   LIG    1       -1.648   3.638   7.453  0.00  0.00    -0.293 OA
ATOM     18  C   LIG    1       -0.450   4.206   5.428  0.00  0.00    +0.080 C 
ATOM     19  C   LIG    1       -0.453   3.577   4.021  0.00  0.00    +0.019 C 
ATOM     20  C   LIG    1        0.136  -0.067   2.543  0.00  0.00    -0.003 C 
ATOM     21  C   LIG    1       -0.418  -0.707   1.238  0.00  0.00    +0.001 C 
ENDROOT
BRANCH   3  22
ATOM     22  O   LIG    1        0.133  -0.841  -2.416  0.00  0.00    -0.388 OA
ATOM     23  H   LIG    1        0.025   0.055  -2.744  0.00  0.00    +0.210 HD
ENDBRANCH   3  22
TORSDOF 1
