REMARK  Name = DB06479
REMARK                            x       y       z     vdW  Elec       q    Type
REMARK                         _______ _______ _______ _____ _____    ______ ____
ROOT
ATOM      1  N   LIG    1        3.072  -4.515   2.020  0.00  0.00    -0.325 N 
ATOM      2  C   LIG    1        2.743  -3.558   1.081  0.00  0.00    +0.151 A 
ATOM      3  C   LIG    1        2.261  -2.200   1.230  0.00  0.00    +0.282 A 
ATOM      4  O   LIG    1        2.041  -1.625   2.299  0.00  0.00    -0.265 OA
ATOM      5  N   LIG    1        2.082  -1.621  -0.019  0.00  0.00    -0.259 N 
ATOM      6  C   LIG    1        2.239  -2.169  -1.290  0.00  0.00    +0.333 A 
ATOM      7  O   LIG    1        1.961  -1.562  -2.332  0.00  0.00    -0.246 OA
ATOM      8  N   LIG    1        2.719  -3.458  -1.311  0.00  0.00    -0.280 N 
ATOM      9  C   LIG    1        2.954  -4.104  -2.611  0.00  0.00    +0.155 C 
ATOM     10  C   LIG    1        2.962  -4.170  -0.143  0.00  0.00    +0.168 A 
ATOM     11  N   LIG    1        3.391  -5.417  -0.018  0.00  0.00    -0.218 NA
ATOM     12  C   LIG    1        3.449  -5.609   1.277  0.00  0.00    +0.202 A 
ENDROOT
BRANCH   1  13
ATOM     13  C   LIG    1        3.043  -4.435   3.480  0.00  0.00    +0.123 C 
BRANCH  13  15
ATOM     14  C   LIG    1        4.959  -2.680   3.638  0.00  0.00    +0.005 C 
ATOM     15  C   LIG    1        4.421  -4.055   4.065  0.00  0.00    +0.018 C 
ENDBRANCH  13  15
ENDBRANCH   1  13
BRANCH   5  16
ATOM     16  C   LIG    1        1.606  -0.211   0.005  0.00  0.00    +0.130 C 
BRANCH  16  17
ATOM     17  C   LIG    1        0.070  -0.072  -0.032  0.00  0.00    +0.022 C 
BRANCH  17  18
ATOM     18  C   LIG    1       -0.388   1.399  -0.019  0.00  0.00    +0.009 C 
BRANCH  18  19
ATOM     19  C   LIG    1       -1.919   1.596   0.010  0.00  0.00    +0.074 C 
BRANCH  19  20
ATOM     20  C   LIG    1       -2.639   1.077  -1.238  0.00  0.00    +0.130 C 
ATOM     21  O   LIG    1       -3.280   0.028  -1.215  0.00  0.00    -0.298 OA
ATOM     22  C   LIG    1       -2.526   1.906  -2.513  0.00  0.00    +0.086 C 
ENDBRANCH  19  20
ENDBRANCH  18  19
ENDBRANCH  17  18
ENDBRANCH  16  17
ENDBRANCH   5  16
TORSDOF 7
