REMARK  Name = DB06266
REMARK                            x       y       z     vdW  Elec       q    Type
REMARK                         _______ _______ _______ _____ _____    ______ ____
ROOT
ATOM      1  N   LIG    1       -0.028   0.131  -0.118  0.00  0.00    -0.259 N 
ATOM      2  C   LIG    1       -0.862  -0.934   0.161  0.00  0.00    +0.070 A 
ATOM      3  C   LIG    1       -0.611  -2.238   0.605  0.00  0.00    +0.028 A 
ATOM      4  C   LIG    1       -1.717  -3.066   0.794  0.00  0.00    +0.002 A 
ATOM      5  C   LIG    1       -3.015  -2.622   0.553  0.00  0.00    +0.001 A 
ATOM      6  C   LIG    1       -3.261  -1.324   0.109  0.00  0.00    +0.012 A 
ATOM      7  C   LIG    1       -2.174  -0.454  -0.098  0.00  0.00    +0.034 A 
ATOM      8  C   LIG    1       -2.005   0.912  -0.533  0.00  0.00    +0.177 A 
ATOM      9  N   LIG    1       -0.720   1.207  -0.534  0.00  0.00    -0.163 NA
ENDROOT
BRANCH   8  10
ATOM     10  C   LIG    1       -3.061   1.866  -0.937  0.00  0.00    +0.358 C 
ATOM     11  O   LIG    1       -4.104   1.390  -1.440  0.00  0.00    -0.243 OA
BRANCH  10  12
ATOM     12  O   LIG    1       -2.851   3.088  -0.751  0.00  0.00    -0.476 OA
ATOM     13  H   LIG    1       -2.044   3.372  -0.368  0.00  0.00    +0.295 HD
ENDBRANCH  10  12
ENDBRANCH   8  10
BRANCH   1  14
ATOM     14  C   LIG    1        1.427   0.205  -0.016  0.00  0.00    +0.180 C 
BRANCH  14  21
ATOM     15  C   LIG    1        1.697   0.891   2.448  0.00  0.00    +0.047 A 
ATOM     16  C   LIG    1        2.213   0.649   3.724  0.00  0.00    +0.040 A 
ATOM     17  C   LIG    1        3.004  -0.473   3.964  0.00  0.00    +0.042 A 
ATOM     18 CL   LIG    1        3.636  -0.763   5.544  0.00  0.00    -0.083 Cl
ATOM     19  C   LIG    1        3.288  -1.358   2.926  0.00  0.00    +0.020 A 
ATOM     20  C   LIG    1        2.777  -1.122   1.651  0.00  0.00    +0.008 A 
ATOM     21  C   LIG    1        1.971  -0.005   1.398  0.00  0.00    -0.008 A 
ATOM     22 CL   LIG    1        0.748   2.317   2.211  0.00  0.00    -0.083 Cl
ENDBRANCH  14  21
ENDBRANCH   1  14
TORSDOF 4
