REMARK  Name = DB06470
REMARK                            x       y       z     vdW  Elec       q    Type
REMARK                         _______ _______ _______ _____ _____    ______ ____
ROOT
ATOM      1  C   LIG    1        0.010   0.015   0.009  0.00  0.00    +0.013 A 
ATOM      2  S   LIG    1       -0.958   1.471   0.010  0.00  0.00    -0.080 S 
ATOM      3  C   LIG    1       -2.379   0.495   0.028  0.00  0.00    +0.156 A 
ATOM      4  N   LIG    1       -2.165  -0.791   0.029  0.00  0.00    -0.252 NA
ATOM      5  C   LIG    1       -0.875  -1.075   0.016  0.00  0.00    +0.049 A 
ATOM      6  C   LIG    1       -0.533  -2.550   0.005  0.00  0.00    +0.066 C 
ENDROOT
BRANCH   1   7
ATOM      7  C   LIG    1        1.524   0.053  -0.006  0.00  0.00    +0.060 C 
BRANCH   7   8
ATOM      8  C   LIG    1        2.074   0.029  -1.440  0.00  0.00    +0.114 C 
ATOM      9 CL   LIG    1        3.856   0.049  -1.414  0.00  0.00    -0.125 Cl
ENDBRANCH   7   8
ENDBRANCH   1   7
TORSDOF 2
