REMARK  Name = DB06608
REMARK                            x       y       z     vdW  Elec       q    Type
REMARK                         _______ _______ _______ _____ _____    ______ ____
ROOT
ATOM      1  C   LIG    1       -4.387   2.317  -0.036  0.00  0.00    +0.045 C 
ATOM      2  C   LIG    1       -2.864   2.249  -0.040  0.00  0.00    -0.033 A 
ATOM      3  C   LIG    1       -2.146   0.999  -0.007  0.00  0.00    +0.051 A 
ATOM      4  C   LIG    1       -2.756  -0.299   0.019  0.00  0.00    +0.179 A 
ATOM      5  C   LIG    1       -1.972  -1.456   0.085  0.00  0.00    +0.165 A 
ATOM      6  C   LIG    1       -0.580  -1.351   0.088  0.00  0.00    +0.074 A 
ATOM      7  C   LIG    1        0.076  -0.119   0.040  0.00  0.00    +0.057 A 
ATOM      8  C   LIG    1       -0.712   1.075  -0.003  0.00  0.00    +0.100 A 
ATOM      9  N   LIG    1       -0.062   2.278  -0.039  0.00  0.00    -0.211 NA
ATOM     10  C   LIG    1       -0.763   3.431  -0.074  0.00  0.00    +0.215 A 
ATOM     11  C   LIG    1       -2.157   3.450  -0.074  0.00  0.00    +0.071 A 
ENDROOT
BRANCH   5  12
ATOM     12  O   LIG    1       -2.644  -2.666   0.149  0.00  0.00    -0.491 OA
ATOM     13  C   LIG    1       -1.912  -3.884   0.228  0.00  0.00    +0.277 C 
ENDBRANCH   5  12
BRANCH   7  14
ATOM     14  N   LIG    1        1.487  -0.041   0.043  0.00  0.00    -0.339 N 
ATOM     15  H   LIG    1        1.903   0.878  -0.016  0.00  0.00    +0.146 HD
BRANCH  14  16
ATOM     16  C   LIG    1        2.389  -1.188  -0.059  0.00  0.00    +0.067 C 
ATOM     17  C   LIG    1        2.619  -1.848   1.315  0.00  0.00    +0.028 C 
BRANCH  16  18
ATOM     18  C   LIG    1        3.734  -0.791  -0.708  0.00  0.00    +0.023 C 
BRANCH  18  19
ATOM     19  C   LIG    1        3.612  -0.293  -2.163  0.00  0.00    +0.017 C 
BRANCH  19  20
ATOM     20  C   LIG    1        4.978   0.035  -2.788  0.00  0.00    +0.078 C 
BRANCH  20  21
ATOM     21  N   LIG    1        4.811   0.512  -4.147  0.00  0.00    -0.330 NA
ATOM     22  H   LIG    1        4.229   1.338  -4.149  0.00  0.00    +0.118 HD
ATOM     23  H   LIG    1        4.329  -0.184  -4.698  0.00  0.00    +0.118 HD
ENDBRANCH  20  21
ENDBRANCH  19  20
ENDBRANCH  18  19
ENDBRANCH  16  18
ENDBRANCH  14  16
ENDBRANCH   7  14
BRANCH  10  24
ATOM     24  O   LIG    1        0.044   4.551  -0.107  0.00  0.00    -0.480 OA
ATOM     25  C   LIG    1       -0.562   5.839  -0.144  0.00  0.00    +0.279 C 
ENDBRANCH  10  24
BRANCH   4  26
ATOM     26  O   LIG    1       -4.128  -0.442   0.009  0.00  0.00    -0.452 OA
BRANCH  26  27
ATOM     27  C   LIG    1       -4.778  -0.956  -1.097  0.00  0.00    +0.129 A 
ATOM     28  C   LIG    1       -6.045  -1.511  -0.902  0.00  0.00    +0.058 A 
ATOM     29  C   LIG    1       -6.779  -2.034  -1.974  0.00  0.00    +0.058 A 
ATOM     30  C   LIG    1       -6.227  -1.990  -3.261  0.00  0.00    +0.012 A 
ATOM     31  C   LIG    1       -4.969  -1.428  -3.469  0.00  0.00    +0.004 A 
ATOM     32  C   LIG    1       -4.248  -0.910  -2.395  0.00  0.00    +0.046 A 
BRANCH  29  33
ATOM     33  C   LIG    1       -8.159  -2.638  -1.723  0.00  0.00    +0.418 C 
ATOM     34  F   LIG    1       -8.822  -2.877  -2.856  0.00  0.00    -0.166 F 
ATOM     35  F   LIG    1       -8.897  -1.810  -0.981  0.00  0.00    -0.166 F 
ATOM     36  F   LIG    1       -8.022  -3.791  -1.069  0.00  0.00    -0.166 F 
ENDBRANCH  29  33
ENDBRANCH  26  27
ENDBRANCH   4  26
TORSDOF 11
