REMARK  Name = DB06045
REMARK                            x       y       z     vdW  Elec       q    Type
REMARK                         _______ _______ _______ _____ _____    ______ ____
ROOT
ATOM      1  C   UNK A  0       -0.753   1.083  -0.189  0.00  0.00    +0.237 C 
ATOM      2  N   GLU A  1        0.063   0.081   0.191  0.00  0.00    -0.301 N 
ATOM      3  H   GLU A  1       -0.344  -0.808   0.445  0.00  0.00    +0.150 HD
ATOM      4  O   UNK A  0       -0.321   2.193  -0.507  0.00  0.00    -0.273 OA
ENDROOT
BRANCH   1   6
ATOM      5  C   UNK A  0       -3.055   1.886  -1.002  0.00  0.00    +0.042 C 
ATOM      6  C   UNK A  0       -2.291   0.785  -0.210  0.00  0.00    +0.111 C 
ATOM      7  N   UNK A  0       -2.624  -0.574  -0.744  0.00  0.00    -0.286 N 
ATOM      8  C   UNK A  0       -2.288  -1.053  -1.977  0.00  0.00    +0.230 C 
ATOM      9  O   UNK A  0       -1.697  -0.351  -2.804  0.00  0.00    -0.274 OA
ATOM     10  C   UNK A  0       -3.271  -1.413   0.277  0.00  0.00    +0.109 C 
ATOM     11  C   UNK A  0       -3.830  -0.389   1.258  0.00  0.00    +0.022 C 
ATOM     12  C   UNK A  0       -2.782   0.705   1.260  0.00  0.00    +0.037 C 
BRANCH   8  13
ATOM     13  C   UNK A  0       -2.672  -2.514  -2.327  0.00  0.00    +0.174 C 
BRANCH  13  14
ATOM     14  N   UNK A  0       -2.180  -2.899  -3.628  0.00  0.00    -0.322 NA
ATOM     15  H   UNK A  0       -1.172  -2.831  -3.669  0.00  0.00    +0.119 HD
ATOM     16  H   UNK A  0       -2.547  -2.291  -4.347  0.00  0.00    +0.119 HD
ENDBRANCH  13  14
ENDBRANCH   8  13
ENDBRANCH   1   6
BRANCH   2  17
ATOM     17  CA  GLU A  1        1.524   0.129   0.196  0.00  0.00    +0.182 C 
BRANCH  17  18
ATOM     18  C   GLU A  1        2.063  -0.151  -1.223  0.00  0.00    +0.325 C 
ATOM     19  O   GLU A  1        2.235  -1.264  -1.675  0.00  0.00    -0.249 OA
BRANCH  18  20
ATOM     20  OXT GLU A  1        2.312   1.027  -1.867  0.00  0.00    -0.479 OA
ATOM     21  HXT GLU A  1        2.640   0.894  -2.759  0.00  0.00    +0.295 HD
ENDBRANCH  18  20
ENDBRANCH  17  18
BRANCH  17  22
ATOM     22  CB  GLU A  1        2.038  -0.872   1.257  0.00  0.00    +0.045 C 
BRANCH  22  23
ATOM     23  CG  GLU A  1        3.572  -0.905   1.407  0.00  0.00    +0.123 C 
BRANCH  23  24
ATOM     24  CD  GLU A  1        4.008  -1.785   2.576  0.00  0.00    +0.305 C 
ATOM     25  OE1 GLU A  1        4.264  -1.353   3.697  0.00  0.00    -0.251 OA
BRANCH  24  26
ATOM     26  OE2 GLU A  1        4.076  -3.104   2.235  0.00  0.00    -0.481 OA
ATOM     27  HE2 GLU A  1        4.352  -3.659   2.967  0.00  0.00    +0.295 HD
ENDBRANCH  24  26
ENDBRANCH  23  24
ENDBRANCH  22  23
ENDBRANCH  17  22
ENDBRANCH   2  17
TORSDOF 10
