REMARK  Name = DB06178
REMARK                            x       y       z     vdW  Elec       q    Type
REMARK                         _______ _______ _______ _____ _____    ______ ____
ROOT
ATOM      1  C   LIG    1       -0.772   0.825  -0.619  0.00  0.00    +0.245 C 
ATOM      2  N   LIG    1        0.002  -0.155  -0.108  0.00  0.00    -0.298 N 
ATOM      3  H   LIG    1       -0.450  -0.952   0.315  0.00  0.00    +0.150 HD
ATOM      4  O   LIG    1       -0.303   1.838  -1.144  0.00  0.00    -0.270 OA
ENDROOT
BRANCH   1   8
ATOM      5  C   LIG    1       -5.059   0.264  -0.427  0.00  0.00    +0.027 A 
ATOM      6  C   LIG    1       -4.215  -0.549   0.330  0.00  0.00    +0.023 A 
ATOM      7  C   LIG    1       -2.835  -0.376   0.277  0.00  0.00    +0.015 A 
ATOM      8  C   LIG    1       -2.271   0.616  -0.540  0.00  0.00    +0.037 A 
ATOM      9  C   LIG    1       -3.125   1.433  -1.294  0.00  0.00    +0.015 A 
ATOM     10  C   LIG    1       -4.505   1.259  -1.242  0.00  0.00    +0.023 A 
BRANCH   5  11
ATOM     11  N   LIG    1       -6.442   0.037  -0.333  0.00  0.00    -0.338 N 
ATOM     12  H   LIG    1       -6.776  -0.581   0.392  0.00  0.00    +0.146 HD
BRANCH  11  13
ATOM     13  C   LIG    1       -7.412   0.900  -0.997  0.00  0.00    +0.158 C 
BRANCH  13  17
ATOM     14  C   LIG    1      -11.373   0.337   1.845  0.00  0.00    +0.149 A 
ATOM     15  C   LIG    1      -10.655   0.157   0.631  0.00  0.00    +0.148 A 
ATOM     16  N   LIG    1       -9.385   0.620   0.431  0.00  0.00    -0.242 NA
ATOM     17  C   LIG    1       -8.820   0.372  -0.780  0.00  0.00    +0.077 A 
ATOM     18  C   LIG    1       -9.502  -0.316  -1.787  0.00  0.00    +0.138 A 
ATOM     19  N   LIG    1      -10.763  -0.784  -1.609  0.00  0.00    -0.232 NA
ATOM     20  C   LIG    1      -11.347  -0.552  -0.400  0.00  0.00    +0.185 A 
ATOM     21  N   LIG    1      -12.613  -1.026  -0.227  0.00  0.00    -0.193 NA
ATOM     22  C   LIG    1      -13.188  -0.791   0.978  0.00  0.00    +0.216 A 
ATOM     23  N   LIG    1      -12.631  -0.132   2.023  0.00  0.00    -0.198 NA
BRANCH  14  24
ATOM     24  N   LIG    1      -10.822   1.011   2.935  0.00  0.00    -0.341 N 
ATOM     25  H   LIG    1      -11.368   1.117   3.777  0.00  0.00    +0.144 HD
ATOM     26  H   LIG    1       -9.886   1.386   2.865  0.00  0.00    +0.144 HD
ENDBRANCH  14  24
BRANCH  22  27
ATOM     27  N   LIG    1      -14.478  -1.274   1.159  0.00  0.00    -0.327 N 
ATOM     28  H   LIG    1      -14.942  -1.124   2.043  0.00  0.00    +0.145 HD
ATOM     29  H   LIG    1      -14.927  -1.773   0.405  0.00  0.00    +0.145 HD
ENDBRANCH  22  27
ENDBRANCH  13  17
ENDBRANCH  11  13
ENDBRANCH   5  11
ENDBRANCH   1   8
BRANCH   2  30
ATOM     30  CA  LIG    1        1.480  -0.191  -0.087  0.00  0.00    +0.182 C 
BRANCH  30  31
ATOM     31  C   LIG    1        2.126  -0.493  -1.498  0.00  0.00    +0.325 C 
ATOM     32  OXT LIG    1        3.321  -0.130  -1.599  0.00  0.00    -0.249 OA
BRANCH  31  33
ATOM     33  O   LIG    1        1.420  -1.098  -2.342  0.00  0.00    -0.479 OA
ATOM     34  H   LIG    1        1.769  -1.294  -3.189  0.00  0.00    +0.295 HD
ENDBRANCH  31  33
ENDBRANCH  30  31
BRANCH  30  35
ATOM     35  C   LIG    1        2.006  -1.181   0.987  0.00  0.00    +0.035 C 
BRANCH  35  36
ATOM     36  C   LIG    1        1.500  -0.899   2.418  0.00  0.00    +0.021 C 
BRANCH  36  37
ATOM     37  C   LIG    1        2.138  -1.837   3.464  0.00  0.00    +0.104 C 
BRANCH  37  38
ATOM     38  N   LIG    1        1.607  -1.678   4.816  0.00  0.00    -0.311 N 
ATOM     39  H   LIG    1        0.990  -2.406   5.145  0.00  0.00    +0.149 HD
ATOM     40  C   LIG    1        1.863  -0.639   5.630  0.00  0.00    +0.245 C 
ATOM     41  O   LIG    1        2.590   0.313   5.341  0.00  0.00    -0.270 OA
BRANCH  40  42
ATOM     42  C   LIG    1        1.244  -0.747   6.999  0.00  0.00    +0.051 A 
ATOM     43  C   LIG    1        1.949  -1.553   7.906  0.00  0.00    +0.014 A 
ATOM     44  C   LIG    1        1.541  -1.689   9.226  0.00  0.00    +0.001 A 
ATOM     45  C   LIG    1        0.421  -1.006   9.668  0.00  0.00    +0.001 A 
ATOM     46  C   LIG    1       -0.289  -0.194   8.790  0.00  0.00    +0.016 A 
ATOM     47  C   LIG    1        0.076  -0.031   7.431  0.00  0.00    +0.071 A 
BRANCH  47  48
ATOM     48  C   LIG    1       -0.800   0.867   6.550  0.00  0.00    +0.338 C 
ATOM     49  O   LIG    1       -1.776   1.461   7.071  0.00  0.00    -0.245 OA
BRANCH  48  50
ATOM     50  O   LIG    1       -0.562   0.995   5.327  0.00  0.00    -0.477 OA
ATOM     51  H   LIG    1       -1.104   1.547   4.800  0.00  0.00    +0.295 HD
ENDBRANCH  48  50
ENDBRANCH  47  48
ENDBRANCH  40  42
ENDBRANCH  37  38
ENDBRANCH  36  37
ENDBRANCH  35  36
ENDBRANCH  30  35
ENDBRANCH   2  30
TORSDOF 16
