REMARK  Name = DB06609
REMARK                            x       y       z     vdW  Elec       q    Type
REMARK                         _______ _______ _______ _____ _____    ______ ____
ROOT
ATOM      1  O   LIG    1        1.189   0.495  -0.016  0.00  0.00    -0.476 OA
ENDROOT
BRANCH   1  10
ATOM      2  C   LIG    1        3.366   2.939  -5.770  0.00  0.00    +0.045 C 
ATOM      3  C   LIG    1        4.064   2.425  -4.517  0.00  0.00    -0.033 A 
ATOM      4  C   LIG    1        3.232   1.941  -3.392  0.00  0.00    +0.021 A 
ATOM      5  C   LIG    1        3.908   1.474  -2.255  0.00  0.00    +0.143 A 
ATOM      6  O   LIG    1        5.294   1.462  -2.173  0.00  0.00    -0.422 OA
ATOM      7  C   LIG    1        6.096   1.911  -3.212  0.00  0.00    +0.337 A 
ATOM      8  O   LIG    1        7.310   1.854  -3.026  0.00  0.00    -0.245 OA
ATOM      9  C   LIG    1        3.200   1.001  -1.151  0.00  0.00    +0.092 A 
ATOM     10  C   LIG    1        1.803   0.979  -1.157  0.00  0.00    +0.126 A 
ATOM     11  C   LIG    1        1.126   1.451  -2.295  0.00  0.00    +0.046 A 
ATOM     12  C   LIG    1        1.832   1.926  -3.401  0.00  0.00    +0.015 A 
ATOM     13  C   LIG    1        5.410   2.403  -4.414  0.00  0.00    +0.096 A 
ENDBRANCH   1  10
BRANCH   1  14
ATOM     14  C   LIG    1       -0.230   0.315   0.039  0.00  0.00    +0.262 C 
ATOM     15  S   LIG    1       -1.027   1.913   0.433  0.00  0.00    -0.112 S 
ATOM     16  C   LIG    1       -2.744   1.325   0.542  0.00  0.00    +0.106 C 
ATOM     17  C   LIG    1       -2.904   0.195   1.578  0.00  0.00    +0.155 C 
ATOM     18  C   LIG    1       -2.085  -1.067   1.208  0.00  0.00    +0.177 C 
ATOM     19  C   LIG    1       -0.565  -0.769   1.095  0.00  0.00    +0.196 C 
BRANCH  17  20
ATOM     20  O   LIG    1       -4.273  -0.104   1.775  0.00  0.00    -0.388 OA
ATOM     21  H   LIG    1       -4.719   0.689   2.080  0.00  0.00    +0.210 HD
ENDBRANCH  17  20
BRANCH  18  22
ATOM     22  O   LIG    1       -2.591  -1.701   0.041  0.00  0.00    -0.386 OA
ATOM     23  H   LIG    1       -2.886  -2.583   0.277  0.00  0.00    +0.210 HD
ENDBRANCH  18  22
BRANCH  19  24
ATOM     24  O   LIG    1        0.156  -1.963   0.841  0.00  0.00    -0.385 OA
ATOM     25  H   LIG    1        1.093  -1.752   0.822  0.00  0.00    +0.210 HD
ENDBRANCH  19  24
ENDBRANCH   1  14
TORSDOF 5
