REMARK  Name = DB06521
REMARK                            x       y       z     vdW  Elec       q    Type
REMARK                         _______ _______ _______ _____ _____    ______ ____
ROOT
ATOM      1  C   LIG    1       -0.022  -2.281  -0.866  0.00  0.00    +0.047 C 
ATOM      2  C   LIG    1       -0.743  -1.027  -0.393  0.00  0.00    -0.008 A 
ATOM      3  C   LIG    1       -0.049   0.098   0.095  0.00  0.00    +0.128 A 
ATOM      4  C   LIG    1       -0.777   1.162   0.657  0.00  0.00    -0.008 A 
ATOM      5  C   LIG    1       -0.084   2.351   1.305  0.00  0.00    +0.047 C 
ATOM      6  C   LIG    1       -2.172   1.132   0.651  0.00  0.00    +0.015 A 
ATOM      7  C   LIG    1       -2.865   0.052   0.103  0.00  0.00    -0.016 A 
ATOM      8  C   LIG    1       -2.140  -1.033  -0.393  0.00  0.00    +0.015 A 
ENDROOT
BRANCH   7   9
ATOM      9  C   LIG    1       -4.352   0.036   0.094  0.00  0.00    -0.002 A 
ATOM     10  C   LIG    1       -5.057   0.602  -1.004  0.00  0.00    +0.002 A 
ATOM     11  C   LIG    1       -4.598   1.237  -2.224  0.00  0.00    -0.032 A 
ATOM     12  C   LIG    1       -3.135   1.424  -2.592  0.00  0.00    +0.045 C 
ATOM     13  C   LIG    1       -5.642   1.665  -3.038  0.00  0.00    -0.009 A 
ATOM     14  C   LIG    1       -5.566   2.375  -4.374  0.00  0.00    +0.052 C 
ATOM     15  S   LIG    1       -7.204   1.298  -2.361  0.00  0.00    -0.092 S 
ATOM     16  C   LIG    1       -6.480   0.561  -0.947  0.00  0.00    +0.035 A 
ATOM     17  C   LIG    1       -7.167  -0.011   0.133  0.00  0.00    +0.040 A 
ATOM     18 BR   LIG    1       -9.082  -0.015   0.114  0.00  0.00    -0.049 Br
ATOM     19  C   LIG    1       -6.464  -0.577   1.224  0.00  0.00    -0.002 A 
ATOM     20  C   LIG    1       -7.133  -1.166   2.335  0.00  0.00    +0.009 A 
ATOM     21  C   LIG    1       -6.417  -1.713   3.393  0.00  0.00    +0.001 A 
ATOM     22  C   LIG    1       -5.031  -1.694   3.385  0.00  0.00    +0.001 A 
ATOM     23  C   LIG    1       -4.343  -1.128   2.318  0.00  0.00    +0.009 A 
ATOM     24  C   LIG    1       -5.037  -0.554   1.207  0.00  0.00    -0.008 A 
ENDBRANCH   7   9
BRANCH   3  25
ATOM     25  O   LIG    1        1.333   0.161   0.082  0.00  0.00    -0.477 OA
BRANCH  25  26
ATOM     26  C   LIG    1        1.990   0.245  -1.200  0.00  0.00    +0.285 C 
BRANCH  26  27
ATOM     27  C   LIG    1        1.839   1.670  -1.804  0.00  0.00    +0.346 C 
ATOM     28  O   LIG    1        2.111   2.659  -1.083  0.00  0.00    -0.247 OA
BRANCH  27  29
ATOM     29  O   LIG    1        1.477   1.751  -3.000  0.00  0.00    -0.478 OA
ATOM     30  H   LIG    1        1.288   0.973  -3.486  0.00  0.00    +0.295 HD
ENDBRANCH  27  29
ENDBRANCH  26  27
BRANCH  26  31
ATOM     31  C   LIG    1        3.485  -0.113  -1.012  0.00  0.00    +0.091 C 
BRANCH  31  32
ATOM     32  C   LIG    1        3.699  -1.557  -0.578  0.00  0.00    -0.043 A 
ATOM     33  C   LIG    1        3.790  -2.567  -1.540  0.00  0.00    +0.004 A 
ATOM     34  C   LIG    1        3.970  -3.890  -1.143  0.00  0.00    +0.000 A 
ATOM     35  C   LIG    1        4.057  -4.197   0.213  0.00  0.00    +0.000 A 
ATOM     36  C   LIG    1        3.966  -3.195   1.177  0.00  0.00    +0.000 A 
ATOM     37  C   LIG    1        3.787  -1.872   0.781  0.00  0.00    +0.004 A 
ENDBRANCH  31  32
ENDBRANCH  26  31
ENDBRANCH  25  26
ENDBRANCH   3  25
TORSDOF 7
