REMARK  Name = DB06640
REMARK                            x       y       z     vdW  Elec       q    Type
REMARK                         _______ _______ _______ _____ _____    ______ ____
ROOT
ATOM      1  C   LIG    1       -5.066  -0.801   0.886  0.00  0.00    -0.031 C 
ATOM      2  C   LIG    1       -4.329  -0.065  -0.000  0.00  0.00    -0.007 C 
ENDROOT
BRANCH   1   6
ATOM      3  C   LIG    1       -3.235  -3.107   3.992  0.00  0.00    +0.000 A 
ATOM      4  C   LIG    1       -4.085  -3.729   3.082  0.00  0.00    +0.001 A 
ATOM      5  C   LIG    1       -4.684  -2.980   2.073  0.00  0.00    +0.008 A 
ATOM      6  C   LIG    1       -4.433  -1.606   1.967  0.00  0.00    -0.021 A 
ATOM      7  C   LIG    1       -3.580  -0.993   2.894  0.00  0.00    +0.008 A 
ATOM      8  C   LIG    1       -2.981  -1.741   3.903  0.00  0.00    +0.001 A 
ENDBRANCH   1   6
BRANCH   2   9
ATOM      9  C   LIG    1       -2.841  -0.114  -0.062  0.00  0.00    -0.017 A 
ATOM     10  C   LIG    1       -2.091   1.064   0.014  0.00  0.00    +0.012 A 
ATOM     11  C   LIG    1       -0.701   1.017  -0.026  0.00  0.00    +0.046 A 
ATOM     12  C   LIG    1       -0.035  -0.203  -0.143  0.00  0.00    +0.121 A 
ATOM     13  C   LIG    1       -0.785  -1.385  -0.238  0.00  0.00    +0.046 A 
ATOM     14  C   LIG    1       -2.175  -1.337  -0.199  0.00  0.00    +0.012 A 
BRANCH  12  15
ATOM     15  O   LIG    1        1.346  -0.154  -0.157  0.00  0.00    -0.490 OA
BRANCH  15  16
ATOM     16  C   LIG    1        2.087  -1.370  -0.205  0.00  0.00    +0.257 C 
BRANCH  16  17
ATOM     17  C   LIG    1        3.581  -1.050  -0.087  0.00  0.00    +0.201 C 
BRANCH  17  18
ATOM     18  O   LIG    1        4.316  -2.268  -0.113  0.00  0.00    -0.374 OA
BRANCH  18  19
ATOM     19  C   LIG    1        5.732  -2.130  -0.049  0.00  0.00    +0.187 C 
BRANCH  19  20
ATOM     20  C   LIG    1        6.223  -1.751   1.361  0.00  0.00    +0.184 C 
BRANCH  20  21
ATOM     21  O   LIG    1        7.634  -1.762   1.417  0.00  0.00    -0.393 OA
ATOM     22  H   LIG    1        7.907  -1.529   2.307  0.00  0.00    +0.209 HD
ENDBRANCH  20  21
ENDBRANCH  19  20
ENDBRANCH  18  19
ENDBRANCH  17  18
ENDBRANCH  16  17
ENDBRANCH  15  16
ENDBRANCH  12  15
ENDBRANCH   2   9
BRANCH   2  23
ATOM     23  C   LIG    1       -4.936   0.852  -0.998  0.00  0.00    -0.017 A 
ATOM     24  C   LIG    1       -4.700   0.655  -2.364  0.00  0.00    +0.008 A 
ATOM     25  C   LIG    1       -5.263   1.513  -3.305  0.00  0.00    +0.001 A 
ATOM     26  C   LIG    1       -6.059   2.574  -2.881  0.00  0.00    +0.000 A 
ATOM     27  C   LIG    1       -6.293   2.787  -1.525  0.00  0.00    +0.001 A 
ATOM     28  C   LIG    1       -5.730   1.929  -0.585  0.00  0.00    +0.008 A 
ENDBRANCH   2  23
BRANCH   1  29
ATOM     29  C   LIG    1       -6.605  -0.836   0.892  0.00  0.00    +0.052 C 
BRANCH  29  30
ATOM     30  C   LIG    1       -7.303  -1.283  -0.411  0.00  0.00    +0.113 C 
ATOM     31 CL   LIG    1       -6.718  -2.870  -0.980  0.00  0.00    -0.125 Cl
ENDBRANCH  29  30
ENDBRANCH   1  29
TORSDOF 12
