REMARK  Name = DB06635
REMARK                            x       y       z     vdW  Elec       q    Type
REMARK                         _______ _______ _______ _____ _____    ______ ____
ROOT
ATOM      1  C   LIG    1        1.399   0.055   0.216  0.00  0.00    +0.084 C 
ATOM      2  C   LIG    1        2.064   0.515  -1.102  0.00  0.00    +0.028 C 
ENDROOT
BRANCH   1   3
ATOM      3  N   LIG    1        1.914   0.794   1.375  0.00  0.00    -0.308 N 
ATOM      4  H   LIG    1        1.269   1.443   1.802  0.00  0.00    +0.149 HD
ATOM      5  C   LIG    1        3.139   0.669   1.924  0.00  0.00    +0.244 C 
ATOM      6  O   LIG    1        3.980  -0.128   1.505  0.00  0.00    -0.270 OA
BRANCH   5   7
ATOM      7  C   LIG    1        3.430   1.551   3.120  0.00  0.00    +0.037 A 
ATOM      8  C   LIG    1        2.659   2.689   3.399  0.00  0.00    +0.013 A 
ATOM      9  C   LIG    1        2.950   3.488   4.501  0.00  0.00    +0.005 A 
ATOM     10  C   LIG    1        4.015   3.174   5.352  0.00  0.00    -0.040 A 
ATOM     11  C   LIG    1        4.785   2.041   5.072  0.00  0.00    +0.005 A 
ATOM     12  C   LIG    1        4.499   1.240   3.970  0.00  0.00    +0.013 A 
BRANCH  10  13
ATOM     13  C   LIG    1        4.322   4.031   6.532  0.00  0.00    +0.015 C 
ATOM     14  C   LIG    1        4.659   3.461   7.769  0.00  0.00    +0.027 C 
ATOM     15  C   LIG    1        4.939   4.281   8.864  0.00  0.00    +0.109 C 
ATOM     16  N   LIG    1        4.886   5.622   8.724  0.00  0.00    -0.181 NA
ATOM     17  C   LIG    1        4.570   6.216   7.555  0.00  0.00    +0.109 C 
ATOM     18  C   LIG    1        4.282   5.431   6.437  0.00  0.00    +0.027 C 
BRANCH  16  19
ATOM     19  O   LIG    1        5.141   6.346   9.723  0.00  0.00    -0.312 OA
ATOM     20  H   LIG    1        5.064   7.280   9.473  0.00  0.00    +0.237 HD
ENDBRANCH  16  19
ENDBRANCH  10  13
ENDBRANCH   5   7
ENDBRANCH   1   3
BRANCH   1  21
ATOM     21  C   LIG    1       -0.160   0.044   0.158  0.00  0.00    +0.122 C 
BRANCH  21  22
ATOM     22  C   LIG    1       -0.756   1.426  -0.193  0.00  0.00    +0.312 C 
ATOM     23  O   LIG    1       -0.804   2.337   0.638  0.00  0.00    -0.250 OA
BRANCH  22  24
ATOM     24  O   LIG    1       -1.209   1.485  -1.462  0.00  0.00    -0.468 OA
ATOM     25  C   LIG    1       -1.795   2.677  -1.963  0.00  0.00    +0.280 C 
ENDBRANCH  22  24
ENDBRANCH  21  22
BRANCH  21  26
ATOM     26  C   LIG    1       -0.800  -0.571   1.437  0.00  0.00    +0.051 C 
BRANCH  26  27
ATOM     27  C   LIG    1       -2.317  -0.730   1.377  0.00  0.00    -0.046 A 
ATOM     28  C   LIG    1       -3.144   0.122   2.109  0.00  0.00    +0.004 A 
ATOM     29  C   LIG    1       -4.527  -0.019   2.039  0.00  0.00    +0.001 A 
ATOM     30  C   LIG    1       -5.088  -1.012   1.237  0.00  0.00    +0.016 A 
ATOM     31  C   LIG    1       -4.283  -1.890   0.485  0.00  0.00    +0.061 A 
ATOM     32  C   LIG    1       -2.886  -1.725   0.577  0.00  0.00    +0.019 A 
BRANCH  31  33
ATOM     33  C   LIG    1       -4.878  -2.938  -0.367  0.00  0.00    +0.266 C 
ATOM     34  N   LIG    1       -5.957  -2.659  -1.093  0.00  0.00    -0.288 N 
ATOM     35  H   LIG    1       -6.371  -3.371  -1.677  0.00  0.00    +0.301 HD
ATOM     36  H   LIG    1       -6.356  -1.732  -1.060  0.00  0.00    +0.301 HD
BRANCH  33  37
ATOM     37  N   LIG    1       -4.328  -4.149  -0.398  0.00  0.00    -0.250 N 
ATOM     38  H   LIG    1       -3.511  -4.341   0.163  0.00  0.00    +0.288 HD
ATOM     39  H   LIG    1       -4.732  -4.871  -0.977  0.00  0.00    +0.288 HD
ENDBRANCH  33  37
ENDBRANCH  31  33
ENDBRANCH  26  27
ENDBRANCH  21  26
ENDBRANCH   1  21
TORSDOF 11
