REMARK  Name = DB06457
REMARK                            x       y       z     vdW  Elec       q    Type
REMARK                         _______ _______ _______ _____ _____    ______ ____
ROOT
ATOM      1  N   LIG    1        0.043  -0.375  -0.024  0.00  0.00    -0.255 NA
ATOM      2  C   LIG    1       -0.816  -1.461  -0.035  0.00  0.00    +0.177 C 
ATOM      3  N   LIG    1       -2.101  -0.977  -0.061  0.00  0.00    -0.273 NA
ATOM      4  H   LIG    1       -2.910  -1.580  -0.077  0.00  0.00    +0.126 HD
ATOM      5  C   LIG    1       -2.079   0.408  -0.080  0.00  0.00    +0.066 C 
ATOM      6  C   LIG    1       -3.114   1.348  -0.114  0.00  0.00    +0.022 C 
ATOM      7  C   LIG    1       -2.739   2.693  -0.137  0.00  0.00    +0.002 C 
ATOM      8  C   LIG    1       -1.399   3.082  -0.127  0.00  0.00    +0.002 C 
ATOM      9  C   LIG    1       -0.362   2.148  -0.091  0.00  0.00    +0.022 C 
ATOM     10  C   LIG    1       -0.725   0.794  -0.066  0.00  0.00    +0.069 C 
ENDROOT
BRANCH   2  11
ATOM     11  N   LIG    1       -0.460  -2.778  -0.042  0.00  0.00    -0.280 NA
ATOM     12  H   LIG    1        0.522  -3.013  -0.075  0.00  0.00    +0.125 HD
BRANCH  11  13
ATOM     13  C   LIG    1       -1.404  -3.907   0.044  0.00  0.00    +0.053 C 
ATOM     14  C   LIG    1       -0.689  -5.216  -0.371  0.00  0.00    -0.001 C 
ATOM     15  C   LIG    1       -1.574  -6.462  -0.183  0.00  0.00    -0.081 C 
ATOM     16  N   LIG    1       -2.088  -6.515   1.266  0.00  0.00    +0.379 N 
ATOM     17  H   LIG    1       -2.667  -7.335   1.385  0.00  0.00    -0.086 HD
ATOM     18  H   LIG    1       -1.305  -6.612   1.897  0.00  0.00    -0.086 HD
ATOM     19  C   LIG    1       -2.897  -5.262   1.644  0.00  0.00    -0.081 C 
ATOM     20  C   LIG    1       -2.023  -4.007   1.463  0.00  0.00    -0.001 C 
ENDBRANCH  11  13
ENDBRANCH   2  11
BRANCH   1  21
ATOM     21  C   LIG    1        1.511  -0.427  -0.032  0.00  0.00    +0.123 C 
BRANCH  21  26
ATOM     22  F   LIG    1        3.919  -0.997  -5.130  0.00  0.00    -0.205 F 
ATOM     23  C   LIG    1        3.339  -0.857  -3.917  0.00  0.00    +0.123 A 
ATOM     24  C   LIG    1        2.253   0.002  -3.764  0.00  0.00    +0.038 A 
ATOM     25  C   LIG    1        1.656   0.147  -2.515  0.00  0.00    +0.008 A 
ATOM     26  C   LIG    1        2.142  -0.573  -1.416  0.00  0.00    -0.033 A 
ATOM     27  C   LIG    1        3.236  -1.428  -1.578  0.00  0.00    +0.008 A 
ATOM     28  C   LIG    1        3.833  -1.572  -2.828  0.00  0.00    +0.038 A 
ENDBRANCH  21  26
ENDBRANCH   1  21
TORSDOF 4
