REMARK  Name = DB06480
REMARK                            x       y       z     vdW  Elec       q    Type
REMARK                         _______ _______ _______ _____ _____    ______ ____
ROOT
ATOM      1  O   LIG    1       -4.663   0.799   2.912  0.00  0.00    -0.270 OA
ATOM      2  C   LIG    1       -5.044   0.650   1.749  0.00  0.00    +0.248 C 
ATOM      3  N   LIG    1       -4.201   0.634   0.697  0.00  0.00    -0.308 N 
ATOM      4  H   LIG    1       -4.587   0.458  -0.218  0.00  0.00    +0.149 HD
ENDROOT
BRANCH   2   5
ATOM      5  C   LIG    1       -6.514   0.511   1.425  0.00  0.00    +0.080 A 
ATOM      6  C   LIG    1       -6.943  -0.195   0.287  0.00  0.00    +0.038 A 
ATOM      7  C   LIG    1       -8.302  -0.322  -0.023  0.00  0.00    +0.063 A 
ATOM      8 CL   LIG    1       -8.742  -1.200  -1.450  0.00  0.00    -0.082 Cl
ATOM      9  C   LIG    1       -9.272   0.259   0.810  0.00  0.00    +0.050 A 
ATOM     10  C   LIG    1       -8.859   0.943   1.956  0.00  0.00    +0.020 A 
ATOM     11  C   LIG    1       -9.621   1.716   2.987  0.00  0.00    +0.081 C 
ATOM     12  C   LIG    1       -8.527   2.060   4.003  0.00  0.00    +0.234 C 
ATOM     13  O   LIG    1       -7.273   1.815   3.370  0.00  0.00    -0.491 OA
ATOM     14  C   LIG    1       -7.509   1.061   2.245  0.00  0.00    +0.138 A 
BRANCH   9  15
ATOM     15  N   LIG    1      -10.632   0.162   0.505  0.00  0.00    -0.357 N 
ATOM     16  H   LIG    1      -11.299   0.442   1.210  0.00  0.00    +0.142 HD
ATOM     17  H   LIG    1      -10.908  -0.470  -0.232  0.00  0.00    +0.142 HD
ENDBRANCH   9  15
ENDBRANCH   2   5
BRANCH   3  18
ATOM     18  C   LIG    1       -2.741   0.725   0.769  0.00  0.00    +0.076 C 
ATOM     19  C   LIG    1       -2.028  -0.503   1.378  0.00  0.00    +0.037 C 
ATOM     20  C   LIG    1       -0.490  -0.392   1.351  0.00  0.00    +0.086 C 
ATOM     21  N   LIG    1        0.023  -0.081   0.012  0.00  0.00    -0.302 NA
ATOM     22  C   LIG    1       -0.541   1.176  -0.498  0.00  0.00    +0.086 C 
ATOM     23  C   LIG    1       -2.082   1.139  -0.561  0.00  0.00    +0.037 C 
BRANCH  21  24
ATOM     24  C   LIG    1        1.490  -0.084   0.023  0.00  0.00    +0.086 C 
BRANCH  24  25
ATOM     25  C   LIG    1        2.113  -0.009  -1.389  0.00  0.00    +0.043 C 
BRANCH  25  26
ATOM     26  C   LIG    1        3.604  -0.378  -1.416  0.00  0.00    +0.160 C 
BRANCH  26  27
ATOM     27  O   LIG    1        4.335   0.507  -0.577  0.00  0.00    -0.383 OA
ATOM     28  C   LIG    1        5.727   0.231  -0.541  0.00  0.00    +0.193 C 
ENDBRANCH  26  27
ENDBRANCH  25  26
ENDBRANCH  24  25
ENDBRANCH  21  24
ENDBRANCH   3  18
TORSDOF 7
