REMARK  Name = DB06810
REMARK                            x       y       z     vdW  Elec       q    Type
REMARK                         _______ _______ _______ _____ _____    ______ ____
ROOT
ATOM      1  C   LIG    1       -0.800  -0.940   0.147  0.00  0.00    +0.198 C 
ATOM      2  C   LIG    1       -1.813   0.231   0.181  0.00  0.00    +0.066 C 
ATOM      3  C   LIG    1       -1.375   1.274  -0.868  0.00  0.00    +0.045 C 
ATOM      4  C   LIG    1       -1.286   0.658  -2.264  0.00  0.00    -0.032 A 
ATOM      5  C   LIG    1       -1.564   1.467  -3.359  0.00  0.00    +0.013 A 
ATOM      6  C   LIG    1       -1.493   0.994  -4.679  0.00  0.00    -0.007 A 
ATOM      7  C   LIG    1       -1.780   1.863  -5.753  0.00  0.00    +0.055 A 
ATOM      8  C   LIG    1       -1.716   1.431  -7.081  0.00  0.00    +0.131 A 
ATOM      9  C   LIG    1       -1.368   0.102  -7.348  0.00  0.00    +0.033 A 
ATOM     10  C   LIG    1       -1.288  -0.381  -8.799  0.00  0.00    +0.051 C 
ATOM     11  C   LIG    1       -1.079  -0.789  -6.301  0.00  0.00    +0.134 A 
ATOM     12  C   LIG    1       -1.132  -0.360  -4.926  0.00  0.00    +0.066 A 
ATOM     13  C   LIG    1       -0.852  -1.198  -3.787  0.00  0.00    +0.139 A 
ATOM     14  C   LIG    1       -0.933  -0.696  -2.460  0.00  0.00    +0.065 A 
ATOM     15  C   LIG    1       -0.692  -1.592  -1.250  0.00  0.00    +0.196 C 
ATOM     16  O   LIG    1       -0.446  -2.793  -1.353  0.00  0.00    -0.289 OA
ENDROOT
BRANCH  11  17
ATOM     17  O   LIG    1       -0.754  -2.084  -6.629  0.00  0.00    -0.506 OA
ATOM     18  H   LIG    1       -0.579  -2.623  -5.853  0.00  0.00    +0.292 HD
ENDBRANCH  11  17
BRANCH  13  19
ATOM     19  O   LIG    1       -0.498  -2.510  -4.004  0.00  0.00    -0.505 OA
ATOM     20  H   LIG    1       -0.330  -2.987  -3.187  0.00  0.00    +0.292 HD
ENDBRANCH  13  19
BRANCH   1  21
ATOM     21  O   LIG    1        0.484  -0.473   0.563  0.00  0.00    -0.340 OA
BRANCH  21  24
ATOM     22  C   LIG    1        3.623  -1.739   2.085  0.00  0.00    +0.157 C 
ATOM     23  C   LIG    1        2.668  -0.759   1.373  0.00  0.00    +0.095 C 
ATOM     24  C   LIG    1        1.289  -1.398   1.231  0.00  0.00    +0.254 C 
ATOM     25  O   LIG    1        0.786  -1.655   2.517  0.00  0.00    -0.346 OA
ATOM     26  C   LIG    1        1.528  -2.668   3.211  0.00  0.00    +0.149 C 
ATOM     27  C   LIG    1        0.805  -2.951   4.539  0.00  0.00    +0.041 C 
ATOM     28  C   LIG    1        3.002  -2.221   3.414  0.00  0.00    +0.172 C 
BRANCH  28  29
ATOM     29  O   LIG    1        3.779  -3.269   3.968  0.00  0.00    -0.387 OA
ATOM     30  H   LIG    1        3.534  -3.377   4.890  0.00  0.00    +0.210 HD
ENDBRANCH  28  29
BRANCH  22  31
ATOM     31  O   LIG    1        4.883  -1.119   2.351  0.00  0.00    -0.345 OA
BRANCH  31  34
ATOM     32  C   LIG    1        8.013  -0.119   0.624  0.00  0.00    +0.157 C 
ATOM     33  C   LIG    1        6.965  -0.202   1.749  0.00  0.00    +0.095 C 
ATOM     34  C   LIG    1        5.788  -1.068   1.289  0.00  0.00    +0.254 C 
ATOM     35  O   LIG    1        6.265  -2.356   0.978  0.00  0.00    -0.346 OA
ATOM     36  C   LIG    1        7.151  -2.370  -0.152  0.00  0.00    +0.149 C 
ATOM     37  C   LIG    1        7.439  -3.829  -0.546  0.00  0.00    +0.041 C 
ATOM     38  C   LIG    1        8.423  -1.538   0.161  0.00  0.00    +0.172 C 
BRANCH  38  39
ATOM     39  O   LIG    1        9.246  -2.180   1.121  0.00  0.00    -0.387 OA
ATOM     40  H   LIG    1        8.771  -2.211   1.954  0.00  0.00    +0.210 HD
ENDBRANCH  38  39
BRANCH  32  41
ATOM     41  O   LIG    1        9.123   0.671   1.052  0.00  0.00    -0.345 OA
BRANCH  41  42
ATOM     42  C   LIG    1        9.889   1.267   0.047  0.00  0.00    +0.254 C 
ATOM     43  C   LIG    1        9.418   2.719  -0.102  0.00  0.00    +0.098 C 
ATOM     44  C   LIG    1       10.249   3.459  -1.176  0.00  0.00    +0.096 C 
ATOM     45  C   LIG    1        9.877   4.958  -1.218  0.00  0.00    +0.044 C 
ATOM     46  C   LIG    1       11.766   3.269  -0.878  0.00  0.00    +0.174 C 
ATOM     47  C   LIG    1       12.107   1.778  -0.599  0.00  0.00    +0.149 C 
ATOM     48  C   LIG    1       13.555   1.566  -0.123  0.00  0.00    +0.041 C 
ATOM     49  O   LIG    1       11.241   1.258   0.419  0.00  0.00    -0.346 OA
BRANCH  44  50
ATOM     50  O   LIG    1        9.924   2.948  -2.461  0.00  0.00    -0.386 OA
ATOM     51  H   LIG    1       10.559   3.296  -3.092  0.00  0.00    +0.210 HD
ENDBRANCH  44  50
BRANCH  46  52
ATOM     52  O   LIG    1       12.596   3.805  -1.899  0.00  0.00    -0.386 OA
ATOM     53  H   LIG    1       13.497   3.847  -1.569  0.00  0.00    +0.210 HD
ENDBRANCH  46  52
ENDBRANCH  41  42
ENDBRANCH  32  41
ENDBRANCH  31  34
ENDBRANCH  22  31
ENDBRANCH  21  24
ENDBRANCH   1  21
BRANCH   2  54
ATOM     54  C   LIG    1       -3.312  -0.181   0.014  0.00  0.00    +0.193 C 
BRANCH  54  55
ATOM     55  O   LIG    1       -4.087   1.014   0.138  0.00  0.00    -0.372 OA
ATOM     56  C   LIG    1       -5.419   0.933  -0.361  0.00  0.00    +0.194 C 
ENDBRANCH  54  55
BRANCH  54  57
ATOM     57  C   LIG    1       -3.768  -1.230   1.064  0.00  0.00    +0.193 C 
ATOM     58  O   LIG    1       -3.943  -0.877   2.231  0.00  0.00    -0.292 OA
BRANCH  57  59
ATOM     59  C   LIG    1       -4.011  -2.711   0.668  0.00  0.00    +0.211 C 
BRANCH  59  60
ATOM     60  O   LIG    1       -4.048  -2.840  -0.745  0.00  0.00    -0.382 OA
ATOM     61  H   LIG    1       -3.147  -2.877  -1.075  0.00  0.00    +0.210 HD
ENDBRANCH  59  60
BRANCH  59  62
ATOM     62  C   LIG    1       -2.999  -3.741   1.260  0.00  0.00    +0.147 C 
ATOM     63  C   LIG    1       -2.745  -3.644   2.777  0.00  0.00    +0.041 C 
BRANCH  62  64
ATOM     64  O   LIG    1       -3.478  -5.050   1.011  0.00  0.00    -0.389 OA
ATOM     65  H   LIG    1       -4.319  -5.160   1.460  0.00  0.00    +0.210 HD
ENDBRANCH  62  64
ENDBRANCH  59  62
ENDBRANCH  57  59
ENDBRANCH  54  57
ENDBRANCH   2  54
BRANCH   8  66
ATOM     66  O   LIG    1       -2.003   2.254  -8.159  0.00  0.00    -0.463 OA
BRANCH  66  67
ATOM     67  C   LIG    1       -2.143   3.634  -7.985  0.00  0.00    +0.310 C 
ATOM     68  O   LIG    1       -3.385   3.938  -7.403  0.00  0.00    -0.336 OA
ATOM     69  C   LIG    1       -3.533   5.334  -7.114  0.00  0.00    +0.150 C 
ATOM     70  C   LIG    1       -4.846   5.511  -6.333  0.00  0.00    +0.041 C 
ATOM     71  C   LIG    1       -3.493   6.159  -8.430  0.00  0.00    +0.172 C 
ATOM     72  C   LIG    1       -2.254   5.788  -9.275  0.00  0.00    +0.158 C 
ATOM     73  C   LIG    1       -2.112   4.255  -9.382  0.00  0.00    +0.109 C 
BRANCH  71  74
ATOM     74  O   LIG    1       -3.509   7.549  -8.158  0.00  0.00    -0.387 OA
ATOM     75  H   LIG    1       -4.385   7.792  -7.851  0.00  0.00    +0.210 HD
ENDBRANCH  71  74
BRANCH  72  76
ATOM     76  O   LIG    1       -2.379   6.374 -10.572  0.00  0.00    -0.345 OA
BRANCH  76  77
ATOM     77  C   LIG    1       -1.190   6.604 -11.266  0.00  0.00    +0.254 C 
ATOM     78  C   LIG    1       -1.580   7.043 -12.679  0.00  0.00    +0.095 C 
ATOM     79  C   LIG    1       -0.310   7.318 -13.505  0.00  0.00    +0.150 C 
ATOM     80  C   LIG    1        0.626   8.298 -12.760  0.00  0.00    +0.172 C 
ATOM     81  C   LIG    1        0.815   7.862 -11.282  0.00  0.00    +0.149 C 
ATOM     82  C   LIG    1        1.568   8.905 -10.438  0.00  0.00    +0.041 C 
ATOM     83  O   LIG    1       -0.461   7.644 -10.665  0.00  0.00    -0.346 OA
BRANCH  79  84
ATOM     84  O   LIG    1       -0.656   7.784 -14.795  0.00  0.00    -0.389 OA
ATOM     85  H   LIG    1        0.117   8.202 -15.183  0.00  0.00    +0.210 HD
ENDBRANCH  79  84
BRANCH  80  86
ATOM     86  O   LIG    1        1.868   8.429 -13.430  0.00  0.00    -0.387 OA
ATOM     87  H   LIG    1        2.277   7.563 -13.491  0.00  0.00    +0.210 HD
ENDBRANCH  80  86
ENDBRANCH  76  77
ENDBRANCH  72  76
ENDBRANCH  66  67
ENDBRANCH   8  66
TORSDOF 26
