REMARK  Name = DB06538
REMARK                            x       y       z     vdW  Elec       q    Type
REMARK                         _______ _______ _______ _____ _____    ______ ____
ROOT
ATOM      1  C   LIG    1       -4.353  -1.130   2.157  0.00  0.00    +0.016 A 
ATOM      2  C   LIG    1       -2.959  -1.070   2.318  0.00  0.00    +0.043 A 
ATOM      3  C   LIG    1       -2.132  -0.898   1.179  0.00  0.00    +0.008 A 
ATOM      4  C   LIG    1       -0.600  -0.823   1.244  0.00  0.00    +0.028 C 
ATOM      5  C   LIG    1       -0.053  -0.134  -0.021  0.00  0.00    -0.025 C 
ATOM      6  C   LIG    1       -0.652  -0.833  -1.254  0.00  0.00    +0.214 C 
ATOM      7  O   LIG    1       -2.062  -0.595  -1.279  0.00  0.00    -0.490 OA
ATOM      8  C   LIG    1       -2.753  -0.803  -0.092  0.00  0.00    +0.159 A 
ATOM      9  C   LIG    1       -4.140  -0.870  -0.225  0.00  0.00    +0.165 A 
ATOM     10  F   LIG    1       -4.720  -0.771  -1.445  0.00  0.00    -0.202 F 
ATOM     11  C   LIG    1       -4.937  -1.033   0.900  0.00  0.00    +0.043 A 
ENDROOT
BRANCH   2  12
ATOM     12  C   LIG    1       -2.378  -1.228   3.708  0.00  0.00    +0.242 C 
ATOM     13  N   LIG    1       -3.031  -0.615   4.701  0.00  0.00    -0.325 N 
ATOM     14  H   LIG    1       -2.691  -0.685   5.649  0.00  0.00    +0.145 HD
ATOM     15  H   LIG    1       -3.862  -0.075   4.509  0.00  0.00    +0.145 HD
ATOM     16  O   LIG    1       -1.355  -1.880   3.914  0.00  0.00    -0.270 OA
ENDBRANCH   2  12
BRANCH   5  17
ATOM     17  N   LIG    1        1.509  -0.161  -0.080  0.00  0.00    +0.388 N 
ATOM     18  H   LIG    1        1.740   0.073  -1.035  0.00  0.00    -0.080 HD
BRANCH  17  19
ATOM     19  C   LIG    1        2.112   0.993   0.765  0.00  0.00    -0.068 C 
ATOM     20  C   LIG    1        3.563   1.416   0.489  0.00  0.00    -0.015 C 
ATOM     21  C   LIG    1        3.129   2.869   0.725  0.00  0.00    -0.003 C 
ATOM     22  C   LIG    1        1.689   2.432   0.425  0.00  0.00    -0.015 C 
ENDBRANCH  17  19
BRANCH  17  23
ATOM     23  C   LIG    1        2.206  -1.517   0.226  0.00  0.00    -0.068 C 
ATOM     24  C   LIG    1        1.922  -2.725  -0.682  0.00  0.00    -0.015 C 
ATOM     25  C   LIG    1        3.390  -3.132  -0.507  0.00  0.00    -0.003 C 
ATOM     26  C   LIG    1        3.690  -1.671  -0.148  0.00  0.00    -0.015 C 
ENDBRANCH  17  23
ENDBRANCH   5  17
TORSDOF 4
