REMARK  Name = DB06472
REMARK                            x       y       z     vdW  Elec       q    Type
REMARK                         _______ _______ _______ _____ _____    ______ ____
ROOT
ATOM      1  C   LIG    1       -2.901   0.120   0.041  0.00  0.00    -0.018 A 
ATOM      2  C   LIG    1       -2.226   1.346   0.079  0.00  0.00    +0.012 A 
ATOM      3  C   LIG    1       -0.835   1.393   0.090  0.00  0.00    +0.046 A 
ATOM      4  C   LIG    1       -0.089   0.206   0.064  0.00  0.00    +0.121 A 
ATOM      5  C   LIG    1       -0.758  -1.016   0.028  0.00  0.00    +0.046 A 
ATOM      6  C   LIG    1       -2.150  -1.061   0.015  0.00  0.00    +0.012 A 
ENDROOT
BRANCH   1   8
ATOM      7  C   LIG    1       -5.140   0.911   0.857  0.00  0.00    +0.009 A 
ATOM      8  C   LIG    1       -4.391   0.072   0.027  0.00  0.00    -0.018 A 
ATOM      9  C   LIG    1       -5.069  -0.814  -0.816  0.00  0.00    +0.009 A 
ATOM     10  C   LIG    1       -6.461  -0.859  -0.829  0.00  0.00    +0.016 A 
ATOM     11  C   LIG    1       -7.226  -0.020   0.002  0.00  0.00    +0.061 A 
ATOM     12  C   LIG    1       -6.532   0.866   0.846  0.00  0.00    +0.016 A 
BRANCH  11  13
ATOM     13  C   LIG    1       -8.702  -0.068  -0.012  0.00  0.00    +0.266 C 
ATOM     14  N   LIG    1       -9.321  -1.243  -0.082  0.00  0.00    -0.288 N 
ATOM     15  H   LIG    1      -10.329  -1.283  -0.091  0.00  0.00    +0.301 HD
ATOM     16  H   LIG    1       -8.776  -2.093  -0.121  0.00  0.00    +0.301 HD
BRANCH  13  17
ATOM     17  N   LIG    1       -9.396   1.065   0.046  0.00  0.00    -0.250 N 
ATOM     18  H   LIG    1       -8.908   1.948   0.095  0.00  0.00    +0.288 HD
ATOM     19  H   LIG    1      -10.405   1.040   0.037  0.00  0.00    +0.288 HD
ENDBRANCH  13  17
ENDBRANCH  11  13
ENDBRANCH   1   8
BRANCH   4  20
ATOM     20  O   LIG    1        1.291   0.151   0.072  0.00  0.00    -0.490 OA
BRANCH  20  21
ATOM     21  C   LIG    1        2.046   1.362   0.054  0.00  0.00    +0.251 C 
BRANCH  21  22
ATOM     22  C   LIG    1        3.562   1.064   0.028  0.00  0.00    +0.111 C 
ATOM     23  N   LIG    1        3.976   0.293   1.197  0.00  0.00    -0.309 N 
ATOM     24  H   LIG    1        3.944   0.691   2.124  0.00  0.00    +0.149 HD
ATOM     25  C   LIG    1        4.297  -0.996   0.977  0.00  0.00    +0.217 C 
ATOM     26  O   LIG    1        4.642  -1.830   1.812  0.00  0.00    -0.275 OA
ATOM     27  C   LIG    1        4.101  -1.227  -0.530  0.00  0.00    +0.087 C 
ATOM     28  C   LIG    1        4.007   0.174  -1.127  0.00  0.00    +0.039 C 
BRANCH  27  29
ATOM     29  C   LIG    1        5.234  -2.131  -1.108  0.00  0.00    +0.133 C 
BRANCH  29  30
ATOM     30  C   LIG    1        5.083  -2.485  -2.608  0.00  0.00    +0.305 C 
ATOM     31  O   LIG    1        6.137  -2.754  -3.228  0.00  0.00    -0.251 OA
BRANCH  30  32
ATOM     32  O   LIG    1        3.940  -2.525  -3.120  0.00  0.00    -0.481 OA
ATOM     33  H   LIG    1        3.188  -2.312  -2.604  0.00  0.00    +0.295 HD
ENDBRANCH  30  32
ENDBRANCH  29  30
ENDBRANCH  27  29
ENDBRANCH  21  22
ENDBRANCH  20  21
ENDBRANCH   4  20
TORSDOF 9
