REMARK  Name = DB06374
REMARK                            x       y       z     vdW  Elec       q    Type
REMARK                         _______ _______ _______ _____ _____    ______ ____
ROOT
ATOM      1  C   LIG    1       -0.821  -1.337  -0.071  0.00  0.00    +0.037 A 
ATOM      2  C   LIG    1       -1.150  -2.097  -1.201  0.00  0.00    +0.069 A 
ATOM      3  C   LIG    1       -1.754  -3.349  -1.099  0.00  0.00    +0.122 A 
ATOM      4  C   LIG    1       -2.048  -3.846   0.177  0.00  0.00    +0.046 A 
ATOM      5  C   LIG    1       -1.731  -3.106   1.312  0.00  0.00    +0.009 A 
ATOM      6  C   LIG    1       -1.104  -1.855   1.217  0.00  0.00    -0.023 A 
ENDROOT
BRANCH   6   7
ATOM      7  C   LIG    1       -0.762  -1.111   2.520  0.00  0.00    +0.025 C 
ATOM      8  C   LIG    1       -0.016  -1.987   3.551  0.00  0.00    +0.013 C 
ATOM      9  C   LIG    1        0.480  -1.130   4.734  0.00  0.00    +0.036 C 
ATOM     10  C   LIG    1       -0.547  -0.109   5.237  0.00  0.00    -0.041 A 
ATOM     11  C   LIG    1       -0.325   0.555   6.449  0.00  0.00    +0.049 A 
ATOM     12  C   LIG    1       -1.189   1.551   6.897  0.00  0.00    +0.117 A 
ATOM     13  C   LIG    1       -2.295   1.901   6.130  0.00  0.00    +0.045 A 
ATOM     14  C   LIG    1       -2.538   1.242   4.928  0.00  0.00    +0.007 A 
ATOM     15  C   LIG    1       -1.688   0.228   4.471  0.00  0.00    -0.043 A 
ATOM     16  C   LIG    1       -2.026  -0.539   3.193  0.00  0.00    +0.043 C 
BRANCH  12  17
ATOM     17  O   LIG    1       -0.948   2.190   8.085  0.00  0.00    -0.507 OA
ATOM     18  H   LIG    1       -0.163   1.866   8.533  0.00  0.00    +0.292 HD
ENDBRANCH  12  17
ENDBRANCH   6   7
BRANCH   3  19
ATOM     19  O   LIG    1       -2.022  -4.010  -2.281  0.00  0.00    -0.495 OA
ATOM     20  C   LIG    1       -2.648  -5.288  -2.234  0.00  0.00    +0.277 C 
ENDBRANCH   3  19
BRANCH   1  21
ATOM     21  N   LIG    1       -0.211  -0.087  -0.336  0.00  0.00    -0.326 N 
BRANCH  21  22
ATOM     22  C   LIG    1       -1.022   1.076   0.038  0.00  0.00    +0.102 C 
ATOM     23  C   LIG    1       -0.794   2.301  -0.862  0.00  0.00    +0.024 C 
ENDBRANCH  21  22
BRANCH  21  24
ATOM     24  C   LIG    1        1.245   0.019  -0.131  0.00  0.00    +0.140 C 
BRANCH  24  25
ATOM     25  C   LIG    1        2.015  -1.196  -0.641  0.00  0.00    -0.030 A 
ATOM     26  C   LIG    1        2.442  -2.171   0.263  0.00  0.00    +0.005 A 
ATOM     27  C   LIG    1        3.050  -3.332  -0.203  0.00  0.00    +0.004 A 
ATOM     28  C   LIG    1        3.226  -3.523  -1.576  0.00  0.00    -0.046 A 
ATOM     29  C   LIG    1        2.821  -2.537  -2.479  0.00  0.00    +0.004 A 
ATOM     30  C   LIG    1        2.216  -1.374  -2.012  0.00  0.00    +0.005 A 
BRANCH  28  31
ATOM     31  C   LIG    1        3.822  -4.828  -2.088  0.00  0.00    +0.050 C 
BRANCH  31  32
ATOM     32  C   LIG    1        2.757  -5.864  -2.503  0.00  0.00    +0.085 C 
BRANCH  32  33
ATOM     33  N   LIG    1        1.993  -6.312  -1.345  0.00  0.00    -0.316 NA
ATOM     34  H   LIG    1        2.609  -6.737  -0.667  0.00  0.00    +0.122 HD
BRANCH  33  35
ATOM     35  C   LIG    1        0.952  -7.252  -1.731  0.00  0.00    +0.077 C 
ATOM     36  C   LIG    1        0.158  -7.672  -0.488  0.00  0.00    +0.020 C 
ENDBRANCH  33  35
ENDBRANCH  32  33
ENDBRANCH  31  32
ENDBRANCH  28  31
ENDBRANCH  24  25
ENDBRANCH  21  24
ENDBRANCH   1  21
TORSDOF 11
