REMARK  Name = DB06769
REMARK                            x       y       z     vdW  Elec       q    Type
REMARK                         _______ _______ _______ _____ _____    ______ ____
ROOT
ATOM      1  C   LIG    1       -0.800  -1.280  -0.072  0.00  0.00    +0.053 A 
ATOM      2  C   LIG    1       -2.195  -1.151  -0.087  0.00  0.00    +0.091 A 
ATOM      3  N   LIG    1       -3.139  -2.069  -0.453  0.00  0.00    -0.232 NA
ATOM      4  C   LIG    1       -4.291  -1.464  -0.284  0.00  0.00    +0.111 A 
ATOM      5  N   LIG    1       -4.152  -0.162   0.170  0.00  0.00    -0.331 N 
ATOM      6  C   LIG    1       -5.213   0.772   0.524  0.00  0.00    +0.150 C 
ATOM      7  C   LIG    1       -2.797   0.058   0.328  0.00  0.00    +0.069 A 
ATOM      8  C   LIG    1       -2.041   1.144   0.775  0.00  0.00    +0.030 A 
ATOM      9  C   LIG    1       -0.653   0.983   0.782  0.00  0.00    +0.025 A 
ATOM     10  C   LIG    1       -0.017  -0.199   0.362  0.00  0.00    +0.032 A 
ENDROOT
BRANCH   4  11
ATOM     11  C   LIG    1       -5.652  -2.114  -0.529  0.00  0.00    +0.075 C 
BRANCH  11  12
ATOM     12  C   LIG    1       -5.618  -3.539  -1.126  0.00  0.00    +0.019 C 
BRANCH  12  13
ATOM     13  C   LIG    1       -5.162  -3.590  -2.602  0.00  0.00    +0.121 C 
BRANCH  13  14
ATOM     14  C   LIG    1       -5.049  -5.022  -3.131  0.00  0.00    +0.305 C 
ATOM     15  O   LIG    1       -3.975  -5.590  -3.316  0.00  0.00    -0.251 OA
BRANCH  14  16
ATOM     16  O   LIG    1       -6.275  -5.572  -3.368  0.00  0.00    -0.481 OA
ATOM     17  H   LIG    1       -6.210  -6.470  -3.701  0.00  0.00    +0.295 HD
ENDBRANCH  14  16
ENDBRANCH  13  14
ENDBRANCH  12  13
ENDBRANCH  11  12
ENDBRANCH   4  11
BRANCH  10  18
ATOM     18  N   LIG    1        1.396  -0.328   0.380  0.00  0.00    -0.328 N 
BRANCH  18  19
ATOM     19  C   LIG    1        2.026  -0.766  -0.875  0.00  0.00    +0.121 C 
BRANCH  19  20
ATOM     20  C   LIG    1        2.188   0.365  -1.904  0.00  0.00    +0.127 C 
ATOM     21 CL   LIG    1        2.963  -0.253  -3.385  0.00  0.00    -0.124 Cl
ENDBRANCH  19  20
ENDBRANCH  18  19
BRANCH  18  22
ATOM     22  C   LIG    1        2.164   0.525   1.301  0.00  0.00    +0.121 C 
BRANCH  22  23
ATOM     23  C   LIG    1        3.583   0.032   1.645  0.00  0.00    +0.127 C 
ATOM     24 CL   LIG    1        3.545  -1.571   2.431  0.00  0.00    -0.124 Cl
ENDBRANCH  22  23
ENDBRANCH  18  22
ENDBRANCH  10  18
TORSDOF 10
