REMARK  Name = DB06210
REMARK                            x       y       z     vdW  Elec       q    Type
REMARK                         _______ _______ _______ _____ _____    ______ ____
ROOT
ATOM      1  C   LIG    1       -2.241   3.579   0.404  0.00  0.00    +0.012 A 
ATOM      2  C   LIG    1       -0.856   3.530   0.521  0.00  0.00    +0.003 A 
ATOM      3  C   LIG    1       -0.195   2.308   0.450  0.00  0.00    +0.028 A 
ATOM      4  C   LIG    1       -0.911   1.118   0.265  0.00  0.00    +0.090 A 
ATOM      5  C   LIG    1       -2.313   1.176   0.151  0.00  0.00    +0.147 A 
ATOM      6  C   LIG    1       -2.990   2.412   0.211  0.00  0.00    +0.025 A 
ENDROOT
BRANCH   6   7
ATOM      7  C   LIG    1       -4.472   2.519   0.079  0.00  0.00    -0.014 A 
ATOM      8  C   LIG    1       -5.138   1.963  -1.020  0.00  0.00    +0.008 A 
ATOM      9  C   LIG    1       -6.521   2.072  -1.144  0.00  0.00    +0.001 A 
ATOM     10  C   LIG    1       -7.258   2.745  -0.172  0.00  0.00    +0.015 A 
ATOM     11  C   LIG    1       -6.621   3.317   0.938  0.00  0.00    +0.059 A 
ATOM     12  C   LIG    1       -5.226   3.197   1.047  0.00  0.00    +0.023 A 
BRANCH  11  13
ATOM     13  C   LIG    1       -7.434   4.046   1.984  0.00  0.00    +0.337 C 
ATOM     14  O   LIG    1       -8.655   4.168   1.901  0.00  0.00    -0.245 OA
BRANCH  13  15
ATOM     15  O   LIG    1       -6.713   4.556   3.027  0.00  0.00    -0.477 OA
ATOM     16  H   LIG    1       -7.270   5.007   3.664  0.00  0.00    +0.295 HD
ENDBRANCH  13  15
ENDBRANCH  11  13
ENDBRANCH   6   7
BRANCH   4  17
ATOM     17  N   LIG    1       -0.250  -0.121   0.199  0.00  0.00    -0.233 N 
ATOM     18  H   LIG    1       -0.784  -0.971   0.076  0.00  0.00    +0.175 HD
BRANCH  17  19
ATOM     19  N   LIG    1        1.142  -0.315   0.263  0.00  0.00    -0.175 NA
ATOM     20  C   LIG    1        1.645  -1.489   0.176  0.00  0.00    +0.168 C 
ATOM     21  C   LIG    1        1.009  -2.784   0.015  0.00  0.00    +0.292 C 
ATOM     22  O   LIG    1       -0.201  -3.011  -0.055  0.00  0.00    -0.266 OA
ATOM     23  N   LIG    1        2.041  -3.660  -0.016  0.00  0.00    -0.155 N 
ATOM     24  N   LIG    1        3.247  -3.067   0.117  0.00  0.00    -0.175 NA
ATOM     25  C   LIG    1        3.091  -1.821   0.229  0.00  0.00    +0.089 C 
ATOM     26  C   LIG    1        4.202  -0.802   0.404  0.00  0.00    +0.070 C 
BRANCH  23  27
ATOM     27  C   LIG    1        1.989  -5.079  -0.163  0.00  0.00    +0.061 A 
ATOM     28  C   LIG    1        3.024  -5.887   0.337  0.00  0.00    +0.026 A 
ATOM     29  C   LIG    1        2.981  -7.273   0.203  0.00  0.00    +0.005 A 
ATOM     30  C   LIG    1        1.906  -7.892  -0.438  0.00  0.00    -0.047 A 
ATOM     31  C   LIG    1        1.892  -9.409  -0.564  0.00  0.00    +0.044 C 
ATOM     32  C   LIG    1        0.864  -7.104  -0.953  0.00  0.00    -0.046 A 
ATOM     33  C   LIG    1       -0.325  -7.734  -1.666  0.00  0.00    +0.044 C 
ATOM     34  C   LIG    1        0.915  -5.713  -0.813  0.00  0.00    +0.029 A 
ENDBRANCH  23  27
ENDBRANCH  17  19
ENDBRANCH   4  17
BRANCH   5  35
ATOM     35  O   LIG    1       -3.032   0.012  -0.003  0.00  0.00    -0.504 OA
ATOM     36  H   LIG    1       -3.979   0.163  -0.045  0.00  0.00    +0.292 HD
ENDBRANCH   5  35
TORSDOF 7
