REMARK  Name = DB06421
REMARK                            x       y       z     vdW  Elec       q    Type
REMARK                         _______ _______ _______ _____ _____    ______ ____
ROOT
ATOM      1  N   LIG    1        3.317  -0.984  -1.501  0.00  0.00    -0.313 N 
ATOM      2  H   LIG    1        4.079  -0.772  -2.129  0.00  0.00    +0.149 HD
ATOM      3  C   LIG    1        3.616  -1.368  -0.243  0.00  0.00    +0.244 C 
ATOM      4  O   LIG    1        2.750  -1.677   0.579  0.00  0.00    -0.270 OA
ENDROOT
BRANCH   3   5
ATOM      5  C   LIG    1        5.083  -1.380   0.135  0.00  0.00    +0.038 A 
ATOM      6  C   LIG    1        6.099  -1.190  -0.818  0.00  0.00    +0.035 A 
ATOM      7  C   LIG    1        7.446  -1.202  -0.450  0.00  0.00    +0.062 A 
ATOM      8 CL   LIG    1        8.644  -0.960  -1.678  0.00  0.00    -0.082 Cl
ATOM      9  C   LIG    1        7.800  -1.410   0.890  0.00  0.00    +0.043 A 
ATOM     10  C   LIG    1        6.801  -1.602   1.844  0.00  0.00    +0.025 A 
ATOM     11  C   LIG    1        5.458  -1.588   1.471  0.00  0.00    +0.015 A 
BRANCH   9  12
ATOM     12  N   LIG    1        9.136  -1.430   1.297  0.00  0.00    -0.357 N 
ATOM     13  H   LIG    1        9.343  -1.462   2.285  0.00  0.00    +0.142 HD
ATOM     14  H   LIG    1        9.846  -1.148   0.635  0.00  0.00    +0.142 HD
ENDBRANCH   9  12
ENDBRANCH   3   5
BRANCH   1  15
ATOM     15  C   LIG    1        1.968  -0.856  -2.054  0.00  0.00    +0.086 C 
BRANCH  15  16
ATOM     16  C   LIG    1        1.224   0.415  -1.579  0.00  0.00    -0.060 C 
BRANCH  16  17
ATOM     17  N   LIG    1        0.380   0.120  -0.312  0.00  0.00    +0.380 N 
ATOM     18  H   LIG    1        0.909  -0.550   0.230  0.00  0.00    -0.082 HD
BRANCH  17  20
ATOM     19  C   LIG    1       -1.487  -1.381   0.531  0.00  0.00    -0.017 C 
ATOM     20  C   LIG    1       -0.967  -0.561  -0.661  0.00  0.00    -0.082 C 
ENDBRANCH  17  20
BRANCH  17  21
ATOM     21  C   LIG    1        0.204   1.367   0.591  0.00  0.00    -0.082 C 
ATOM     22  C   LIG    1        1.491   1.640   1.389  0.00  0.00    -0.017 C 
ENDBRANCH  17  21
ENDBRANCH  16  17
ENDBRANCH  15  16
ENDBRANCH   1  15
TORSDOF 7
