REMARK  Name = DB06240
REMARK                            x       y       z     vdW  Elec       q    Type
REMARK                         _______ _______ _______ _____ _____    ______ ____
ROOT
ATOM      1  N   LIG    1        1.347  -0.103  -0.027  0.00  0.00    -0.281 N 
ATOM      2  H   LIG    1        1.810   0.788   0.069  0.00  0.00    +0.155 HD
ATOM      3  C   LIG    1        2.150  -1.180  -0.191  0.00  0.00    +0.250 C 
ATOM      4  O   LIG    1        1.753  -2.329  -0.389  0.00  0.00    -0.270 OA
ENDROOT
BRANCH   1   8
ATOM      5  C   LIG    1       -2.835   0.297   0.051  0.00  0.00    -0.049 A 
ATOM      6  C   LIG    1       -2.001   1.403  -0.121  0.00  0.00    +0.005 A 
ATOM      7  C   LIG    1       -0.618   1.236  -0.143  0.00  0.00    +0.023 A 
ATOM      8  C   LIG    1       -0.060  -0.037  -0.001  0.00  0.00    +0.034 A 
ATOM      9  C   LIG    1       -0.902  -1.146   0.184  0.00  0.00    +0.023 A 
ATOM     10  C   LIG    1       -2.283  -0.975   0.205  0.00  0.00    +0.005 A 
BRANCH   5  11
ATOM     11  C   LIG    1       -4.346   0.476   0.072  0.00  0.00    +0.016 C 
BRANCH  11  12
ATOM     12  C   LIG    1       -4.953   0.465  -1.346  0.00  0.00    -0.074 C 
BRANCH  12  18
ATOM     13  C   LIG    1      -11.505   1.539  -0.916  0.00  0.00    +0.162 A 
ATOM     14  C   LIG    1      -10.864   2.304   0.063  0.00  0.00    +0.162 A 
ATOM     15  C   LIG    1       -9.463   2.275   0.143  0.00  0.00    +0.051 A 
ATOM     16  C   LIG    1       -8.685   1.502  -0.724  0.00  0.00    -0.057 A 
ATOM     17  C   LIG    1       -7.158   1.558  -0.610  0.00  0.00    -0.043 C 
ATOM     18  N   LIG    1       -6.497   0.343  -1.305  0.00  0.00    +0.383 N 
ATOM     19  H   LIG    1       -6.738  -0.493  -0.792  0.00  0.00    -0.081 HD
ATOM     20  C   LIG    1       -7.053   0.180  -2.734  0.00  0.00    -0.074 C 
ATOM     21  C   LIG    1       -8.541  -0.195  -2.631  0.00  0.00    +0.017 C 
ATOM     22  C   LIG    1       -9.335   0.717  -1.698  0.00  0.00    -0.044 A 
ATOM     23  C   LIG    1      -10.729   0.757  -1.785  0.00  0.00    +0.053 A 
BRANCH  13  25
ATOM     24  C   LIG    1      -13.593   0.833  -1.931  0.00  0.00    +0.277 C 
ATOM     25  O   LIG    1      -12.887   1.600  -0.961  0.00  0.00    -0.491 OA
ENDBRANCH  13  25
BRANCH  14  26
ATOM     26  O   LIG    1      -11.667   3.056   0.903  0.00  0.00    -0.491 OA
ATOM     27  C   LIG    1      -11.071   3.845   1.927  0.00  0.00    +0.277 C 
ENDBRANCH  14  26
ENDBRANCH  12  18
ENDBRANCH  11  12
ENDBRANCH   5  11
ENDBRANCH   1   8
BRANCH   3  28
ATOM     28  C   LIG    1        3.637  -0.890  -0.115  0.00  0.00    +0.062 A 
ATOM     29  C   LIG    1        4.540  -1.742   0.560  0.00  0.00    +0.050 A 
ATOM     30  C   LIG    1        5.904  -1.418   0.588  0.00  0.00    +0.073 A 
ATOM     31  C   LIG    1        6.401  -0.280  -0.063  0.00  0.00    +0.163 A 
ATOM     32  C   LIG    1        5.513   0.564  -0.739  0.00  0.00    +0.162 A 
ATOM     33  C   LIG    1        4.144   0.250  -0.756  0.00  0.00    +0.064 A 
BRANCH  29  34
ATOM     34  N   LIG    1        4.067  -2.867   1.268  0.00  0.00    -0.281 N 
ATOM     35  H   LIG    1        3.160  -2.754   1.696  0.00  0.00    +0.155 HD
ATOM     36  C   LIG    1        4.622  -4.100   1.324  0.00  0.00    +0.250 C 
ATOM     37  O   LIG    1        5.675  -4.402   0.757  0.00  0.00    -0.270 OA
BRANCH  36  38
ATOM     38  C   LIG    1        3.871  -5.128   2.144  0.00  0.00    +0.056 A 
ATOM     39  C   LIG    1        2.585  -4.889   2.651  0.00  0.00    +0.124 A 
ATOM     40  N   LIG    1        1.880  -5.778   3.393  0.00  0.00    -0.254 NA
ATOM     41  C   LIG    1        2.446  -6.984   3.669  0.00  0.00    +0.071 A 
ATOM     42  C   LIG    1        1.722  -7.920   4.447  0.00  0.00    +0.028 A 
ATOM     43  C   LIG    1        2.279  -9.161   4.746  0.00  0.00    +0.002 A 
ATOM     44  C   LIG    1        3.548  -9.499   4.284  0.00  0.00    +0.001 A 
ATOM     45  C   LIG    1        4.286  -8.601   3.515  0.00  0.00    +0.010 A 
ATOM     46  C   LIG    1        3.748  -7.330   3.196  0.00  0.00    +0.001 A 
ATOM     47  C   LIG    1        4.451  -6.373   2.423  0.00  0.00    +0.024 A 
ENDBRANCH  36  38
ENDBRANCH  29  34
BRANCH  31  48
ATOM     48  O   LIG    1        7.739   0.074  -0.076  0.00  0.00    -0.491 OA
ATOM     49  C   LIG    1        8.695  -0.764   0.565  0.00  0.00    +0.277 C 
ENDBRANCH  31  48
BRANCH  32  50
ATOM     50  O   LIG    1        6.054   1.677  -1.360  0.00  0.00    -0.491 OA
ATOM     51  C   LIG    1        5.203   2.575  -2.064  0.00  0.00    +0.277 C 
ENDBRANCH  32  50
ENDBRANCH   3  28
TORSDOF 11
