REMARK  Name = DB06682
REMARK                            x       y       z     vdW  Elec       q    Type
REMARK                         _______ _______ _______ _____ _____    ______ ____
ROOT
ATOM      1  C   LIG    1       -2.505   2.874   0.710  0.00  0.00    +0.024 C 
ATOM      2  C   LIG    1       -1.870   1.598   0.115  0.00  0.00    +0.125 C 
ENDROOT
BRANCH   2   3
ATOM      3  C   LIG    1       -2.245   1.417  -1.361  0.00  0.00    -0.033 A 
ATOM      4  C   LIG    1       -1.746   2.272  -2.352  0.00  0.00    +0.013 A 
ATOM      5  C   LIG    1       -2.116   2.105  -3.709  0.00  0.00    -0.017 A 
ATOM      6  C   LIG    1       -1.622   2.954  -4.728  0.00  0.00    +0.012 A 
ATOM      7  C   LIG    1       -2.009   2.765  -6.052  0.00  0.00    +0.046 A 
ATOM      8  C   LIG    1       -2.892   1.737  -6.409  0.00  0.00    +0.121 A 
ATOM      9  C   LIG    1       -3.387   0.891  -5.417  0.00  0.00    +0.054 A 
ATOM     10  C   LIG    1       -3.015   1.055  -4.060  0.00  0.00    -0.014 A 
ATOM     11  C   LIG    1       -3.515   0.209  -3.041  0.00  0.00    +0.009 A 
ATOM     12  C   LIG    1       -3.132   0.400  -1.716  0.00  0.00    +0.005 A 
BRANCH   8  13
ATOM     13  O   LIG    1       -3.321   1.490  -7.699  0.00  0.00    -0.495 OA
ATOM     14  C   LIG    1       -2.861   2.325  -8.757  0.00  0.00    +0.277 C 
ENDBRANCH   8  13
ENDBRANCH   2   3
BRANCH   2  15
ATOM     15  C   LIG    1       -0.337   1.544   0.281  0.00  0.00    +0.314 C 
ATOM     16  O   LIG    1        0.342   2.555   0.477  0.00  0.00    -0.250 OA
BRANCH  15  17
ATOM     17  O   LIG    1        0.135   0.283   0.196  0.00  0.00    -0.464 OA
BRANCH  17  18
ATOM     18  C   LIG    1        1.528   0.018   0.301  0.00  0.00    +0.232 C 
BRANCH  18  19
ATOM     19  C   LIG    1        1.795  -1.482   0.094  0.00  0.00    +0.044 C 
BRANCH  19  20
ATOM     20  C   LIG    1        1.427  -1.982  -1.317  0.00  0.00    +0.047 C 
BRANCH  20  21
ATOM     21  C   LIG    1        1.671  -3.486  -1.515  0.00  0.00    +0.267 C 
BRANCH  21  22
ATOM     22  O   LIG    1        3.064  -3.768  -1.351  0.00  0.00    -0.354 OA
BRANCH  22  23
ATOM     23  N   LIG    1        3.412  -5.151  -1.484  0.00  0.00    +0.171 N 
ATOM     24  O   LIG    1        4.593  -5.344  -1.330  0.00  0.00    -0.094 OA
BRANCH  23  25
ATOM     25  O   LIG    1        2.523  -5.938  -1.725  0.00  0.00    -0.370 OA
ATOM     26  H   LIG    1        1.642  -5.635  -1.818  0.00  0.00    +0.332 HD
ENDBRANCH  23  25
ENDBRANCH  22  23
ENDBRANCH  21  22
ENDBRANCH  20  21
ENDBRANCH  19  20
ENDBRANCH  18  19
ENDBRANCH  17  18
ENDBRANCH  15  17
ENDBRANCH   2  15
TORSDOF 11
