REMARK  Name = DB06781
REMARK                            x       y       z     vdW  Elec       q    Type
REMARK                         _______ _______ _______ _____ _____    ______ ____
ROOT
ATOM      1  C   LIG    1        1.769   0.150   0.268  0.00  0.00    +0.180 C 
ATOM      2  C   LIG    1        2.337  -1.325   0.203  0.00  0.00    +0.021 C 
ATOM      3  C   LIG    1        3.846  -1.365   0.632  0.00  0.00    +0.016 C 
ATOM      4  C   LIG    1        1.520  -2.423   0.957  0.00  0.00    +0.045 C 
ATOM      5  C   LIG    1        1.933  -3.880   0.594  0.00  0.00    +0.154 C 
ATOM      6  C   LIG    1        1.937  -4.141  -0.962  0.00  0.00    +0.153 C 
ATOM      7  F   LIG    1        0.638  -4.060  -1.289  0.00  0.00    -0.238 F 
ATOM      8  C   LIG    1        2.402  -5.583  -1.434  0.00  0.00    +0.047 C 
ATOM      9  C   LIG    1        3.887  -5.923  -1.122  0.00  0.00    +0.023 C 
ATOM     10  C   LIG    1        1.562  -6.691  -0.774  0.00  0.00    -0.009 C 
ATOM     11  C   LIG    1        0.808  -7.597  -1.427  0.00  0.00    +0.047 C 
ATOM     12  C   LIG    1        0.680  -7.653  -2.879  0.00  0.00    +0.179 C 
ATOM     13  O   LIG    1       -0.000  -8.495  -3.462  0.00  0.00    -0.288 OA
ATOM     14  C   LIG    1        1.434  -6.610  -3.575  0.00  0.00    +0.054 C 
ATOM     15  C   LIG    1        2.210  -5.669  -2.979  0.00  0.00    -0.020 C 
ATOM     16  C   LIG    1        2.962  -4.580  -3.762  0.00  0.00    +0.194 C 
ATOM     17  F   LIG    1        2.730  -4.700  -5.072  0.00  0.00    -0.241 F 
ATOM     18  C   LIG    1        2.476  -3.199  -3.292  0.00  0.00    +0.048 C 
ATOM     19  C   LIG    1        2.651  -2.993  -1.768  0.00  0.00    +0.037 C 
ATOM     20  C   LIG    1        2.137  -1.597  -1.311  0.00  0.00    +0.006 C 
ATOM     21  C   LIG    1        2.639  -0.331  -2.019  0.00  0.00    +0.009 C 
ATOM     22  C   LIG    1        2.409   0.808  -1.005  0.00  0.00    +0.057 C 
ENDROOT
BRANCH   1  23
ATOM     23  C   LIG    1        2.112   0.885   1.611  0.00  0.00    +0.214 C 
ATOM     24  O   LIG    1        3.052   1.681   1.677  0.00  0.00    -0.289 OA
BRANCH  23  25
ATOM     25  C   LIG    1        1.228   0.616   2.842  0.00  0.00    +0.310 C 
BRANCH  25  26
ATOM     26  O   LIG    1        1.870   1.045   4.039  0.00  0.00    -0.457 OA
BRANCH  26  27
ATOM     27  C   LIG    1        1.253   0.916   5.231  0.00  0.00    +0.304 C 
ATOM     28  C   LIG    1        2.109   1.428   6.382  0.00  0.00    +0.136 C 
ATOM     29  O   LIG    1        0.131   0.445   5.425  0.00  0.00    -0.251 OA
ENDBRANCH  26  27
ENDBRANCH  25  26
ENDBRANCH  23  25
ENDBRANCH   1  23
BRANCH   5  30
ATOM     30  O   LIG    1        3.132  -4.235   1.254  0.00  0.00    -0.389 OA
ATOM     31  H   LIG    1        3.304  -5.166   1.094  0.00  0.00    +0.210 HD
ENDBRANCH   5  30
BRANCH   1  32
ATOM     32  O   LIG    1        0.318   0.108   0.153  0.00  0.00    -0.450 OA
BRANCH  32  33
ATOM     33  C   LIG    1       -0.522   1.182   0.020  0.00  0.00    +0.308 C 
ATOM     34  O   LIG    1       -0.187   2.368   0.018  0.00  0.00    -0.251 OA
BRANCH  33  35
ATOM     35  C   LIG    1       -1.983   0.738  -0.116  0.00  0.00    +0.120 C 
BRANCH  35  37
ATOM     36  C   LIG    1       -4.446   1.389  -0.330  0.00  0.00    +0.004 C 
ATOM     37  C   LIG    1       -3.006   1.892  -0.177  0.00  0.00    +0.008 C 
ENDBRANCH  35  37
ENDBRANCH  33  35
ENDBRANCH  32  33
ENDBRANCH   1  32
TORSDOF 9
