REMARK  Name = DB06217
REMARK                            x       y       z     vdW  Elec       q    Type
REMARK                         _______ _______ _______ _____ _____    ______ ____
ROOT
ATOM      1  O   LIG    1        3.393  -0.445  -1.552  0.00  0.00    -0.375 OA
ENDROOT
BRANCH   1   2
ATOM      2  C   LIG    1        4.067  -0.266  -2.799  0.00  0.00    +0.135 C 
ATOM      3  C   LIG    1        5.591   0.031  -2.573  0.00  0.00    +0.085 C 
ATOM      4  C   LIG    1        6.321   0.055  -3.953  0.00  0.00    +0.021 C 
ATOM      5  C   LIG    1        6.055  -1.183  -4.827  0.00  0.00    +0.002 C 
ATOM      6  C   LIG    1        4.553  -1.421  -5.029  0.00  0.00    +0.003 C 
ATOM      7  C   LIG    1        3.832  -1.522  -3.679  0.00  0.00    +0.033 C 
BRANCH   3   8
ATOM      8  N   LIG    1        5.888   1.238  -1.769  0.00  0.00    -0.294 NA
ATOM      9  C   LIG    1        7.308   1.483  -1.528  0.00  0.00    +0.116 C 
ATOM     10  C   LIG    1        7.357   2.574  -0.461  0.00  0.00    +0.130 C 
ATOM     11  C   LIG    1        6.138   2.269   0.408  0.00  0.00    +0.048 C 
ATOM     12  C   LIG    1        5.341   1.246  -0.412  0.00  0.00    +0.087 C 
BRANCH  10  13
ATOM     13  O   LIG    1        8.582   2.680   0.234  0.00  0.00    -0.390 OA
ATOM     14  H   LIG    1        8.632   1.969   0.876  0.00  0.00    +0.210 HD
ENDBRANCH  10  13
ENDBRANCH   3   8
ENDBRANCH   1   2
BRANCH   1  15
ATOM     15  C   LIG    1        1.978  -0.284  -1.564  0.00  0.00    +0.165 C 
BRANCH  15  16
ATOM     16  C   LIG    1        1.475  -0.322  -0.114  0.00  0.00    +0.063 C 
BRANCH  16  19
ATOM     17  C   LIG    1       -1.977   1.275   0.117  0.00  0.00    +0.049 A 
ATOM     18  C   LIG    1       -0.596   1.121   0.037  0.00  0.00    +0.007 A 
ATOM     19  C   LIG    1       -0.034  -0.155  -0.015  0.00  0.00    -0.042 A 
ATOM     20  C   LIG    1       -0.868  -1.274   0.015  0.00  0.00    +0.053 A 
ATOM     21  C   LIG    1       -2.264  -1.133   0.098  0.00  0.00    +0.162 A 
ATOM     22  C   LIG    1       -2.824   0.154   0.147  0.00  0.00    +0.161 A 
BRANCH  21  23
ATOM     23  O   LIG    1       -3.142  -2.203   0.133  0.00  0.00    -0.491 OA
ATOM     24  C   LIG    1       -2.632  -3.531   0.088  0.00  0.00    +0.277 C 
ENDBRANCH  21  23
BRANCH  22  25
ATOM     25  O   LIG    1       -4.204   0.238   0.223  0.00  0.00    -0.491 OA
ATOM     26  C   LIG    1       -4.826   1.518   0.266  0.00  0.00    +0.277 C 
ENDBRANCH  22  25
ENDBRANCH  16  19
ENDBRANCH  15  16
ENDBRANCH   1  15
TORSDOF 8
