REMARK  Name = DB06762
REMARK                            x       y       z     vdW  Elec       q    Type
REMARK                         _______ _______ _______ _____ _____    ______ ____
ROOT
ATOM      1  C   LIG    1       -0.039  -0.125  -0.251  0.00  0.00    +0.401 C 
ATOM      2  N   LIG    1       -0.747   0.894   0.063  0.00  0.00    -0.072 NA
ENDROOT
BRANCH   2   3
ATOM      3  C   LIG    1       -2.147   0.849   0.076  0.00  0.00    +0.145 A 
ATOM      4  C   LIG    1       -2.846   0.416   1.212  0.00  0.00    +0.065 A 
ATOM      5  C   LIG    1       -4.239   0.334   1.170  0.00  0.00    +0.114 A 
ATOM      6  N   LIG    1       -4.961   0.643   0.064  0.00  0.00    -0.263 NA
ATOM      7  C   LIG    1       -4.281   1.044  -1.039  0.00  0.00    +0.114 A 
ATOM      8  C   LIG    1       -2.890   1.152  -1.074  0.00  0.00    +0.065 A 
ENDBRANCH   2   3
BRANCH   1   9
ATOM      9  N   LIG    1       -0.566  -1.397  -0.629  0.00  0.00    -0.177 N 
ATOM     10  H   LIG    1       -1.570  -1.425  -0.730  0.00  0.00    +0.278 HD
BRANCH   9  11
ATOM     11  C   LIG    1       -0.004  -2.559  -0.212  0.00  0.00    +0.255 C 
ATOM     12  N   LIG    1        0.452  -3.573   0.110  0.00  0.00    -0.154 NA
ENDBRANCH   9  11
ENDBRANCH   1   9
BRANCH   1  13
ATOM     13  N   LIG    1        1.388  -0.107  -0.283  0.00  0.00    -0.272 N 
ATOM     14  H   LIG    1        1.892  -0.948  -0.523  0.00  0.00    +0.258 HD
BRANCH  13  15
ATOM     15  C   LIG    1        2.199   1.065   0.071  0.00  0.00    +0.147 C 
ATOM     16  C   LIG    1        2.938   0.723   1.385  0.00  0.00    +0.048 C 
BRANCH  15  17
ATOM     17  C   LIG    1        3.110   1.512  -1.126  0.00  0.00    -0.005 C 
ATOM     18  C   LIG    1        2.230   1.884  -2.347  0.00  0.00    +0.014 C 
ATOM     19  C   LIG    1        3.922   2.772  -0.735  0.00  0.00    +0.014 C 
ATOM     20  C   LIG    1        4.101   0.399  -1.553  0.00  0.00    +0.014 C 
ENDBRANCH  15  17
ENDBRANCH  13  15
ENDBRANCH   1  13
TORSDOF 6
