REMARK  Name = DB06589
REMARK                            x       y       z     vdW  Elec       q    Type
REMARK                         _______ _______ _______ _____ _____    ______ ____
ROOT
ATOM      1  C   LIG    1        0.795   0.003   0.164  0.00  0.00    +0.221 A 
ATOM      2  N   LIG    1        0.331   1.281   0.172  0.00  0.00    -0.199 NA
ATOM      3  C   LIG    1       -0.681   1.608   1.031  0.00  0.00    +0.130 A 
ATOM      4  C   LIG    1       -1.223   0.619   1.871  0.00  0.00    +0.064 A 
ATOM      5  C   LIG    1       -0.680  -0.666   1.808  0.00  0.00    +0.118 A 
ATOM      6  N   LIG    1        0.333  -0.989   0.965  0.00  0.00    -0.223 NA
ENDROOT
BRANCH   1   7
ATOM      7  N   LIG    1        1.847  -0.350  -0.697  0.00  0.00    -0.284 N 
ATOM      8  H   LIG    1        2.196  -1.286  -0.552  0.00  0.00    +0.155 HD
BRANCH   7  11
ATOM      9  C   LIG    1        4.399   0.639  -3.167  0.00  0.00    +0.007 A 
ATOM     10  C   LIG    1        3.758  -0.002  -2.110  0.00  0.00    +0.024 A 
ATOM     11  C   LIG    1        2.449   0.334  -1.768  0.00  0.00    +0.035 A 
ATOM     12  C   LIG    1        1.781   1.309  -2.520  0.00  0.00    +0.052 A 
ATOM     13  C   LIG    1        2.414   1.964  -3.583  0.00  0.00    +0.110 A 
ATOM     14  C   LIG    1        3.743   1.627  -3.909  0.00  0.00    -0.024 A 
ATOM     15  C   LIG    1        4.499   2.285  -5.056  0.00  0.00    +0.046 C 
BRANCH  13  16
ATOM     16  S   LIG    1        1.484   3.218  -4.489  0.00  0.00    +0.056 S 
ATOM     17  O   LIG    1        2.368   4.371  -4.688  0.00  0.00    -0.153 OA
ATOM     18  O   LIG    1        0.184   3.385  -3.828  0.00  0.00    -0.153 OA
BRANCH  16  19
ATOM     19  N   LIG    1        1.176   2.500  -6.059  0.00  0.00    -0.204 NA
ATOM     20  H   LIG    1        2.014   2.349  -6.626  0.00  0.00    +0.144 HD
ATOM     21  H   LIG    1        0.552   1.690  -6.037  0.00  0.00    +0.144 HD
ENDBRANCH  16  19
ENDBRANCH  13  16
ENDBRANCH   7  11
ENDBRANCH   1   7
BRANCH   3  22
ATOM     22  N   LIG    1       -1.191   2.939   1.024  0.00  0.00    -0.288 N 
ATOM     23  C   LIG    1       -0.719   3.836  -0.048  0.00  0.00    +0.137 C 
BRANCH  22  24
ATOM     24  C   LIG    1       -2.158   3.506   1.893  0.00  0.00    +0.037 A 
ATOM     25  C   LIG    1       -2.069   3.285   3.275  0.00  0.00    +0.053 A 
ATOM     26  C   LIG    1       -3.029   3.850   4.128  0.00  0.00    +0.095 A 
ATOM     27  N   LIG    1       -3.099   3.733   5.486  0.00  0.00    -0.171 NA
ATOM     28  N   LIG    1       -4.202   4.436   5.805  0.00  0.00    -0.270 N 
ATOM     29  C   LIG    1       -4.550   4.536   7.215  0.00  0.00    +0.172 C 
ATOM     30  C   LIG    1       -4.837   5.045   4.739  0.00  0.00    +0.044 A 
ATOM     31  C   LIG    1       -6.075   5.904   4.877  0.00  0.00    +0.066 C 
ATOM     32  C   LIG    1       -4.082   4.654   3.599  0.00  0.00    +0.023 A 
ATOM     33  C   LIG    1       -4.157   4.882   2.219  0.00  0.00    +0.013 A 
ATOM     34  C   LIG    1       -3.195   4.306   1.391  0.00  0.00    +0.024 A 
ENDBRANCH  22  24
ENDBRANCH   3  22
TORSDOF 6
