REMARK  Name = DB06652
REMARK                            x       y       z     vdW  Elec       q    Type
REMARK                         _______ _______ _______ _____ _____    ______ ____
ROOT
ATOM      1  N   LIG    1       -2.747   0.134   0.653  0.00  0.00    +0.385 N 
ATOM      2  H   LIG    1       -2.510   0.093   1.634  0.00  0.00    -0.081 HD
ATOM      3  C   LIG    1       -2.051  -1.081  -0.012  0.00  0.00    -0.062 C 
ATOM      4  C   LIG    1       -0.550  -1.015   0.297  0.00  0.00    +0.067 C 
ATOM      5  N   LIG    1        0.043   0.162  -0.355  0.00  0.00    -0.294 NA
ATOM      6  C   LIG    1       -0.525   1.397   0.238  0.00  0.00    +0.038 C 
ATOM      7  C   LIG    1        0.026   2.728  -0.321  0.00  0.00    +0.022 C 
ATOM      8  C   LIG    1       -2.079   1.429   0.107  0.00  0.00    -0.059 C 
ENDROOT
BRANCH   1  16
ATOM      9  C   LIG    1       -4.934   1.434   1.067  0.00  0.00    +0.007 C 
ATOM     10  C   LIG    1       -6.462   1.530   0.827  0.00  0.00    +0.107 C 
ATOM     11  N   LIG    1       -6.675   1.309  -0.618  0.00  0.00    -0.298 N 
ATOM     12  C   LIG    1       -6.733   2.329  -1.520  0.00  0.00    +0.250 C 
ATOM     13  O   LIG    1       -6.540   2.177  -2.728  0.00  0.00    -0.270 OA
ATOM     14  C   LIG    1       -6.321  -0.048  -1.069  0.00  0.00    +0.107 C 
ATOM     15  C   LIG    1       -4.789  -0.202  -0.891  0.00  0.00    +0.007 C 
ATOM     16  C   LIG    1       -4.319   0.081   0.573  0.00  0.00    -0.065 C 
ATOM     17  C   LIG    1       -4.783  -1.051   1.531  0.00  0.00    -0.010 C 
BRANCH  12  18
ATOM     18  C   LIG    1       -7.069   3.714  -1.015  0.00  0.00    +0.079 A 
ATOM     19  C   LIG    1       -6.143   4.777  -1.099  0.00  0.00    +0.054 A 
ATOM     20  C   LIG    1       -4.747   4.625  -1.696  0.00  0.00    +0.066 C 
ATOM     21  N   LIG    1       -6.430   6.028  -0.650  0.00  0.00    -0.240 NA
ATOM     22  C   LIG    1       -7.662   6.212  -0.116  0.00  0.00    +0.221 A 
ATOM     23  N   LIG    1       -8.629   5.272   0.004  0.00  0.00    -0.240 NA
ATOM     24  C   LIG    1       -8.329   4.027  -0.456  0.00  0.00    +0.054 A 
ATOM     25  C   LIG    1       -9.468   3.020  -0.335  0.00  0.00    +0.066 C 
ENDBRANCH  12  18
ENDBRANCH   1  16
BRANCH   5  26
ATOM     26  C   LIG    1        1.525   0.102  -0.368  0.00  0.00    +0.113 C 
BRANCH  26  27
ATOM     27  C   LIG    1        2.033  -1.004  -1.308  0.00  0.00    -0.028 A 
ATOM     28  C   LIG    1        2.449  -2.249  -0.821  0.00  0.00    +0.006 A 
ATOM     29  C   LIG    1        2.897  -3.232  -1.699  0.00  0.00    +0.013 A 
ATOM     30  C   LIG    1        2.935  -2.985  -3.074  0.00  0.00    +0.055 A 
ATOM     31  C   LIG    1        2.517  -1.742  -3.563  0.00  0.00    +0.013 A 
ATOM     32  C   LIG    1        2.068  -0.760  -2.684  0.00  0.00    +0.006 A 
BRANCH  30  33
ATOM     33  C   LIG    1        3.432  -4.074  -4.024  0.00  0.00    +0.417 C 
ATOM     34  F   LIG    1        2.484  -5.002  -4.155  0.00  0.00    -0.166 F 
ATOM     35  F   LIG    1        4.531  -4.653  -3.538  0.00  0.00    -0.166 F 
ATOM     36  F   LIG    1        3.719  -3.596  -5.236  0.00  0.00    -0.166 F 
ENDBRANCH  30  33
ENDBRANCH  26  27
BRANCH  26  37
ATOM     37  C   LIG    1        2.193   0.138   1.038  0.00  0.00    +0.183 C 
BRANCH  37  38
ATOM     38  O   LIG    1        3.607   0.038   0.911  0.00  0.00    -0.381 OA
ATOM     39  C   LIG    1        4.293   0.049   2.153  0.00  0.00    +0.194 C 
ENDBRANCH  37  38
ENDBRANCH  26  37
ENDBRANCH   5  26
TORSDOF 7
