REMARK  Name = DB06709
REMARK                            x       y       z     vdW  Elec       q    Type
REMARK                         _______ _______ _______ _____ _____    ______ ____
ROOT
ATOM      1  C   LIG    1       -0.465   1.689   0.113  0.00  0.00    +0.050 C 
ATOM      2  C   LIG    1       -0.072   0.201   0.017  0.00  0.00    +0.157 C 
ENDROOT
BRANCH   2   3
ATOM      3  O   LIG    1       -0.718  -0.393  -1.109  0.00  0.00    -0.464 OA
BRANCH   3   4
ATOM      4  C   LIG    1       -2.006  -0.806  -1.059  0.00  0.00    +0.304 C 
ATOM      5  C   LIG    1       -2.477  -1.391  -2.384  0.00  0.00    +0.136 C 
ATOM      6  O   LIG    1       -2.752  -0.751  -0.081  0.00  0.00    -0.251 OA
ENDBRANCH   3   4
ENDBRANCH   2   3
BRANCH   2   7
ATOM      7  C   LIG    1        1.469   0.044  -0.088  0.00  0.00    -0.031 C 
BRANCH   7   8
ATOM      8  N   LIG    1        2.008  -1.421  -0.033  0.00  0.00    +0.377 N 
ATOM      9  C   LIG    1        1.659  -2.236  -1.303  0.00  0.00    -0.093 C 
ATOM     10  C   LIG    1        1.486  -2.173   1.215  0.00  0.00    -0.093 C 
ATOM     11  C   LIG    1        3.553  -1.347   0.062  0.00  0.00    -0.093 C 
ENDBRANCH   7   8
ENDBRANCH   2   7
TORSDOF 4
