REMARK  Name = DB06204
REMARK                            x       y       z     vdW  Elec       q    Type
REMARK                         _______ _______ _______ _____ _____    ______ ____
ROOT
ATOM      1  C   LIG    1       -0.010  -0.026   0.126  0.00  0.00    +0.023 C 
ENDROOT
BRANCH   1   6
ATOM      2  C   LIG    1       -0.688   3.705   0.722  0.00  0.00    +0.117 A 
ATOM      3  C   LIG    1       -1.458   4.030  -0.395  0.00  0.00    +0.045 A 
ATOM      4  C   LIG    1       -1.763   3.051  -1.340  0.00  0.00    +0.004 A 
ATOM      5  C   LIG    1       -1.299   1.747  -1.170  0.00  0.00    +0.004 A 
ATOM      6  C   LIG    1       -0.523   1.410  -0.053  0.00  0.00    -0.041 A 
ATOM      7  C   LIG    1       -0.221   2.401   0.891  0.00  0.00    +0.049 A 
BRANCH   2   8
ATOM      8  O   LIG    1       -0.390   4.667   1.651  0.00  0.00    -0.507 OA
ATOM      9  H   LIG    1        0.137   4.332   2.380  0.00  0.00    +0.292 HD
ENDBRANCH   2   8
ENDBRANCH   1   6
BRANCH   1  10
ATOM     10  C   LIG    1       -0.560  -0.662   1.435  0.00  0.00    +0.005 C 
ATOM     11  C   LIG    1       -2.094  -0.633   1.566  0.00  0.00    +0.004 C 
ENDBRANCH   1  10
BRANCH   1  12
ATOM     12  C   LIG    1        1.549  -0.110  -0.014  0.00  0.00    +0.007 C 
ATOM     13  C   LIG    1        2.085  -1.556   0.141  0.00  0.00    +0.009 C 
BRANCH  12  14
ATOM     14  C   LIG    1        2.031   0.536  -1.350  0.00  0.00    +0.087 C 
BRANCH  14  15
ATOM     15  N   LIG    1        3.478   0.473  -1.594  0.00  0.00    -0.308 NA
ATOM     16  C   LIG    1        4.237   1.266  -0.628  0.00  0.00    +0.104 C 
ATOM     17  C   LIG    1        3.773   0.946  -2.943  0.00  0.00    +0.104 C 
ENDBRANCH  14  15
ENDBRANCH  12  14
ENDBRANCH   1  12
TORSDOF 6
