REMARK  Name = DB06586
REMARK                            x       y       z     vdW  Elec       q    Type
REMARK                         _______ _______ _______ _____ _____    ______ ____
ROOT
ATOM      1  C   LIG    1        6.344  -4.416   0.399  0.00  0.00    +0.041 C 
ENDROOT
BRANCH   1   2
ATOM      2  C   LIG    1        7.880  -4.469   0.414  0.00  0.00    +0.234 C 
BRANCH   2   3
ATOM      3  O   LIG    1        8.379  -4.091  -0.871  0.00  0.00    -0.449 OA
BRANCH   3   4
ATOM      4  C   LIG    1        9.738  -3.920  -0.973  0.00  0.00    +0.399 A 
ATOM      5  N   LIG    1       10.203  -3.103  -1.845  0.00  0.00    -0.178 NA
ATOM      6  C   LIG    1       11.602  -3.014  -2.002  0.00  0.00    +0.085 A 
ATOM      7  C   LIG    1       12.088  -2.094  -2.934  0.00  0.00    +0.029 A 
ATOM      8  C   LIG    1       13.462  -1.970  -3.143  0.00  0.00    +0.005 A 
ATOM      9  C   LIG    1       14.363  -2.762  -2.425  0.00  0.00    -0.050 A 
ATOM     10  C   LIG    1       15.856  -2.633  -2.665  0.00  0.00    +0.044 C 
ATOM     11  C   LIG    1       13.884  -3.691  -1.496  0.00  0.00    +0.020 A 
ATOM     12  C   LIG    1       12.508  -3.820  -1.282  0.00  0.00    +0.085 A 
ATOM     13  C   LIG    1       11.909  -4.785  -0.308  0.00  0.00    +0.350 A 
ATOM     14  O   LIG    1       12.528  -5.571   0.408  0.00  0.00    -0.244 OA
ATOM     15  O   LIG    1       10.535  -4.774  -0.221  0.00  0.00    -0.374 OA
ENDBRANCH   3   4
ENDBRANCH   2   3
ENDBRANCH   1   2
BRANCH   1  16
ATOM     16  C   LIG    1        5.775  -3.002   0.174  0.00  0.00    +0.003 C 
BRANCH  16  17
ATOM     17  C   LIG    1        4.236  -2.973   0.177  0.00  0.00    +0.000 C 
BRANCH  17  18
ATOM     18  C   LIG    1        3.656  -1.556   0.009  0.00  0.00    +0.000 C 
BRANCH  18  19
ATOM     19  C   LIG    1        2.117  -1.535   0.016  0.00  0.00    +0.000 C 
BRANCH  19  20
ATOM     20  C   LIG    1        1.534  -0.115  -0.086  0.00  0.00    -0.000 C 
BRANCH  20  21
ATOM     21  C   LIG    1       -0.005  -0.094  -0.067  0.00  0.00    -0.000 C 
BRANCH  21  22
ATOM     22  C   LIG    1       -0.585   1.331  -0.134  0.00  0.00    -0.000 C 
BRANCH  22  23
ATOM     23  C   LIG    1       -2.124   1.355  -0.122  0.00  0.00    -0.000 C 
BRANCH  23  24
ATOM     24  C   LIG    1       -2.700   2.783  -0.196  0.00  0.00    -0.000 C 
BRANCH  24  25
ATOM     25  C   LIG    1       -4.239   2.854  -0.129  0.00  0.00    -0.000 C 
BRANCH  25  26
ATOM     26  C   LIG    1       -4.957   2.238  -1.345  0.00  0.00    -0.000 C 
BRANCH  26  27
ATOM     27  C   LIG    1       -6.485   2.414  -1.290  0.00  0.00    -0.000 C 
BRANCH  27  28
ATOM     28  C   LIG    1       -7.202   1.820  -2.516  0.00  0.00    -0.003 C 
ATOM     29  C   LIG    1       -8.724   2.004  -2.466  0.00  0.00    +0.004 C 
ENDBRANCH  27  28
ENDBRANCH  26  27
ENDBRANCH  25  26
ENDBRANCH  24  25
ENDBRANCH  23  24
ENDBRANCH  22  23
ENDBRANCH  21  22
ENDBRANCH  20  21
ENDBRANCH  19  20
ENDBRANCH  18  19
ENDBRANCH  17  18
ENDBRANCH  16  17
ENDBRANCH   1  16
TORSDOF 16
