REMARK  Name = DB06696
REMARK                            x       y       z     vdW  Elec       q    Type
REMARK                         _______ _______ _______ _____ _____    ______ ____
ROOT
ATOM      1  C   LIG    1       -1.842  -0.493   1.355  0.00  0.00    +0.138 C 
ATOM      2  C   LIG    1       -0.355  -0.055   1.139  0.00  0.00    +0.172 C 
ATOM      3  C   LIG    1       -0.045   0.479  -0.297  0.00  0.00    +0.172 C 
ATOM      4  C   LIG    1       -0.632  -0.394  -1.434  0.00  0.00    +0.103 C 
ATOM      5  C   LIG    1       -2.131  -0.677  -1.218  0.00  0.00    +0.011 C 
ATOM      6  C   LIG    1       -2.376  -1.326   0.156  0.00  0.00    -0.041 C 
ENDROOT
BRANCH   4   7
ATOM      7  N   LIG    1       -0.309   0.100  -2.780  0.00  0.00    -0.308 N 
ATOM      8  H   LIG    1       -0.092   1.083  -2.851  0.00  0.00    +0.149 HD
ATOM      9  C   LIG    1       -0.288  -0.647  -3.900  0.00  0.00    +0.242 C 
ATOM     10  O   LIG    1       -0.568  -1.848  -3.908  0.00  0.00    -0.273 OA
BRANCH   9  11
ATOM     11  C   LIG    1        0.116   0.074  -5.204  0.00  0.00    +0.198 C 
BRANCH  11  12
ATOM     12  O   LIG    1        1.036  -0.750  -5.900  0.00  0.00    -0.383 OA
ATOM     13  H   LIG    1        1.047  -0.496  -6.826  0.00  0.00    +0.210 HD
ENDBRANCH  11  12
BRANCH  11  14
ATOM     14  C   LIG    1       -1.089   0.339  -6.145  0.00  0.00    +0.021 C 
BRANCH  14  15
ATOM     15  C   LIG    1       -2.108   1.388  -5.652  0.00  0.00    -0.083 C 
BRANCH  15  16
ATOM     16  N   LIG    1       -1.515   2.801  -5.724  0.00  0.00    +0.378 N 
ATOM     17  H   LIG    1       -0.701   2.874  -5.130  0.00  0.00    -0.090 HD
ATOM     18  H   LIG    1       -1.243   3.014  -6.674  0.00  0.00    -0.090 HD
ATOM     19  H   LIG    1       -2.199   3.482  -5.426  0.00  0.00    -0.090 HD
ENDBRANCH  15  16
ENDBRANCH  14  15
ENDBRANCH  11  14
ENDBRANCH   9  11
ENDBRANCH   4   7
BRANCH   6  20
ATOM     20  N   LIG    1       -3.887  -1.584   0.315  0.00  0.00    +0.382 N 
ATOM     21  H   LIG    1       -4.221  -2.176  -0.433  0.00  0.00    -0.090 HD
ATOM     22  H   LIG    1       -4.070  -2.044   1.196  0.00  0.00    -0.090 HD
ATOM     23  H   LIG    1       -4.399  -0.713   0.291  0.00  0.00    -0.090 HD
ENDBRANCH   6  20
BRANCH   2  24
ATOM     24  O   LIG    1       -0.035   0.961   2.071  0.00  0.00    -0.387 OA
ATOM     25  H   LIG    1        0.805   1.354   1.819  0.00  0.00    +0.210 HD
ENDBRANCH   2  24
BRANCH   1  26
ATOM     26  O   LIG    1       -2.079  -1.293   2.529  0.00  0.00    -0.349 OA
BRANCH  26  31
ATOM     27  C   LIG    1       -3.871   0.407   4.128  0.00  0.00    +0.104 C 
ATOM     28  C   LIG    1       -4.414  -0.671   5.095  0.00  0.00    +0.028 C 
ATOM     29  C   LIG    1       -3.718  -2.023   4.903  0.00  0.00    -0.009 C 
ATOM     30  C   LIG    1       -2.193  -1.824   4.880  0.00  0.00    -0.018 C 
ATOM     31  C   LIG    1       -1.791  -0.789   3.809  0.00  0.00    +0.236 C 
ATOM     32  O   LIG    1       -2.432   0.438   4.068  0.00  0.00    -0.352 OA
BRANCH  30  33
ATOM     33  N   LIG    1       -1.515  -3.179   4.601  0.00  0.00    +0.383 N 
ATOM     34  H   LIG    1       -0.510  -3.074   4.601  0.00  0.00    -0.089 HD
ATOM     35  H   LIG    1       -1.769  -3.850   5.313  0.00  0.00    -0.089 HD
ATOM     36  H   LIG    1       -1.804  -3.535   3.702  0.00  0.00    -0.089 HD
ENDBRANCH  30  33
BRANCH  27  37
ATOM     37  C   LIG    1       -4.438   1.802   4.477  0.00  0.00    -0.054 C 
BRANCH  37  38
ATOM     38  N   LIG    1       -3.910   2.882   3.522  0.00  0.00    +0.380 N 
ATOM     39  H   LIG    1       -2.902   2.928   3.577  0.00  0.00    -0.090 HD
ATOM     40  H   LIG    1       -4.177   2.672   2.571  0.00  0.00    -0.090 HD
ATOM     41  H   LIG    1       -4.289   3.785   3.774  0.00  0.00    -0.090 HD
ENDBRANCH  37  38
ENDBRANCH  27  37
ENDBRANCH  26  31
ENDBRANCH   1  26
BRANCH   3  42
ATOM     42  O   LIG    1        1.358   0.561  -0.580  0.00  0.00    -0.341 OA
BRANCH  42  43
ATOM     43  C   LIG    1        2.104   1.632  -0.066  0.00  0.00    +0.278 C 
ATOM     44  O   LIG    1        2.596   1.354   1.223  0.00  0.00    -0.341 OA
ATOM     45  C   LIG    1        3.430   0.186   1.314  0.00  0.00    +0.174 C 
ATOM     46  C   LIG    1        4.683   0.324   0.411  0.00  0.00    +0.134 C 
ATOM     47  C   LIG    1        4.252   0.704  -1.028  0.00  0.00    -0.009 C 
ATOM     48  C   LIG    1        3.276   1.910  -1.025  0.00  0.00    +0.158 C 
BRANCH  47  49
ATOM     49  N   LIG    1        5.505   1.060  -1.857  0.00  0.00    +0.383 N 
ATOM     50  H   LIG    1        6.136   0.271  -1.881  0.00  0.00    -0.089 HD
ATOM     51  H   LIG    1        5.241   1.294  -2.803  0.00  0.00    -0.089 HD
ATOM     52  H   LIG    1        5.986   1.848  -1.448  0.00  0.00    -0.089 HD
ENDBRANCH  47  49
BRANCH  46  53
ATOM     53  O   LIG    1        5.504  -0.834   0.445  0.00  0.00    -0.391 OA
ATOM     54  H   LIG    1        5.883  -0.921   1.323  0.00  0.00    +0.210 HD
ENDBRANCH  46  53
BRANCH  48  55
ATOM     55  O   LIG    1        2.792   2.254  -2.314  0.00  0.00    -0.388 OA
ATOM     56  H   LIG    1        2.384   3.123  -2.267  0.00  0.00    +0.210 HD
ENDBRANCH  48  55
BRANCH  45  57
ATOM     57  C   LIG    1        3.739  -0.073   2.805  0.00  0.00    +0.190 C 
BRANCH  57  58
ATOM     58  O   LIG    1        4.494   0.974   3.383  0.00  0.00    -0.392 OA
ATOM     59  H   LIG    1        5.392   0.935   3.046  0.00  0.00    +0.210 HD
ENDBRANCH  57  58
ENDBRANCH  45  57
ENDBRANCH  42  43
ENDBRANCH   3  42
TORSDOF 20
