REMARK  Name = DB06478
REMARK                            x       y       z     vdW  Elec       q    Type
REMARK                         _______ _______ _______ _____ _____    ______ ____
ROOT
ATOM      1  C   LIG    1       -3.335   4.179   3.058  0.00  0.00    +0.050 C 
ATOM      2  C   LIG    1       -2.656   2.839   2.745  0.00  0.00    +0.022 C 
ATOM      3  C   LIG    1       -1.806   2.892   1.524  0.00  0.00    +0.205 C 
ATOM      4  O   LIG    1       -1.615   3.912   0.859  0.00  0.00    -0.286 OA
ATOM      5  C   LIG    1       -1.204   1.577   1.203  0.00  0.00    +0.087 C 
ATOM      6  N   LIG    1       -0.369   1.334   0.127  0.00  0.00    -0.301 N 
ATOM      7  C   LIG    1       -0.008  -0.053   0.037  0.00  0.00    +0.133 C 
ATOM      8  C   LIG    1       -0.558  -0.684   1.349  0.00  0.00    +0.111 C 
ATOM      9  C   LIG    1       -0.621  -0.563  -1.307  0.00  0.00    -0.029 C 
ATOM     10  N   LIG    1       -2.037  -0.105  -1.552  0.00  0.00    +0.384 N 
ATOM     11  H   LIG    1       -2.503   0.306  -0.755  0.00  0.00    -0.081 HD
ATOM     12  C   LIG    1       -2.952  -0.897  -2.495  0.00  0.00    -0.095 C 
ATOM     13  C   LIG    1       -0.868   0.676  -2.086  0.00  0.00    -0.060 C 
ATOM     14  C   LIG    1       -0.583   1.899  -1.205  0.00  0.00    +0.091 C 
ATOM     15  C   LIG    1       -1.354   0.464   1.950  0.00  0.00    +0.037 C 
ATOM     16  C   LIG    1       -2.147   0.420   3.193  0.00  0.00    +0.205 C 
ATOM     17  O   LIG    1       -2.236  -0.596   3.885  0.00  0.00    -0.286 OA
ATOM     18  C   LIG    1       -2.811   1.713   3.506  0.00  0.00    +0.079 C 
ENDROOT
BRANCH  18  19
ATOM     19  N   LIG    1       -3.604   1.710   4.630  0.00  0.00    -0.355 N 
ATOM     20  H   LIG    1       -4.091   2.543   4.931  0.00  0.00    +0.142 HD
ATOM     21  H   LIG    1       -3.710   0.876   5.190  0.00  0.00    +0.142 HD
ENDBRANCH  18  19
BRANCH   7  22
ATOM     22  O   LIG    1        1.392  -0.160  -0.036  0.00  0.00    -0.360 OA
ATOM     23  C   LIG    1        2.004  -1.448  -0.089  0.00  0.00    +0.196 C 
ENDBRANCH   7  22
BRANCH   8  24
ATOM     24  C   LIG    1       -1.406  -1.967   1.141  0.00  0.00    +0.246 C 
BRANCH  24  25
ATOM     25  O   LIG    1       -0.628  -3.014   0.573  0.00  0.00    -0.450 OA
BRANCH  25  26
ATOM     26  C   LIG    1       -1.213  -4.043  -0.068  0.00  0.00    +0.398 C 
ATOM     27  N   LIG    1       -0.246  -4.930  -0.482  0.00  0.00    -0.295 N 
ATOM     28  H   LIG    1       -0.522  -5.763  -0.983  0.00  0.00    +0.148 HD
ATOM     29  H   LIG    1        0.722  -4.753  -0.257  0.00  0.00    +0.148 HD
ATOM     30  O   LIG    1       -2.421  -4.170  -0.265  0.00  0.00    -0.227 OA
ENDBRANCH  25  26
ENDBRANCH  24  25
ENDBRANCH   8  24
TORSDOF 5
