REMARK  Name = DB06704
REMARK                            x       y       z     vdW  Elec       q    Type
REMARK                         _______ _______ _______ _____ _____    ______ ____
ROOT
ATOM      1  C   LIG    1       -0.225  -0.113   0.452  0.00  0.00    +0.279 C 
ENDROOT
BRANCH   1   7
ATOM      2  C   LIG    1       -0.987   3.218  -1.251  0.00  0.00    +0.001 A 
ATOM      3  C   LIG    1       -1.246   4.041  -0.155  0.00  0.00    +0.014 A 
ATOM      4  C   LIG    1       -1.173   3.524   1.139  0.00  0.00    +0.014 A 
ATOM      5  I   LIG    1       -1.561   4.758   2.783  0.00  0.00    -0.044 I 
ATOM      6  C   LIG    1       -0.841   2.183   1.336  0.00  0.00    +0.021 A 
ATOM      7  C   LIG    1       -0.575   1.353   0.241  0.00  0.00    -0.010 A 
ATOM      8  C   LIG    1       -0.654   1.878  -1.054  0.00  0.00    +0.007 A 
ENDBRANCH   1   7
BRANCH   1   9
ATOM      9  N   LIG    1        1.216  -0.254   0.595  0.00  0.00    -0.109 NA
ATOM     10  C   LIG    1        1.854  -1.135  -0.069  0.00  0.00    +0.377 C 
BRANCH  10  11
ATOM     11  N   LIG    1        1.310  -2.262  -0.732  0.00  0.00    -0.289 N 
ATOM     12  H   LIG    1        1.874  -3.098  -0.776  0.00  0.00    +0.255 HD
ATOM     13  H   LIG    1        0.343  -2.489  -0.549  0.00  0.00    +0.255 HD
ENDBRANCH  10  11
BRANCH  10  14
ATOM     14  N   LIG    1        3.259  -1.100  -0.187  0.00  0.00    -0.289 N 
ATOM     15  H   LIG    1        3.747  -1.981  -0.239  0.00  0.00    +0.255 HD
ATOM     16  H   LIG    1        3.756  -0.446   0.401  0.00  0.00    +0.255 HD
ENDBRANCH  10  14
ENDBRANCH   1   9
TORSDOF 4
