REMARK  Name = DB06212
REMARK                            x       y       z     vdW  Elec       q    Type
REMARK                         _______ _______ _______ _____ _____    ______ ____
ROOT
ATOM      1  C   LIG    1        4.176   0.167  -0.016  0.00  0.00    +0.040 A 
ATOM      2  C   LIG    1        3.496   1.234   0.583  0.00  0.00    +0.015 A 
ATOM      3  C   LIG    1        2.105   1.255   0.639  0.00  0.00    +0.024 A 
ATOM      4  C   LIG    1        1.360   0.194   0.103  0.00  0.00    +0.034 A 
ATOM      5  C   LIG    1        2.037  -0.872  -0.496  0.00  0.00    +0.027 A 
ATOM      6  C   LIG    1        3.435  -0.904  -0.556  0.00  0.00    -0.037 A 
ATOM      7  C   LIG    1        4.105  -2.103  -1.220  0.00  0.00    +0.044 C 
ENDROOT
BRANCH   1  19
ATOM      8 CL   LIG    1        3.430   4.747  -4.519  0.00  0.00    -0.084 Cl
ATOM      9  C   LIG    1        4.262   3.654  -3.473  0.00  0.00    +0.041 A 
ATOM     10  C   LIG    1        4.279   2.295  -3.758  0.00  0.00    +0.022 A 
ATOM     11  C   LIG    1        4.955   1.423  -2.913  0.00  0.00    +0.025 A 
ATOM     12  C   LIG    1        5.609   1.884  -1.760  0.00  0.00    +0.042 A 
ATOM     13  C   LIG    1        5.607   3.272  -1.470  0.00  0.00    +0.004 A 
ATOM     14  C   LIG    1        6.334   3.804  -0.218  0.00  0.00    +0.146 C 
ATOM     15  C   LIG    1        7.868   3.611  -0.240  0.00  0.00    +0.038 C 
ATOM     16  C   LIG    1        8.330   2.179   0.083  0.00  0.00    +0.022 C 
ATOM     17  C   LIG    1        7.807   1.087  -0.868  0.00  0.00    +0.114 C 
ATOM     18  N   LIG    1        6.339   1.000  -0.938  0.00  0.00    -0.267 N 
ATOM     19  C   LIG    1        5.689   0.183  -0.049  0.00  0.00    +0.251 C 
ATOM     20  O   LIG    1        6.280  -0.575   0.725  0.00  0.00    -0.270 OA
ATOM     21  C   LIG    1        4.922   4.133  -2.345  0.00  0.00    +0.028 A 
BRANCH  14  22
ATOM     22  O   LIG    1        6.066   5.166   0.066  0.00  0.00    -0.387 OA
ATOM     23  H   LIG    1        6.515   5.707  -0.588  0.00  0.00    +0.210 HD
ENDBRANCH  14  22
ENDBRANCH   1  19
BRANCH   4  24
ATOM     24  N   LIG    1       -0.045   0.112   0.104  0.00  0.00    -0.281 N 
ATOM     25  H   LIG    1       -0.417  -0.659  -0.430  0.00  0.00    +0.155 HD
ATOM     26  C   LIG    1       -0.956   0.884   0.741  0.00  0.00    +0.249 C 
ATOM     27  O   LIG    1       -0.688   1.829   1.484  0.00  0.00    -0.270 OA
BRANCH  26  28
ATOM     28  C   LIG    1       -2.397   0.495   0.492  0.00  0.00    +0.040 A 
ATOM     29  C   LIG    1       -2.807   0.192  -0.817  0.00  0.00    +0.013 A 
ATOM     30  C   LIG    1       -4.129  -0.149  -1.096  0.00  0.00    +0.001 A 
ATOM     31  C   LIG    1       -5.066  -0.194  -0.069  0.00  0.00    +0.000 A 
ATOM     32  C   LIG    1       -4.680   0.101   1.236  0.00  0.00    +0.004 A 
ATOM     33  C   LIG    1       -3.356   0.447   1.532  0.00  0.00    -0.038 A 
ATOM     34  C   LIG    1       -3.007   0.724   2.993  0.00  0.00    +0.044 C 
ENDBRANCH  26  28
ENDBRANCH   4  24
TORSDOF 4
