REMARK  Name = DB06689
REMARK                            x       y       z     vdW  Elec       q    Type
REMARK                         _______ _______ _______ _____ _____    ______ ____
ROOT
ATOM      1  C   LIG    1        0.032   0.189   0.546  0.00  0.00    +0.027 C 
ENDROOT
BRANCH   1   2
ATOM      2  C   LIG    1        1.533  -0.044   0.605  0.00  0.00    -0.031 C 
ATOM      3  C   LIG    1        2.159  -1.232   0.509  0.00  0.00    -0.031 C 
BRANCH   3   4
ATOM      4  C   LIG    1        1.504  -2.596   0.360  0.00  0.00    +0.027 C 
BRANCH   4   5
ATOM      5  C   LIG    1        1.818  -3.281  -0.981  0.00  0.00    +0.004 C 
BRANCH   5   6
ATOM      6  C   LIG    1        1.185  -4.680  -1.095  0.00  0.00    +0.000 C 
BRANCH   6   7
ATOM      7  C   LIG    1        1.512  -5.386  -2.423  0.00  0.00    +0.000 C 
BRANCH   7   8
ATOM      8  C   LIG    1        0.903  -6.797  -2.514  0.00  0.00    -0.000 C 
BRANCH   8   9
ATOM      9  C   LIG    1        1.241  -7.516  -3.832  0.00  0.00    -0.000 C 
BRANCH   9  10
ATOM     10  C   LIG    1        0.640  -8.931  -3.912  0.00  0.00    -0.003 C 
ATOM     11  C   LIG    1        0.979  -9.654  -5.223  0.00  0.00    +0.004 C 
ENDBRANCH   9  10
ENDBRANCH   8   9
ENDBRANCH   7   8
ENDBRANCH   6   7
ENDBRANCH   5   6
ENDBRANCH   4   5
ENDBRANCH   3   4
ENDBRANCH   1   2
BRANCH   1  12
ATOM     12  C   LIG    1       -0.386   1.647   0.274  0.00  0.00    +0.004 C 
BRANCH  12  13
ATOM     13  C   LIG    1        0.028   2.176  -1.113  0.00  0.00    +0.000 C 
BRANCH  13  14
ATOM     14  C   LIG    1       -0.440   3.624  -1.356  0.00  0.00    +0.000 C 
BRANCH  14  15
ATOM     15  C   LIG    1        0.044   4.239  -2.684  0.00  0.00    +0.001 C 
BRANCH  15  16
ATOM     16  C   LIG    1       -0.529   3.564  -3.946  0.00  0.00    +0.011 C 
BRANCH  16  17
ATOM     17  C   LIG    1       -0.123   4.295  -5.241  0.00  0.00    +0.120 C 
BRANCH  17  18
ATOM     18  C   LIG    1       -0.674   3.615  -6.498  0.00  0.00    +0.305 C 
ATOM     19  O   LIG    1       -1.681   4.002  -7.087  0.00  0.00    -0.251 OA
BRANCH  18  20
ATOM     20  O   LIG    1        0.086   2.544  -6.868  0.00  0.00    -0.481 OA
ATOM     21  H   LIG    1       -0.251   2.114  -7.657  0.00  0.00    +0.295 HD
ENDBRANCH  18  20
ENDBRANCH  17  18
ENDBRANCH  16  17
ENDBRANCH  15  16
ENDBRANCH  14  15
ENDBRANCH  13  14
ENDBRANCH  12  13
ENDBRANCH   1  12
TORSDOF 16
