REMARK  Name = DB06678
REMARK                            x       y       z     vdW  Elec       q    Type
REMARK                         _______ _______ _______ _____ _____    ______ ____
ROOT
ATOM      1  N   LIG    1       -2.659   0.036  -0.061  0.00  0.00    -0.311 N 
ATOM      2  C   LIG    1       -2.862   1.383  -0.370  0.00  0.00    +0.125 A 
ATOM      3  C   LIG    1       -3.709   1.744  -1.432  0.00  0.00    -0.003 A 
ATOM      4  C   LIG    1       -3.795   3.097  -1.782  0.00  0.00    +0.009 A 
ATOM      5  C   LIG    1       -3.070   4.053  -1.072  0.00  0.00    +0.020 A 
ATOM      6  C   LIG    1       -2.286   3.626  -0.004  0.00  0.00    +0.113 A 
ATOM      7  C   LIG    1       -4.623   0.694  -2.045  0.00  0.00    +0.074 C 
ATOM      8  C   LIG    1       -3.926  -0.334  -2.923  0.00  0.00    -0.038 A 
ATOM      9  C   LIG    1       -4.440  -0.572  -4.206  0.00  0.00    +0.004 A 
ATOM     10  C   LIG    1       -3.904  -1.552  -5.032  0.00  0.00    +0.000 A 
ATOM     11  C   LIG    1       -2.842  -2.323  -4.581  0.00  0.00    +0.000 A 
ATOM     12  C   LIG    1       -2.315  -2.095  -3.314  0.00  0.00    +0.005 A 
ATOM     13  C   LIG    1       -2.821  -1.095  -2.464  0.00  0.00    -0.025 A 
ATOM     14  N   LIG    1       -2.180   2.322   0.350  0.00  0.00    -0.240 NA
ATOM     15  C   LIG    1       -2.048  -0.345   1.233  0.00  0.00    +0.088 C 
ATOM     16  C   LIG    1       -0.494  -0.419   1.262  0.00  0.00    -0.060 C 
ATOM     17  N   LIG    1        0.101  -0.009  -0.100  0.00  0.00    +0.380 N 
ATOM     18  H   LIG    1       -0.139   0.965  -0.227  0.00  0.00    -0.082 HD
ATOM     19  C   LIG    1        1.633  -0.156  -0.123  0.00  0.00    -0.096 C 
ATOM     20  C   LIG    1       -0.570  -0.781  -1.261  0.00  0.00    -0.052 C 
ATOM     21  C   LIG    1       -2.129  -0.883  -1.097  0.00  0.00    +0.089 C 
ENDROOT
TORSDOF 0
