REMARK  Name = DB06419
REMARK                            x       y       z     vdW  Elec       q    Type
REMARK                         _______ _______ _______ _____ _____    ______ ____
ROOT
ATOM      1  C   LIG    1        1.444   0.298   0.434  0.00  0.00    +0.163 C 
ATOM      2  C   LIG    1        1.666  -0.140  -1.069  0.00  0.00    +0.085 C 
ATOM      3  C   LIG    1        2.651   0.761  -1.853  0.00  0.00    +0.018 C 
ATOM      4  C   LIG    1        1.674  -1.657  -1.425  0.00  0.00    +0.152 C 
ATOM      5  O   LIG    1        1.075  -2.463  -0.717  0.00  0.00    -0.296 OA
ATOM      6  C   LIG    1        2.315  -2.194  -2.737  0.00  0.00    +0.161 C 
ATOM      7  C   LIG    1        1.946  -1.404  -4.017  0.00  0.00    +0.027 C 
ATOM      8  C   LIG    1        3.807  -2.614  -2.666  0.00  0.00    +0.318 C 
ATOM      9  O   LIG    1        4.412  -2.923  -3.694  0.00  0.00    -0.250 OA
ATOM     10  O   LIG    1        4.346  -2.628  -1.418  0.00  0.00    -0.457 OA
ATOM     11  C   LIG    1        5.657  -3.142  -1.131  0.00  0.00    +0.221 C 
ATOM     12  C   LIG    1        6.841  -2.143  -1.439  0.00  0.00    +0.168 C 
ATOM     13  C   LIG    1        8.174  -2.521  -0.730  0.00  0.00    +0.062 C 
ATOM     14  O   LIG    1        7.153  -2.339  -2.812  0.00  0.00    -0.438 OA
ATOM     15  C   LIG    1        7.377  -1.206  -3.508  0.00  0.00    +0.401 C 
ATOM     16  O   LIG    1        7.774  -1.197  -4.670  0.00  0.00    -0.226 OA
ATOM     17  N   LIG    1        7.088  -0.154  -2.659  0.00  0.00    -0.274 N 
ATOM     18  H   LIG    1        6.793   0.738  -3.029  0.00  0.00    +0.152 HD
ATOM     19  C   LIG    1        6.525  -0.624  -1.408  0.00  0.00    +0.133 C 
ATOM     20  C   LIG    1        6.973   0.230  -0.177  0.00  0.00    +0.077 C 
ATOM     21  C   LIG    1        7.077   1.752  -0.446  0.00  0.00    +0.017 C 
ATOM     22  C   LIG    1        6.104  -0.040   1.067  0.00  0.00    +0.141 C 
ATOM     23  C   LIG    1        4.640   0.468   1.086  0.00  0.00    +0.055 C 
ATOM     24  C   LIG    1        4.540   1.724   1.976  0.00  0.00    +0.015 C 
ATOM     25  C   LIG    1        3.666  -0.686   1.477  0.00  0.00    +0.048 C 
ATOM     26  O   LIG    1        6.578  -0.648   2.027  0.00  0.00    -0.297 OA
ATOM     27  C   LIG    1        2.130  -0.437   1.648  0.00  0.00    +0.094 C 
ATOM     28  C   LIG    1        1.815   0.337   2.962  0.00  0.00    +0.044 C 
ENDROOT
BRANCH  11  29
ATOM     29  C   LIG    1        5.622  -3.693   0.319  0.00  0.00    +0.045 C 
ATOM     30  C   LIG    1        4.485  -4.694   0.587  0.00  0.00    +0.007 C 
ENDBRANCH  11  29
BRANCH   1  31
ATOM     31  O   LIG    1        0.033   0.281   0.685  0.00  0.00    -0.342 OA
BRANCH  31  32
ATOM     32  C   LIG    1       -0.678   1.443   0.374  0.00  0.00    +0.278 C 
ATOM     33  C   LIG    1       -2.171   1.090   0.452  0.00  0.00    +0.157 C 
ATOM     34  C   LIG    1       -3.007   2.370   0.183  0.00  0.00    -0.033 C 
ATOM     35  C   LIG    1       -2.545   3.569   1.043  0.00  0.00    +0.019 C 
ATOM     36  C   LIG    1       -1.007   3.699   1.050  0.00  0.00    +0.117 C 
ATOM     37  C   LIG    1       -0.513   4.735   2.070  0.00  0.00    +0.038 C 
ATOM     38  O   LIG    1       -0.392   2.437   1.325  0.00  0.00    -0.346 OA
BRANCH  34  39
ATOM     39  N   LIG    1       -4.528   2.084   0.355  0.00  0.00    +0.380 N 
ATOM     40  H   LIG    1       -4.697   1.253  -0.196  0.00  0.00    -0.082 HD
ATOM     41  C   LIG    1       -5.410   3.182  -0.274  0.00  0.00    -0.096 C 
ATOM     42  C   LIG    1       -5.010   1.752   1.784  0.00  0.00    -0.096 C 
ENDBRANCH  34  39
BRANCH  33  43
ATOM     43  O   LIG    1       -2.492   0.063  -0.471  0.00  0.00    -0.388 OA
ATOM     44  H   LIG    1       -2.008  -0.729  -0.223  0.00  0.00    +0.210 HD
ENDBRANCH  33  43
ENDBRANCH  31  32
ENDBRANCH   1  31
BRANCH  27  45
ATOM     45  O   LIG    1        1.466  -1.707   1.766  0.00  0.00    -0.367 OA
BRANCH  45  46
ATOM     46  C   LIG    1        1.849  -2.645   2.771  0.00  0.00    +0.188 C 
BRANCH  46  47
ATOM     47  C   LIG    1        0.878  -3.808   2.761  0.00  0.00    +0.001 C 
ATOM     48  C   LIG    1        1.229  -5.098   2.602  0.00  0.00    +0.007 C 
BRANCH  48  49
ATOM     49  C   LIG    1        0.326  -6.268   2.587  0.00  0.00    -0.007 A 
ATOM     50  C   LIG    1       -1.053  -6.172   2.807  0.00  0.00    +0.119 A 
ATOM     51  N   LIG    1       -1.898  -7.233   2.806  0.00  0.00    -0.254 NA
ATOM     52  C   LIG    1       -1.382  -8.471   2.575  0.00  0.00    +0.071 A 
ATOM     53  C   LIG    1       -2.252  -9.588   2.574  0.00  0.00    +0.028 A 
ATOM     54  C   LIG    1       -1.750 -10.866   2.340  0.00  0.00    +0.002 A 
ATOM     55  C   LIG    1       -0.392 -11.062   2.105  0.00  0.00    +0.001 A 
ATOM     56  C   LIG    1        0.491  -9.985   2.100  0.00  0.00    +0.010 A 
ATOM     57  C   LIG    1        0.011  -8.673   2.336  0.00  0.00    +0.001 A 
ATOM     58  C   LIG    1        0.859  -7.537   2.347  0.00  0.00    +0.019 A 
ENDBRANCH  48  49
ENDBRANCH  46  47
ENDBRANCH  45  46
ENDBRANCH  27  45
TORSDOF 9
