REMARK  Name = DB06697
REMARK                            x       y       z     vdW  Elec       q    Type
REMARK                         _______ _______ _______ _____ _____    ______ ____
ROOT
ATOM      1  C   LIG    1       -0.737   1.434  -2.486  0.00  0.00    +0.161 C 
ATOM      2  O   LIG    1       -2.160   1.472  -2.293  0.00  0.00    -0.220 OA
ATOM      3  O   LIG    1       -2.704   2.771  -1.792  0.00  0.00    -0.199 OA
ATOM      4  C   LIG    1       -1.742   3.829  -1.659  0.00  0.00    +0.203 C 
ATOM      5  C   LIG    1       -1.329   4.425  -3.029  0.00  0.00    +0.068 C 
ATOM      6  C   LIG    1       -1.207   3.424  -4.186  0.00  0.00    +0.012 C 
ATOM      7  C   LIG    1       -2.378   4.855  -0.704  0.00  0.00    +0.077 C 
ATOM      8  O   LIG    1       -0.544   3.416  -0.996  0.00  0.00    -0.314 OA
ATOM      9  C   LIG    1       -0.448   2.099  -3.887  0.00  0.00    +0.032 C 
ATOM     10  C   LIG    1        1.076   2.080  -4.223  0.00  0.00    -0.008 C 
ATOM     11  C   LIG    1        1.515   0.600  -4.310  0.00  0.00    +0.004 C 
ATOM     12  C   LIG    1        1.232  -0.159  -3.004  0.00  0.00    +0.007 C 
ATOM     13  C   LIG    1        1.483   2.839  -5.504  0.00  0.00    +0.008 C 
ATOM     14  C   LIG    1       -0.254  -0.053  -2.530  0.00  0.00    +0.037 C 
ATOM     15  C   LIG    1       -0.527  -0.766  -1.171  0.00  0.00    +0.048 C 
ATOM     16  C   LIG    1       -0.010   0.068   0.020  0.00  0.00    +0.256 C 
ATOM     17  O   LIG    1       -0.465   1.396  -0.070  0.00  0.00    -0.319 OA
ATOM     18  C   LIG    1       -0.082  -2.243  -1.120  0.00  0.00    +0.013 C 
ATOM     19  C   LIG    1       -0.102   2.105  -1.230  0.00  0.00    +0.292 C 
ENDROOT
BRANCH  16  20
ATOM     20  O   LIG    1        1.384  -0.025   0.086  0.00  0.00    -0.354 OA
ATOM     21  C   LIG    1        1.969   0.550   1.247  0.00  0.00    +0.197 C 
ENDBRANCH  16  20
TORSDOF 1
