REMARK  Name = DB06654
REMARK                            x       y       z     vdW  Elec       q    Type
REMARK                         _______ _______ _______ _____ _____    ______ ____
ROOT
ATOM      1  C   LIG    1        2.091  -1.353   0.056  0.00  0.00    -0.033 A 
ATOM      2  C   LIG    1        1.743  -2.254  -0.953  0.00  0.00    +0.008 A 
ATOM      3  C   LIG    1        2.200  -3.568  -0.900  0.00  0.00    +0.046 A 
ATOM      4  C   LIG    1        3.009  -3.996   0.153  0.00  0.00    +0.121 A 
ATOM      5  C   LIG    1        3.362  -3.084   1.161  0.00  0.00    +0.046 A 
ATOM      6  C   LIG    1        2.906  -1.770   1.110  0.00  0.00    +0.008 A 
ENDROOT
BRANCH   1   7
ATOM      7  C   LIG    1        1.602   0.085  -0.001  0.00  0.00    +0.117 C 
BRANCH   7   8
ATOM      8  N   LIG    1        0.156   0.150   0.179  0.00  0.00    -0.302 NA
ATOM      9  H   LIG    1       -0.258  -0.498   0.835  0.00  0.00    +0.123 HD
BRANCH   8  10
ATOM     10  C   LIG    1       -0.516   1.460   0.014  0.00  0.00    +0.137 C 
ATOM     11  C   LIG    1       -2.050   1.333  -0.029  0.00  0.00    +0.034 C 
BRANCH  10  12
ATOM     12  C   LIG    1       -0.091   2.410   1.159  0.00  0.00    +0.227 C 
ATOM     13  N   LIG    1        0.283   3.643   0.806  0.00  0.00    -0.328 N 
ATOM     14  H   LIG    1        0.571   4.305   1.511  0.00  0.00    +0.145 HD
ATOM     15  H   LIG    1        0.282   3.919  -0.165  0.00  0.00    +0.145 HD
ATOM     16  O   LIG    1       -0.106   2.030   2.330  0.00  0.00    -0.274 OA
ENDBRANCH  10  12
ENDBRANCH   8  10
ENDBRANCH   7   8
ENDBRANCH   1   7
BRANCH   4  17
ATOM     17  O   LIG    1        3.412  -5.317   0.122  0.00  0.00    -0.487 OA
BRANCH  17  18
ATOM     18  C   LIG    1        4.246  -5.821   1.166  0.00  0.00    +0.264 C 
BRANCH  18  19
ATOM     19  C   LIG    1        4.595  -7.290   0.946  0.00  0.00    -0.008 A 
ATOM     20  C   LIG    1        4.151  -8.002  -0.177  0.00  0.00    +0.007 A 
ATOM     21  C   LIG    1        4.495  -9.344  -0.344  0.00  0.00    +0.003 A 
ATOM     22  C   LIG    1        5.286  -9.985   0.609  0.00  0.00    +0.038 A 
ATOM     23  C   LIG    1        5.732  -9.285   1.729  0.00  0.00    +0.124 A 
ATOM     24  F   LIG    1        6.500  -9.906   2.653  0.00  0.00    -0.205 F 
ATOM     25  C   LIG    1        5.388  -7.943   1.896  0.00  0.00    +0.045 A 
ENDBRANCH  18  19
ENDBRANCH  17  18
ENDBRANCH   4  17
TORSDOF 7
