REMARK  Name = DB06334
REMARK                            x       y       z     vdW  Elec       q    Type
REMARK                         _______ _______ _______ _____ _____    ______ ____
ROOT
ATOM      1  C   LIG    1        1.543   0.057   0.116  0.00  0.00    -0.030 A 
ATOM      2  C   LIG    1        2.183   0.044  -1.124  0.00  0.00    +0.006 A 
ATOM      3  C   LIG    1        3.573   0.018  -1.192  0.00  0.00    +0.013 A 
ATOM      4  C   LIG    1        4.344  -0.007  -0.019  0.00  0.00    +0.037 A 
ATOM      5  C   LIG    1        3.690   0.002   1.221  0.00  0.00    +0.013 A 
ATOM      6  C   LIG    1        2.299   0.024   1.288  0.00  0.00    +0.006 A 
ENDROOT
BRANCH   4   7
ATOM      7  C   LIG    1        5.857  -0.038  -0.067  0.00  0.00    +0.248 C 
ATOM      8  N   LIG    1        6.400  -0.526  -1.206  0.00  0.00    -0.280 N 
ATOM      9  H   LIG    1        5.766  -0.740  -1.962  0.00  0.00    +0.155 HD
ATOM     10  O   LIG    1        6.518   0.350   0.900  0.00  0.00    -0.270 OA
BRANCH   8  11
ATOM     11  C   LIG    1        7.768  -0.699  -1.502  0.00  0.00    +0.055 A 
ATOM     12  C   LIG    1        8.224  -0.485  -2.818  0.00  0.00    +0.049 A 
ATOM     13  C   LIG    1        9.571  -0.689  -3.130  0.00  0.00    +0.063 A 
ATOM     14  C   LIG    1       10.467  -1.111  -2.150  0.00  0.00    +0.125 A 
ATOM     15  F   LIG    1       11.768  -1.307  -2.463  0.00  0.00    -0.205 F 
ATOM     16  C   LIG    1       10.022  -1.338  -0.851  0.00  0.00    +0.040 A 
ATOM     17  C   LIG    1        8.681  -1.140  -0.527  0.00  0.00    +0.028 A 
BRANCH  12  18
ATOM     18  N   LIG    1        7.368  -0.065  -3.842  0.00  0.00    -0.356 N 
ATOM     19  H   LIG    1        6.652   0.593  -3.568  0.00  0.00    +0.142 HD
ATOM     20  H   LIG    1        7.798   0.059  -4.747  0.00  0.00    +0.142 HD
ENDBRANCH  12  18
ENDBRANCH   8  11
ENDBRANCH   4   7
BRANCH   1  21
ATOM     21  C   LIG    1        0.020   0.035   0.185  0.00  0.00    +0.139 C 
BRANCH  21  23
ATOM     22  C   LIG    1       -0.627   2.278   1.070  0.00  0.00    +0.237 C 
ATOM     23  N   LIG    1       -0.598   1.359   0.088  0.00  0.00    -0.308 N 
ATOM     24  H   LIG    1       -0.978   1.607  -0.813  0.00  0.00    +0.149 HD
ATOM     25  O   LIG    1       -0.153   2.088   2.192  0.00  0.00    -0.271 OA
BRANCH  22  27
ATOM     26  C   LIG    1       -1.451   4.545   1.523  0.00  0.00    +0.014 C 
ATOM     27  C   LIG    1       -1.284   3.505   0.676  0.00  0.00    +0.068 C 
BRANCH  26  32
ATOM     28  C   LIG    1       -3.110   7.433  -0.312  0.00  0.00    +0.020 A 
ATOM     29  C   LIG    1       -3.319   8.277   0.778  0.00  0.00    +0.111 A 
ATOM     30  N   LIG    1       -2.951   7.952   2.042  0.00  0.00    -0.263 NA
ATOM     31  C   LIG    1       -2.354   6.748   2.237  0.00  0.00    +0.118 A 
ATOM     32  C   LIG    1       -2.101   5.834   1.207  0.00  0.00    -0.007 A 
ATOM     33  C   LIG    1       -2.495   6.199  -0.090  0.00  0.00    +0.011 A 
ENDBRANCH  26  32
ENDBRANCH  22  27
ENDBRANCH  21  23
ENDBRANCH   1  21
TORSDOF 7
