REMARK  Name = DB06618
REMARK                            x       y       z     vdW  Elec       q    Type
REMARK                         _______ _______ _______ _____ _____    ______ ____
ROOT
ATOM      1  N   LIG    1        1.887  -0.290   1.954  0.00  0.00    -0.306 NA
ATOM      2  C   LIG    1        2.416   1.082   1.926  0.00  0.00    +0.066 C 
ATOM      3  C   LIG    1        3.341   1.331   0.711  0.00  0.00    -0.063 C 
ATOM      4  N   LIG    1        4.534   0.346   0.785  0.00  0.00    +0.381 N 
ATOM      5  H   LIG    1        5.045   0.529   1.637  0.00  0.00    -0.082 HD
ATOM      6  C   LIG    1        3.998  -1.105   0.864  0.00  0.00    -0.063 C 
ATOM      7  C   LIG    1        3.016  -1.226   2.058  0.00  0.00    +0.066 C 
ENDROOT
BRANCH   1   8
ATOM      8  C   LIG    1        0.929  -0.674   0.904  0.00  0.00    +0.089 C 
BRANCH   8   9
ATOM      9  C   LIG    1       -0.430   0.071   0.920  0.00  0.00    +0.050 C 
BRANCH   9  13
ATOM     10  C   LIG    1       -0.343   4.200  -0.409  0.00  0.00    +0.161 A 
ATOM     11  C   LIG    1       -0.906   3.855   0.832  0.00  0.00    +0.049 A 
ATOM     12  C   LIG    1       -0.938   2.529   1.255  0.00  0.00    +0.007 A 
ATOM     13  C   LIG    1       -0.407   1.521   0.449  0.00  0.00    -0.042 A 
ATOM     14  C   LIG    1        0.135   1.855  -0.794  0.00  0.00    +0.053 A 
ATOM     15  C   LIG    1        0.183   3.190  -1.230  0.00  0.00    +0.162 A 
BRANCH  10  16
ATOM     16  O   LIG    1       -0.272   5.498  -0.884  0.00  0.00    -0.491 OA
ATOM     17  C   LIG    1       -0.797   6.563  -0.098  0.00  0.00    +0.277 C 
ENDBRANCH  10  16
BRANCH  15  18
ATOM     18  O   LIG    1        0.730   3.582  -2.439  0.00  0.00    -0.491 OA
ATOM     19  C   LIG    1        1.304   2.603  -3.300  0.00  0.00    +0.277 C 
ENDBRANCH  15  18
ENDBRANCH   9  13
ENDBRANCH   8   9
ENDBRANCH   1   8
BRANCH   4  20
ATOM     20  C   LIG    1        5.490   0.488  -0.424  0.00  0.00    -0.078 C 
BRANCH  20  21
ATOM     21  C   LIG    1        6.250   1.826  -0.385  0.00  0.00    -0.014 C 
BRANCH  21  22
ATOM     22  C   LIG    1        7.308   1.927  -1.497  0.00  0.00    +0.033 C 
BRANCH  22  23
ATOM     23  C   LIG    1        8.070   3.244  -1.463  0.00  0.00    -0.047 A 
ATOM     24  C   LIG    1        9.273   3.337  -0.757  0.00  0.00    +0.003 A 
ATOM     25  C   LIG    1        9.967   4.543  -0.723  0.00  0.00    +0.000 A 
ATOM     26  C   LIG    1        9.455   5.653  -1.393  0.00  0.00    +0.000 A 
ATOM     27  C   LIG    1        8.256   5.567  -2.097  0.00  0.00    +0.000 A 
ATOM     28  C   LIG    1        7.561   4.360  -2.132  0.00  0.00    +0.003 A 
ENDBRANCH  22  23
ENDBRANCH  21  22
ENDBRANCH  20  21
ENDBRANCH   4  20
TORSDOF 9
