REMARK  Name = DB06213
REMARK                            x       y       z     vdW  Elec       q    Type
REMARK                         _______ _______ _______ _____ _____    ______ ____
ROOT
ATOM      1  N   LIG    1        0.389   0.314   0.318  0.00  0.00    -0.285 N 
ATOM      2  C   LIG    1       -0.280  -0.833   0.556  0.00  0.00    +0.203 A 
ATOM      3  N   LIG    1       -1.583  -0.701   0.530  0.00  0.00    -0.231 NA
ATOM      4  C   LIG    1       -1.779   0.605   0.292  0.00  0.00    +0.147 A 
ATOM      5  C   LIG    1       -2.966   1.365   0.165  0.00  0.00    +0.149 A 
ATOM      6  N   LIG    1       -2.856   2.700  -0.067  0.00  0.00    -0.194 NA
ATOM      7  C   LIG    1       -1.615   3.217  -0.157  0.00  0.00    +0.255 A 
ATOM      8  N   LIG    1       -0.419   2.603  -0.060  0.00  0.00    -0.191 NA
ATOM      9  C   LIG    1       -0.572   1.275   0.166  0.00  0.00    +0.170 A 
ENDROOT
BRANCH   1  14
ATOM     10  O4* LIG    1        2.511  -0.484  -0.405  0.00  0.00    -0.346 OA
ATOM     11  C4* LIG    1        3.511  -1.162   0.344  0.00  0.00    +0.177 C 
ATOM     12  C3* LIG    1        3.087  -0.875   1.784  0.00  0.00    +0.178 C 
ATOM     13  C2* LIG    1        2.534   0.547   1.711  0.00  0.00    +0.195 C 
ATOM     14  C1* LIG    1        1.888   0.541   0.319  0.00  0.00    +0.253 C 
BRANCH  13  15
ATOM     15  O2* LIG    1        3.512   1.574   1.768  0.00  0.00    -0.385 OA
ATOM     16  H2* LIG    1        3.825   1.648   2.673  0.00  0.00    +0.210 HD
ENDBRANCH  13  15
BRANCH  12  17
ATOM     17  O3* LIG    1        4.129  -1.037   2.728  0.00  0.00    -0.386 OA
ATOM     18  H3* LIG    1        4.869  -0.484   2.465  0.00  0.00    +0.210 HD
ENDBRANCH  12  17
BRANCH  11  19
ATOM     19  C5* LIG    1        3.507  -2.641  -0.086  0.00  0.00    +0.190 C 
BRANCH  19  20
ATOM     20  O5* LIG    1        4.497  -3.372   0.609  0.00  0.00    -0.392 OA
ATOM     21  H5* LIG    1        4.462  -4.287   0.319  0.00  0.00    +0.210 HD
ENDBRANCH  19  20
ENDBRANCH  11  19
ENDBRANCH   1  14
BRANCH   7  22
ATOM     22  N   LIG    1       -1.529   4.629  -0.400  0.00  0.00    -0.205 N 
ATOM     23  C   LIG    1       -0.390   5.372  -0.621  0.00  0.00    +0.130 A 
ATOM     24  C   LIG    1       -0.824   6.685  -0.788  0.00  0.00    +0.075 A 
ATOM     25  C   LIG    1       -2.219   6.602  -0.623  0.00  0.00    +0.148 A 
ATOM     26  N   LIG    1       -2.648   5.380  -0.400  0.00  0.00    -0.171 NA
BRANCH  24  27
ATOM     27  C   LIG    1       -0.049   7.879  -1.011  0.00  0.00    +0.247 C 
ATOM     28  N   LIG    1        1.251   7.661  -1.281  0.00  0.00    -0.314 N 
ATOM     29  H   LIG    1        1.577   6.709  -1.359  0.00  0.00    +0.149 HD
ATOM     30  C   LIG    1        2.233   8.710  -1.526  0.00  0.00    +0.128 C 
ATOM     31  O   LIG    1       -0.566   8.996  -0.949  0.00  0.00    -0.270 OA
ENDBRANCH  24  27
ENDBRANCH   7  22
BRANCH   5  32
ATOM     32  N   LIG    1       -4.239   0.809   0.270  0.00  0.00    -0.341 N 
ATOM     33  H   LIG    1       -5.048   1.405   0.173  0.00  0.00    +0.144 HD
ATOM     34  H   LIG    1       -4.335  -0.182   0.442  0.00  0.00    +0.144 HD
ENDBRANCH   5  32
TORSDOF 8
