REMARK  Name = DB06261
REMARK                            x       y       z     vdW  Elec       q    Type
REMARK                         _______ _______ _______ _____ _____    ______ ____
ROOT
ATOM      1  C   LIG    1       -0.210   1.645   0.800  0.00  0.00    +0.307 C 
ATOM      2  O   LIG    1        0.397   2.604   1.281  0.00  0.00    -0.251 OA
ENDROOT
BRANCH   1   3
ATOM      3  O   LIG    1        0.337   0.467   0.436  0.00  0.00    -0.465 OA
BRANCH   3   4
ATOM      4  C   LIG    1        1.731   0.235   0.596  0.00  0.00    +0.232 C 
BRANCH   4   5
ATOM      5  C   LIG    1        2.076  -1.177   0.103  0.00  0.00    +0.041 C 
BRANCH   5   6
ATOM      6  C   LIG    1        3.571  -1.507   0.257  0.00  0.00    +0.003 C 
BRANCH   6   7
ATOM      7  C   LIG    1        3.925  -2.926  -0.222  0.00  0.00    -0.000 C 
BRANCH   7   8
ATOM      8  C   LIG    1        5.423  -3.249  -0.088  0.00  0.00    -0.003 C 
ATOM      9  C   LIG    1        5.775  -4.666  -0.561  0.00  0.00    +0.004 C 
ENDBRANCH   7   8
ENDBRANCH   6   7
ENDBRANCH   5   6
ENDBRANCH   4   5
ENDBRANCH   3   4
ENDBRANCH   1   3
BRANCH   1  10
ATOM     10  C   LIG    1       -1.724   1.670   0.543  0.00  0.00    +0.128 C 
BRANCH  10  11
ATOM     11  C   LIG    1       -2.438   3.025   0.777  0.00  0.00    +0.087 C 
BRANCH  11  12
ATOM     12  C   LIG    1       -2.165   4.086  -0.295  0.00  0.00    +0.147 C 
ATOM     13  O   LIG    1       -1.399   5.024  -0.067  0.00  0.00    -0.296 OA
BRANCH  12  14
ATOM     14  C   LIG    1       -2.894   3.910  -1.636  0.00  0.00    +0.152 C 
BRANCH  14  15
ATOM     15  N   LIG    1       -2.563   4.928  -2.621  0.00  0.00    -0.324 NA
ATOM     16  H   LIG    1       -2.898   5.827  -2.305  0.00  0.00    +0.119 HD
ATOM     17  H   LIG    1       -3.046   4.734  -3.487  0.00  0.00    +0.119 HD
ENDBRANCH  14  15
ENDBRANCH  12  14
ENDBRANCH  11  12
ENDBRANCH  10  11
ENDBRANCH   1  10
TORSDOF 11
