REMARK  Name = DB06406
REMARK                            x       y       z     vdW  Elec       q    Type
REMARK                         _______ _______ _______ _____ _____    ______ ____
ROOT
ATOM      1  C   LIG    1       -0.862   1.076  -1.947  0.00  0.00    +0.219 C 
ATOM      2  C   LIG    1       -1.274   0.209  -0.737  0.00  0.00    +0.241 C 
ATOM      3  C   LIG    1       -0.724   0.799   0.571  0.00  0.00    +0.285 C 
ATOM      4  O   LIG    1       -1.109   2.144   0.716  0.00  0.00    -0.340 OA
ATOM      5  C   LIG    1       -0.665   3.010  -0.335  0.00  0.00    +0.181 C 
ATOM      6  C   LIG    1       -1.255   2.546  -1.685  0.00  0.00    +0.186 C 
ENDROOT
BRANCH   1   7
ATOM      7  O   LIG    1       -1.499   0.608  -3.134  0.00  0.00    -0.207 OA
BRANCH   7   9
ATOM      8  O   LIG    1        0.550   0.655  -4.550  0.00  0.00    -0.118 OA
ATOM      9  S   LIG    1       -0.595  -0.222  -4.275  0.00  0.00    +0.208 S 
ATOM     10  O   LIG    1       -1.524  -0.374  -5.400  0.00  0.00    -0.118 OA
BRANCH   9  11
ATOM     11  O   LIG    1       -0.233  -1.481  -3.618  0.00  0.00    -0.231 OA
ATOM     12  H   LIG    1        0.298  -2.021  -4.224  0.00  0.00    +0.247 HD
ENDBRANCH   9  11
ENDBRANCH   7   9
ENDBRANCH   1   7
BRANCH   2  13
ATOM     13  O   LIG    1       -0.819  -1.131  -0.891  0.00  0.00    -0.205 OA
BRANCH  13  14
ATOM     14  S   LIG    1       -1.903  -2.377  -0.635  0.00  0.00    +0.208 S 
ATOM     15  O   LIG    1       -2.961  -2.144  -1.626  0.00  0.00    -0.118 OA
ATOM     16  O   LIG    1       -2.333  -2.197   0.757  0.00  0.00    -0.118 OA
BRANCH  14  17
ATOM     17  O   LIG    1       -1.106  -3.586  -0.869  0.00  0.00    -0.231 OA
ATOM     18  H   LIG    1       -0.433  -3.668  -0.176  0.00  0.00    +0.247 HD
ENDBRANCH  14  17
ENDBRANCH  13  14
ENDBRANCH   2  13
BRANCH   3  19
ATOM     19  O   LIG    1        0.663   0.621   0.571  0.00  0.00    -0.340 OA
BRANCH  19  20
ATOM     20  C   LIG    1        1.437   1.083   1.684  0.00  0.00    +0.192 C 
ATOM     21  C   LIG    1        2.899   1.404   1.226  0.00  0.00    +0.260 C 
ATOM     22  O   LIG    1        3.831   1.522   2.315  0.00  0.00    -0.331 OA
ATOM     23  C   LIG    1        3.855   0.474   3.255  0.00  0.00    +0.283 C 
ATOM     24  C   LIG    1        2.485   0.374   3.928  0.00  0.00    +0.205 C 
ATOM     25  C   LIG    1        1.399   0.069   2.859  0.00  0.00    +0.183 C 
BRANCH  21  26
ATOM     26  C   LIG    1        3.489   0.458   0.142  0.00  0.00    +0.337 C 
ATOM     27  O   LIG    1        4.463  -0.274   0.315  0.00  0.00    -0.248 OA
BRANCH  26  28
ATOM     28  O   LIG    1        2.841   0.585  -1.053  0.00  0.00    -0.479 OA
ATOM     29  H   LIG    1        3.199   0.009  -1.732  0.00  0.00    +0.295 HD
ENDBRANCH  26  28
ENDBRANCH  21  26
BRANCH  24  30
ATOM     30  O   LIG    1        2.495  -0.513   5.053  0.00  0.00    -0.372 OA
ATOM     31  C   LIG    1        2.495  -1.912   4.787  0.00  0.00    +0.194 C 
ENDBRANCH  24  30
BRANCH  25  32
ATOM     32  O   LIG    1        0.105  -0.109   3.446  0.00  0.00    -0.374 OA
ATOM     33  C   LIG    1       -0.472   0.992   4.143  0.00  0.00    +0.194 C 
ENDBRANCH  25  32
BRANCH  23  34
ATOM     34  O   LIG    1        4.791   0.743   4.257  0.00  0.00    -0.340 OA
BRANCH  34  35
ATOM     35  C   LIG    1        6.167   0.732   3.864  0.00  0.00    +0.186 C 
ATOM     36  C   LIG    1        6.753   2.153   3.946  0.00  0.00    +0.219 C 
ATOM     37  C   LIG    1        8.277   2.122   3.724  0.00  0.00    +0.241 C 
ATOM     38  C   LIG    1        8.953   1.087   4.637  0.00  0.00    +0.284 C 
ATOM     39  O   LIG    1        8.353  -0.179   4.486  0.00  0.00    -0.340 OA
ATOM     40  C   LIG    1        6.954  -0.213   4.799  0.00  0.00    +0.181 C 
BRANCH  38  41
ATOM     41  O   LIG    1        8.908   1.552   5.956  0.00  0.00    -0.352 OA
ATOM     42  C   LIG    1        9.665   0.787   6.884  0.00  0.00    +0.197 C 
ENDBRANCH  38  41
BRANCH  36  43
ATOM     43  O   LIG    1        6.159   2.977   2.949  0.00  0.00    -0.207 OA
BRANCH  43  44
ATOM     44  S   LIG    1        5.299   4.327   3.432  0.00  0.00    +0.208 S 
ATOM     45  O   LIG    1        6.294   5.164   4.112  0.00  0.00    -0.118 OA
ATOM     46  O   LIG    1        4.255   3.796   4.317  0.00  0.00    -0.118 OA
BRANCH  44  47
ATOM     47  O   LIG    1        4.797   4.882   2.171  0.00  0.00    -0.231 OA
ATOM     48  H   LIG    1        4.147   4.274   1.785  0.00  0.00    +0.247 HD
ENDBRANCH  44  47
ENDBRANCH  43  44
ENDBRANCH  36  43
BRANCH  37  49
ATOM     49  O   LIG    1        8.836   3.413   3.937  0.00  0.00    -0.205 OA
BRANCH  49  50
ATOM     50  S   LIG    1        9.814   4.061   2.748  0.00  0.00    +0.208 S 
ATOM     51  O   LIG    1       10.899   3.083   2.606  0.00  0.00    -0.118 OA
ATOM     52  O   LIG    1       10.233   5.351   3.307  0.00  0.00    -0.118 OA
BRANCH  50  53
ATOM     53  O   LIG    1        8.938   4.162   1.575  0.00  0.00    -0.231 OA
ATOM     54  H   LIG    1        8.249   4.824   1.742  0.00  0.00    +0.247 HD
ENDBRANCH  50  53
ENDBRANCH  49  50
ENDBRANCH  37  49
BRANCH  40  55
ATOM     55  C   LIG    1        6.473  -1.670   4.695  0.00  0.00    +0.230 C 
BRANCH  55  56
ATOM     56  O   LIG    1        7.171  -2.472   5.632  0.00  0.00    -0.213 OA
BRANCH  56  57
ATOM     57  S   LIG    1        6.709  -4.069   5.741  0.00  0.00    +0.208 S 
ATOM     58  O   LIG    1        7.065  -4.745   4.488  0.00  0.00    -0.118 OA
ATOM     59  O   LIG    1        5.342  -4.115   6.272  0.00  0.00    -0.118 OA
BRANCH  57  60
ATOM     60  O   LIG    1        7.751  -4.583   6.928  0.00  0.00    -0.231 OA
ATOM     61  H   LIG    1        8.476  -5.114   6.547  0.00  0.00    +0.247 HD
ENDBRANCH  57  60
ENDBRANCH  56  57
ENDBRANCH  55  56
ENDBRANCH  40  55
ENDBRANCH  34  35
ENDBRANCH  23  34
ENDBRANCH  19  20
ENDBRANCH   3  19
BRANCH   5  62
ATOM     62  C   LIG    1       -1.085   4.444   0.035  0.00  0.00    +0.230 C 
BRANCH  62  63
ATOM     63  O   LIG    1       -0.476   4.816   1.265  0.00  0.00    -0.213 OA
BRANCH  63  64
ATOM     64  S   LIG    1       -1.437   5.526   2.432  0.00  0.00    +0.208 S 
ATOM     65  O   LIG    1       -2.432   4.496   2.754  0.00  0.00    -0.118 OA
ATOM     66  O   LIG    1       -1.991   6.712   1.768  0.00  0.00    -0.118 OA
BRANCH  64  67
ATOM     67  O   LIG    1       -0.500   5.823   3.521  0.00  0.00    -0.231 OA
ATOM     68  H   LIG    1        0.123   6.510   3.233  0.00  0.00    +0.247 HD
ENDBRANCH  64  67
ENDBRANCH  63  64
ENDBRANCH  62  63
ENDBRANCH   5  62
BRANCH   6  69
ATOM     69  O   LIG    1       -0.809   3.435  -2.713  0.00  0.00    -0.340 OA
BRANCH  69  70
ATOM     70  C   LIG    1       -1.621   3.558  -3.845  0.00  0.00    +0.283 C 
ATOM     71  O   LIG    1       -0.925   3.106  -4.973  0.00  0.00    -0.331 OA
ATOM     72  C   LIG    1       -1.741   3.098  -6.150  0.00  0.00    +0.260 C 
ATOM     73  C   LIG    1       -2.159   4.545  -6.544  0.00  0.00    +0.192 C 
ATOM     74  C   LIG    1       -2.786   5.261  -5.315  0.00  0.00    +0.183 C 
ATOM     75  C   LIG    1       -1.931   5.051  -4.030  0.00  0.00    +0.205 C 
BRANCH  74  76
ATOM     76  O   LIG    1       -3.109   6.639  -5.530  0.00  0.00    -0.374 OA
ATOM     77  C   LIG    1       -2.033   7.559  -5.687  0.00  0.00    +0.194 C 
ENDBRANCH  74  76
BRANCH  75  78
ATOM     78  O   LIG    1       -2.452   5.664  -2.846  0.00  0.00    -0.372 OA
ATOM     79  C   LIG    1       -3.786   5.340  -2.472  0.00  0.00    +0.194 C 
ENDBRANCH  75  78
BRANCH  72  80
ATOM     80  C   LIG    1       -0.882   2.450  -7.255  0.00  0.00    +0.337 C 
ATOM     81  O   LIG    1        0.347   2.400  -7.233  0.00  0.00    -0.248 OA
BRANCH  80  82
ATOM     82  O   LIG    1       -1.654   1.936  -8.257  0.00  0.00    -0.479 OA
ATOM     83  H   LIG    1       -1.124   1.511  -8.935  0.00  0.00    +0.295 HD
ENDBRANCH  80  82
ENDBRANCH  72  80
BRANCH  73  84
ATOM     84  O   LIG    1       -3.043   4.444  -7.668  0.00  0.00    -0.340 OA
BRANCH  84  85
ATOM     85  C   LIG    1       -3.325   5.587  -8.428  0.00  0.00    +0.282 C 
ATOM     86  C   LIG    1       -4.244   5.202  -9.611  0.00  0.00    +0.205 C 
ATOM     87  C   LIG    1       -3.479   4.372 -10.683  0.00  0.00    +0.183 C 
ATOM     88  C   LIG    1       -2.141   5.069 -11.033  0.00  0.00    +0.180 C 
ATOM     89  C   LIG    1       -1.350   5.426  -9.755  0.00  0.00    +0.181 C 
ATOM     90  O   LIG    1       -2.165   6.229  -8.893  0.00  0.00    -0.340 OA
BRANCH  88  91
ATOM     91  O   LIG    1       -1.353   4.384 -12.014  0.00  0.00    -0.374 OA
ATOM     92  C   LIG    1       -0.943   3.052 -11.719  0.00  0.00    +0.194 C 
ENDBRANCH  88  91
BRANCH  86  93
ATOM     93  O   LIG    1       -5.525   4.693  -9.218  0.00  0.00    -0.372 OA
ATOM     94  C   LIG    1       -5.592   3.437  -8.549  0.00  0.00    +0.194 C 
ENDBRANCH  86  93
BRANCH  87  95
ATOM     95  O   LIG    1       -4.198   4.243 -11.912  0.00  0.00    -0.374 OA
ATOM     96  C   LIG    1       -5.229   3.267 -11.952  0.00  0.00    +0.194 C 
ENDBRANCH  87  95
BRANCH  89  97
ATOM     97  C   LIG    1       -0.056   6.207 -10.032  0.00  0.00    +0.230 C 
BRANCH  97  98
ATOM     98  O   LIG    1        0.630   6.387  -8.800  0.00  0.00    -0.213 OA
BRANCH  98  99
ATOM     99  S   LIG    1        1.158   7.921  -8.406  0.00  0.00    +0.208 S 
ATOM    100  O   LIG    1       -0.062   8.736  -8.407  0.00  0.00    -0.118 OA
ATOM    101  O   LIG    1        2.108   8.255  -9.473  0.00  0.00    -0.118 OA
BRANCH  99 102
ATOM    102  O   LIG    1        1.767   7.745  -7.083  0.00  0.00    -0.231 OA
ATOM    103  H   LIG    1        2.564   7.198  -7.164  0.00  0.00    +0.247 HD
ENDBRANCH  99 102
ENDBRANCH  98  99
ENDBRANCH  97  98
ENDBRANCH  89  97
ENDBRANCH  84  85
ENDBRANCH  73  84
ENDBRANCH  69  70
ENDBRANCH   6  69
TORSDOF 44
