REMARK  Name = DB06331
REMARK                            x       y       z     vdW  Elec       q    Type
REMARK                         _______ _______ _______ _____ _____    ______ ____
ROOT
ATOM      1 CL   LIG    1        5.973  -0.083   0.000  0.00  0.00    -0.078 Cl
ATOM      2  C   LIG    1        4.225  -0.093   0.000  0.00  0.00    +0.109 A 
ATOM      3  C   LIG    1        3.498  -1.308   0.000  0.00  0.00    +0.160 A 
ATOM      4  C   LIG    1        2.088  -1.271   0.000  0.00  0.00    +0.145 A 
ATOM      5  C   LIG    1        1.451  -0.028   0.000  0.00  0.00    +0.237 A 
ATOM      6  N   LIG    1        2.146   1.139   0.000  0.00  0.00    -0.211 NA
ATOM      7 CL   LIG    1        1.099  -2.708   0.000  0.00  0.00    -0.074 Cl
ATOM      8  C   LIG    1        3.504   1.122   0.000  0.00  0.00    +0.117 A 
ENDROOT
BRANCH   8   9
ATOM      9  C   LIG    1        4.182   2.514   0.000  0.00  0.00    +0.234 C 
ATOM     10 CL   LIG    1        5.195   2.720  -1.457  0.00  0.00    -0.077 Cl
ATOM     11 CL   LIG    1        3.024   3.887   0.000  0.00  0.00    -0.077 Cl
ATOM     12 CL   LIG    1        5.195   2.720   1.457  0.00  0.00    -0.077 Cl
ENDBRANCH   8   9
BRANCH   5  13
ATOM     13  O   LIG    1        0.067   0.021   0.000  0.00  0.00    -0.479 OA
ATOM     14  C   LIG    1       -0.600   1.282   0.000  0.00  0.00    +0.279 C 
ENDBRANCH   5  13
BRANCH   3  15
ATOM     15  O   LIG    1        4.108  -2.433   0.000  0.00  0.00    -0.504 OA
ATOM     16  H   LIG    1        5.045  -2.458   0.000  0.00  0.00    +0.292 HD
ENDBRANCH   3  15
TORSDOF 3
