REMARK  Name = DB06075
REMARK                            x       y       z     vdW  Elec       q    Type
REMARK                         _______ _______ _______ _____ _____    ______ ____
ROOT
ATOM      1  C   LIG    1        1.579   0.036  -0.076  0.00  0.00    +0.118 A 
ATOM      2  N   LIG    1        2.392  -0.529   0.793  0.00  0.00    -0.231 NA
ATOM      3  C   LIG    1        3.629  -0.400   0.352  0.00  0.00    +0.100 A 
ATOM      4  C   LIG    1        3.625   0.230  -0.930  0.00  0.00    +0.113 A 
ATOM      5  C   LIG    1        4.528   0.613  -1.949  0.00  0.00    +0.142 A 
ATOM      6  N   LIG    1        4.119   1.226  -3.089  0.00  0.00    -0.237 NA
ATOM      7  C   LIG    1        2.800   1.471  -3.267  0.00  0.00    +0.131 A 
ATOM      8  C   LIG    1        1.841   1.116  -2.326  0.00  0.00    +0.113 A 
ATOM      9  N   LIG    1        2.265   0.502  -1.174  0.00  0.00    -0.298 N 
ENDROOT
BRANCH   3  10
ATOM     10  C   LIG    1        4.785  -0.889   1.161  0.00  0.00    +0.005 A 
ATOM     11  C   LIG    1        4.734  -2.145   1.772  0.00  0.00    +0.011 A 
ATOM     12  C   LIG    1        5.811  -2.633   2.507  0.00  0.00    +0.010 A 
ATOM     13  C   LIG    1        6.986  -1.857   2.644  0.00  0.00    +0.000 A 
ATOM     14  C   LIG    1        8.117  -2.300   3.367  0.00  0.00    +0.012 A 
ATOM     15  C   LIG    1        9.239  -1.478   3.455  0.00  0.00    +0.029 A 
ATOM     16  C   LIG    1        9.232  -0.222   2.836  0.00  0.00    +0.072 A 
ATOM     17  N   LIG    1        8.152   0.217   2.129  0.00  0.00    -0.247 NA
ATOM     18  C   LIG    1        7.048  -0.572   2.029  0.00  0.00    +0.072 A 
ATOM     19  C   LIG    1        5.934  -0.104   1.291  0.00  0.00    +0.038 A 
BRANCH  16  20
ATOM     20  C   LIG    1       10.413   0.703   2.889  0.00  0.00    +0.000 A 
ATOM     21  C   LIG    1       10.622   1.675   1.896  0.00  0.00    +0.010 A 
ATOM     22  C   LIG    1       11.720   2.531   1.948  0.00  0.00    +0.001 A 
ATOM     23  C   LIG    1       12.625   2.427   2.999  0.00  0.00    +0.000 A 
ATOM     24  C   LIG    1       12.439   1.475   3.997  0.00  0.00    +0.001 A 
ATOM     25  C   LIG    1       11.340   0.621   3.940  0.00  0.00    +0.010 A 
ENDBRANCH  16  20
ENDBRANCH   3  10
BRANCH   1  29
ATOM     26  C   LIG    1       -2.907  -0.054   0.193  0.00  0.00    +0.041 C 
ATOM     27  C   LIG    1       -1.741  -1.068   0.294  0.00  0.00    +0.065 C 
ATOM     28  C   LIG    1       -0.607  -0.617   1.235  0.00  0.00    +0.045 C 
ATOM     29  C   LIG    1        0.060   0.068   0.021  0.00  0.00    +0.061 C 
ATOM     30  C   LIG    1       -0.714  -0.943  -0.847  0.00  0.00    +0.045 C 
BRANCH  27  31
ATOM     31  O   LIG    1       -2.296  -2.348   0.523  0.00  0.00    -0.389 OA
ATOM     32  H   LIG    1       -1.578  -2.982   0.587  0.00  0.00    +0.210 HD
ENDBRANCH  27  31
ENDBRANCH   1  29
BRANCH   5  33
ATOM     33  N   LIG    1        5.892   0.355  -1.846  0.00  0.00    -0.341 N 
ATOM     34  H   LIG    1        6.503   0.635  -2.599  0.00  0.00    +0.144 HD
ATOM     35  H   LIG    1        6.250  -0.110  -1.025  0.00  0.00    +0.144 HD
ENDBRANCH   5  33
TORSDOF 5
