REMARK  Name = DB06605
REMARK                            x       y       z     vdW  Elec       q    Type
REMARK                         _______ _______ _______ _____ _____    ______ ____
ROOT
ATOM      1  O   LIG    1        0.957   2.974  -0.357  0.00  0.00    -0.268 OA
ATOM      2  C   LIG    1       -0.198   2.599  -0.139  0.00  0.00    +0.270 C 
ATOM      3  C   LIG    1       -0.635   1.212  -0.045  0.00  0.00    +0.133 A 
ATOM      4  C   LIG    1       -1.948   0.754  -0.030  0.00  0.00    +0.017 A 
ATOM      5  C   LIG    1       -1.882  -0.656   0.016  0.00  0.00    +0.151 A 
ATOM      6  N   LIG    1       -0.622  -1.046  -0.004  0.00  0.00    -0.161 NA
ATOM      7  C   LIG    1       -3.080   1.756   0.006  0.00  0.00    +0.059 C 
ATOM      8  C   LIG    1       -2.541   3.071   0.621  0.00  0.00    +0.119 C 
ATOM      9  N   LIG    1        0.133   0.063  -0.036  0.00  0.00    -0.227 N 
ATOM     10  N   LIG    1       -1.255   3.478  -0.012  0.00  0.00    -0.266 N 
ENDROOT
BRANCH   9  11
ATOM     11  C   LIG    1        1.538  -0.083  -0.020  0.00  0.00    +0.066 A 
ATOM     12  C   LIG    1        2.296   0.562   0.961  0.00  0.00    +0.031 A 
ATOM     13  C   LIG    1        3.680   0.416   0.975  0.00  0.00    +0.048 A 
ATOM     14  C   LIG    1        4.319  -0.381   0.011  0.00  0.00    +0.120 A 
ATOM     15  C   LIG    1        3.551  -1.029  -0.957  0.00  0.00    +0.048 A 
ATOM     16  C   LIG    1        2.167  -0.886  -0.977  0.00  0.00    +0.031 A 
BRANCH  14  17
ATOM     17  O   LIG    1        5.685  -0.579  -0.054  0.00  0.00    -0.495 OA
ATOM     18  C   LIG    1        6.527   0.069   0.895  0.00  0.00    +0.277 C 
ENDBRANCH  14  17
ENDBRANCH   9  11
BRANCH  10  19
ATOM     19  C   LIG    1       -1.029   4.873  -0.091  0.00  0.00    +0.037 A 
ATOM     20  C   LIG    1       -0.578   5.441  -1.289  0.00  0.00    +0.025 A 
ATOM     21  C   LIG    1       -0.361   6.813  -1.375  0.00  0.00    +0.025 A 
ATOM     22  C   LIG    1       -0.598   7.637  -0.267  0.00  0.00    +0.036 A 
ATOM     23  C   LIG    1       -1.046   7.064   0.933  0.00  0.00    +0.025 A 
ATOM     24  C   LIG    1       -1.266   5.693   1.018  0.00  0.00    +0.025 A 
BRANCH  22  25
ATOM     25  N   LIG    1       -0.358   9.033  -0.345  0.00  0.00    -0.271 N 
ATOM     26  C   LIG    1       -1.382   9.924  -0.104  0.00  0.00    +0.220 C 
ATOM     27  C   LIG    1       -1.035  11.433  -0.163  0.00  0.00    +0.096 C 
ATOM     28  C   LIG    1        0.187  11.791  -1.017  0.00  0.00    +0.011 C 
ATOM     29  C   LIG    1        1.343  10.862  -0.692  0.00  0.00    +0.020 C 
ATOM     30  O   LIG    1       -2.513   9.582   0.250  0.00  0.00    -0.275 OA
ATOM     31  C   LIG    1        0.938   9.411  -0.971  0.00  0.00    +0.113 C 
ENDBRANCH  22  25
ENDBRANCH  10  19
BRANCH   5  32
ATOM     32  C   LIG    1       -3.024  -1.551   0.056  0.00  0.00    +0.262 C 
ATOM     33  N   LIG    1       -2.741  -2.857   0.148  0.00  0.00    -0.324 N 
ATOM     34  H   LIG    1       -3.487  -3.536   0.178  0.00  0.00    +0.145 HD
ATOM     35  H   LIG    1       -1.782  -3.168   0.187  0.00  0.00    +0.145 HD
ATOM     36  O   LIG    1       -4.183  -1.142   0.009  0.00  0.00    -0.269 OA
ENDBRANCH   5  32
TORSDOF 5
