REMARK  Name = DB06160
REMARK                            x       y       z     vdW  Elec       q    Type
REMARK                         _______ _______ _______ _____ _____    ______ ____
ROOT
ATOM      1  C   LIG    1        1.397   0.100   0.023  0.00  0.00    +0.026 A 
ATOM      2  C   LIG    1        2.092   0.799   1.028  0.00  0.00    +0.159 A 
ATOM      3  C   LIG    1        3.507   0.852   1.020  0.00  0.00    +0.096 A 
ATOM      4  N   LIG    1        4.266   1.634   1.933  0.00  0.00    -0.340 N 
ATOM      5  C   LIG    1        5.628   1.413   2.057  0.00  0.00    +0.105 A 
ATOM      6  C   LIG    1        6.418   0.701   1.204  0.00  0.00    +0.122 A 
ATOM      7  C   LIG    1        5.744   0.058   0.035  0.00  0.00    +0.203 A 
ATOM      8  O   LIG    1        6.338  -0.521  -0.877  0.00  0.00    -0.286 OA
ATOM      9  C   LIG    1        4.231   0.114   0.053  0.00  0.00    +0.050 A 
ATOM     10  C   LIG    1        3.518  -0.589  -0.926  0.00  0.00    +0.014 A 
ATOM     11  C   LIG    1        2.130  -0.587  -0.946  0.00  0.00    +0.013 A 
ENDROOT
BRANCH   1  20
ATOM     12  C   LIG    1       -5.079  -0.273   1.210  0.00  0.00    -0.009 C 
ATOM     13  C   LIG    1       -4.403   0.204  -0.085  0.00  0.00    -0.043 C 
ATOM     14  N   LIG    1       -4.535   1.702  -0.380  0.00  0.00    +0.386 N 
ATOM     15  H   LIG    1       -5.331   2.111   0.090  0.00  0.00    -0.085 HD
ATOM     16  H   LIG    1       -4.671   1.836  -1.372  0.00  0.00    -0.085 HD
ATOM     17  C   LIG    1       -3.220   2.359   0.050  0.00  0.00    -0.046 C 
ATOM     18  C   LIG    1       -2.235   1.219  -0.004  0.00  0.00    -0.062 A 
ATOM     19  C   LIG    1       -0.841   1.253   0.046  0.00  0.00    +0.010 A 
ATOM     20  C   LIG    1       -0.093   0.069  -0.031  0.00  0.00    -0.014 A 
ATOM     21  C   LIG    1       -0.779  -1.147  -0.167  0.00  0.00    +0.009 A 
ATOM     22  C   LIG    1       -2.173  -1.185  -0.203  0.00  0.00    +0.003 A 
ATOM     23  C   LIG    1       -2.902   0.001  -0.112  0.00  0.00    -0.060 A 
ENDBRANCH   1  20
BRANCH   4  24
ATOM     24  C   LIG    1        3.705   2.771   2.674  0.00  0.00    +0.088 C 
ATOM     25  C   LIG    1        4.405   4.120   2.577  0.00  0.00    +0.027 C 
ATOM     26  C   LIG    1        3.106   3.907   1.860  0.00  0.00    +0.027 C 
ENDBRANCH   4  24
BRANCH   6  27
ATOM     27  C   LIG    1        7.976   0.612   1.551  0.00  0.00    +0.342 C 
ATOM     28  O   LIG    1        8.661  -0.125   0.804  0.00  0.00    -0.245 OA
BRANCH  27  29
ATOM     29  O   LIG    1        8.396   1.274   2.531  0.00  0.00    -0.477 OA
ATOM     30  H   LIG    1        7.802   1.798   3.031  0.00  0.00    +0.295 HD
ENDBRANCH  27  29
ENDBRANCH   6  27
BRANCH   2  31
ATOM     31  O   LIG    1        1.360   1.409   2.022  0.00  0.00    -0.432 OA
BRANCH  31  32
ATOM     32  C   LIG    1        1.190   0.626   3.200  0.00  0.00    +0.541 C 
ATOM     33  F   LIG    1        0.865   1.432   4.210  0.00  0.00    -0.166 F 
ATOM     34  F   LIG    1        0.222  -0.278   3.045  0.00  0.00    -0.166 F 
ENDBRANCH  31  32
ENDBRANCH   2  31
TORSDOF 6
