REMARK  Name = DB06548
REMARK                            x       y       z     vdW  Elec       q    Type
REMARK                         _______ _______ _______ _____ _____    ______ ____
ROOT
ATOM      1  C   LIG    1        1.584  -0.168   0.220  0.00  0.00    +0.272 C 
ENDROOT
BRANCH   1   2
ATOM      2  P   LIG    1        2.114  -1.961  -0.130  0.00  0.00    +0.371 P 
ATOM      3  O   LIG    1        3.624  -2.056  -0.155  0.00  0.00    -0.255 OA
BRANCH   2   4
ATOM      4  O   LIG    1        1.570  -2.067  -1.757  0.00  0.00    -0.322 OA
ATOM      5  H   LIG    1        2.072  -1.706  -2.511  0.00  0.00    +0.220 HD
ENDBRANCH   2   4
BRANCH   2   6
ATOM      6  O   LIG    1        1.266  -2.904   0.698  0.00  0.00    -0.322 OA
ATOM      7  H   LIG    1        0.329  -2.683   0.582  0.00  0.00    +0.220 HD
ENDBRANCH   2   6
ENDBRANCH   1   2
BRANCH   1   8
ATOM      8  P   LIG    1        2.196   0.805   1.783  0.00  0.00    +0.371 P 
ATOM      9  O   LIG    1        1.969   2.286   1.418  0.00  0.00    -0.255 OA
BRANCH   8  10
ATOM     10  O   LIG    1        3.679   0.404   1.889  0.00  0.00    -0.322 OA
ATOM     11  H   LIG    1        3.744  -0.536   2.120  0.00  0.00    +0.220 HD
ENDBRANCH   8  10
BRANCH   8  12
ATOM     12  O   LIG    1        1.301   0.266   2.915  0.00  0.00    -0.322 OA
ATOM     13  H   LIG    1        1.511  -0.667   3.077  0.00  0.00    +0.220 HD
ENDBRANCH   8  12
ENDBRANCH   1   8
BRANCH   1  14
ATOM     14  O   LIG    1        2.127   0.572  -0.867  0.00  0.00    -0.367 OA
ATOM     15  H   LIG    1        2.332   1.453  -0.542  0.00  0.00    +0.212 HD
ENDBRANCH   1  14
BRANCH   1  16
ATOM     16  C   LIG    1        0.029  -0.102   0.071  0.00  0.00    +0.115 C 
BRANCH  16  21
ATOM     17  C   LIG    1       -2.731   3.609   2.619  0.00  0.00    +0.005 A 
ATOM     18  C   LIG    1       -2.422   4.019   1.321  0.00  0.00    +0.047 A 
ATOM     19  C   LIG    1       -1.681   3.158   0.489  0.00  0.00    +0.138 A 
ATOM     20  N   LIG    1       -1.273   1.907   0.999  0.00  0.00    -0.303 N 
ATOM     21  C   LIG    1       -0.586   1.292  -0.028  0.00  0.00    +0.047 A 
ATOM     22  C   LIG    1       -0.632   2.213  -1.075  0.00  0.00    +0.135 A 
ATOM     23  C   LIG    1       -1.586   1.515   2.277  0.00  0.00    +0.093 A 
ATOM     24  N   LIG    1       -1.275   3.325  -0.794  0.00  0.00    -0.236 NA
ATOM     25  C   LIG    1       -2.319   2.368   3.097  0.00  0.00    +0.018 A 
ENDBRANCH  16  21
ENDBRANCH   1  16
TORSDOF 9
