REMARK  Name = DB06440
REMARK                            x       y       z     vdW  Elec       q    Type
REMARK                         _______ _______ _______ _____ _____    ______ ____
ROOT
ATOM      1  C   LIG    1        1.504  -0.058   0.134  0.00  0.00    +0.121 C 
ENDROOT
BRANCH   1   2
ATOM      2  C   LIG    1        2.043  -1.512   0.022  0.00  0.00    +0.022 A 
ATOM      3  C   LIG    1        2.719  -2.179   1.066  0.00  0.00    +0.132 A 
ATOM      4  F   LIG    1        2.946  -1.588   2.262  0.00  0.00    -0.205 F 
ATOM      5  C   LIG    1        3.177  -3.486   0.894  0.00  0.00    +0.077 A 
ATOM      6  C   LIG    1        2.973  -4.152  -0.311  0.00  0.00    +0.126 A 
ATOM      7  F   LIG    1        3.421  -5.418  -0.470  0.00  0.00    -0.205 F 
ATOM      8  C   LIG    1        2.308  -3.511  -1.352  0.00  0.00    +0.039 A 
ATOM      9  C   LIG    1        1.849  -2.207  -1.185  0.00  0.00    +0.012 A 
ENDBRANCH   1   2
BRANCH   1  11
ATOM     10  C   LIG    1       -0.783  -0.917   1.071  0.00  0.00    +0.018 C 
ATOM     11  C   LIG    1       -0.068  -0.051   0.003  0.00  0.00    +0.080 C 
BRANCH  11  12
ATOM     12  C   LIG    1       -0.684   1.349  -0.047  0.00  0.00    +0.085 A 
ATOM     13  S   LIG    1       -1.288   2.074  -1.504  0.00  0.00    -0.080 S 
ATOM     14  C   LIG    1       -1.701   3.484  -0.583  0.00  0.00    +0.075 A 
ATOM     15  C   LIG    1       -1.354   3.307   0.759  0.00  0.00    +0.078 A 
ATOM     16  N   LIG    1       -0.798   2.129   1.004  0.00  0.00    -0.244 NA
BRANCH  15  17
ATOM     17  C   LIG    1       -1.560   4.299   1.871  0.00  0.00    +0.001 A 
ATOM     18  C   LIG    1       -1.290   3.959   3.205  0.00  0.00    +0.011 A 
ATOM     19  C   LIG    1       -1.493   4.881   4.229  0.00  0.00    +0.019 A 
ATOM     20  C   LIG    1       -1.968   6.158   3.928  0.00  0.00    +0.052 A 
ATOM     21  C   LIG    1       -2.236   6.512   2.605  0.00  0.00    +0.019 A 
ATOM     22  C   LIG    1       -2.033   5.586   1.585  0.00  0.00    +0.011 A 
BRANCH  20  23
ATOM     23  C   LIG    1       -2.184   7.122   4.996  0.00  0.00    +0.099 C 
ATOM     24  N   LIG    1       -2.357   7.888   5.846  0.00  0.00    -0.191 NA
ENDBRANCH  20  23
ENDBRANCH  15  17
ENDBRANCH  11  12
ENDBRANCH   1  11
BRANCH   1  25
ATOM     25  O   LIG    1        1.807   0.559   1.380  0.00  0.00    -0.381 OA
ATOM     26  H   LIG    1        1.364   1.410   1.415  0.00  0.00    +0.211 HD
ENDBRANCH   1  25
BRANCH   1  27
ATOM     27  C   LIG    1        2.176   0.865  -0.942  0.00  0.00    +0.185 C 
BRANCH  27  28
ATOM     28  N   LIG    1        3.639   0.888  -0.875  0.00  0.00    -0.249 N 
ATOM     29  N   LIG    1        4.385  -0.038  -1.484  0.00  0.00    -0.158 NA
ATOM     30  C   LIG    1        5.598   0.341  -1.143  0.00  0.00    +0.244 A 
ATOM     31  N   LIG    1        5.710   1.414  -0.374  0.00  0.00    -0.223 NA
ATOM     32  C   LIG    1        4.459   1.755  -0.205  0.00  0.00    +0.219 A 
ENDBRANCH  27  28
ENDBRANCH   1  27
TORSDOF 8
