REMARK  Name = DB06243
REMARK                            x       y       z     vdW  Elec       q    Type
REMARK                         _______ _______ _______ _____ _____    ______ ____
ROOT
ATOM      1  C   LIG    1        1.624  -0.014   0.081  0.00  0.00    +0.175 C 
ENDROOT
BRANCH   1   2
ATOM      2  N   LIG    1        2.153   0.645  -1.113  0.00  0.00    -0.311 NA
ATOM      3  H   LIG    1        1.398   1.004  -1.679  0.00  0.00    +0.119 HD
ATOM      4  H   LIG    1        2.672  -0.012  -1.679  0.00  0.00    +0.119 HD
ENDBRANCH   1   2
BRANCH   1   5
ATOM      5  C   LIG    1        2.112  -1.492   0.035  0.00  0.00    +0.372 C 
ATOM      6  F   LIG    1        3.440  -1.637   0.072  0.00  0.00    -0.207 F 
ATOM      7  F   LIG    1        1.583  -2.267   0.984  0.00  0.00    -0.207 F 
ENDBRANCH   1   5
BRANCH   1   8
ATOM      8  C   LIG    1        2.199   0.709   1.337  0.00  0.00    +0.331 C 
ATOM      9  O   LIG    1        3.069   1.581   1.310  0.00  0.00    -0.249 OA
BRANCH   8  10
ATOM     10  O   LIG    1        1.634   0.244   2.490  0.00  0.00    -0.479 OA
ATOM     11  H   LIG    1        1.988   0.679   3.269  0.00  0.00    +0.295 HD
ENDBRANCH   8  10
ENDBRANCH   1   8
BRANCH   1  12
ATOM     12  C   LIG    1        0.064   0.059   0.009  0.00  0.00    +0.040 C 
BRANCH  12  13
ATOM     13  C   LIG    1       -0.570   1.471   0.021  0.00  0.00    +0.017 C 
BRANCH  13  14
ATOM     14  C   LIG    1       -2.103   1.426  -0.086  0.00  0.00    +0.078 C 
BRANCH  14  15
ATOM     15  N   LIG    1       -2.650   2.769  -0.060  0.00  0.00    -0.330 NA
ATOM     16  H   LIG    1       -3.656   2.728  -0.147  0.00  0.00    +0.118 HD
ATOM     17  H   LIG    1       -2.315   3.289  -0.859  0.00  0.00    +0.118 HD
ENDBRANCH  14  15
ENDBRANCH  13  14
ENDBRANCH  12  13
ENDBRANCH   1  12
TORSDOF 8
