REMARK  Name = DB06299
REMARK                            x       y       z     vdW  Elec       q    Type
REMARK                         _______ _______ _______ _____ _____    ______ ____
ROOT
ATOM      1  C   LIG    1        4.194  -1.629  -1.935  0.00  0.00    +0.045 C 
ATOM      2  C   LIG    1        3.489  -0.771  -0.903  0.00  0.00    -0.034 A 
ATOM      3  C   LIG    1        2.144  -0.668  -0.831  0.00  0.00    +0.098 A 
ATOM      4  N   LIG    1        1.436   0.105   0.079  0.00  0.00    -0.284 N 
ATOM      5  C   LIG    1        2.095   0.842   1.050  0.00  0.00    +0.256 A 
ATOM      6  O   LIG    1        1.546   1.472   1.957  0.00  0.00    -0.267 OA
ATOM      7  C   LIG    1        3.554   0.795   0.966  0.00  0.00    +0.071 A 
ATOM      8  C   LIG    1        4.219   0.027   0.071  0.00  0.00    +0.010 A 
ENDROOT
BRANCH   4   9
ATOM      9  C   LIG    1        0.017   0.062   0.039  0.00  0.00    +0.050 A 
ATOM     10  C   LIG    1       -0.734   1.247  -0.012  0.00  0.00    +0.030 A 
ATOM     11  C   LIG    1       -2.124   1.195  -0.058  0.00  0.00    +0.047 A 
ATOM     12  C   LIG    1       -2.771  -0.039  -0.057  0.00  0.00    +0.117 A 
ATOM     13  C   LIG    1       -2.038  -1.223  -0.011  0.00  0.00    +0.047 A 
ATOM     14  C   LIG    1       -0.647  -1.174   0.036  0.00  0.00    +0.030 A 
BRANCH  12  15
ATOM     15  O   LIG    1       -4.139  -0.090  -0.104  0.00  0.00    -0.507 OA
ATOM     16  H   LIG    1       -4.545   0.779  -0.122  0.00  0.00    +0.292 HD
ENDBRANCH  12  15
ENDBRANCH   4   9
TORSDOF 2
