REMARK  Name = DB06774
REMARK                            x       y       z     vdW  Elec       q    Type
REMARK                         _______ _______ _______ _____ _____    ______ ____
ROOT
ATOM      1  O   LIG    1        1.205  -2.701   0.808  0.00  0.00    -0.276 OA
ATOM      2  C   LIG    1        1.313  -1.902   1.740  0.00  0.00    +0.213 C 
ATOM      3  N   LIG    1        2.012  -2.165   2.860  0.00  0.00    -0.311 N 
ATOM      4  H   LIG    1        2.082  -1.443   3.562  0.00  0.00    +0.149 HD
ENDROOT
BRANCH   2   5
ATOM      5  C   LIG    1        0.648  -0.518   1.674  0.00  0.00    +0.096 C 
BRANCH   5   6
ATOM      6  C   LIG    1       -0.537  -0.432   0.687  0.00  0.00    +0.009 C 
BRANCH   6   7
ATOM      7  C   LIG    1       -1.194   0.960   0.666  0.00  0.00    +0.004 C 
BRANCH   7   8
ATOM      8  C   LIG    1       -2.390   1.043  -0.296  0.00  0.00    +0.027 C 
BRANCH   8   9
ATOM      9  C   LIG    1       -3.043   2.413  -0.320  0.00  0.00    -0.031 C 
ATOM     10  C   LIG    1       -3.121   3.207  -1.402  0.00  0.00    -0.028 C 
BRANCH  10  11
ATOM     11  C   LIG    1       -3.775   4.579  -1.431  0.00  0.00    +0.005 C 
ATOM     12  C   LIG    1       -2.765   5.685  -1.780  0.00  0.00    +0.011 C 
ATOM     13  C   LIG    1       -4.991   4.613  -2.372  0.00  0.00    +0.011 C 
ENDBRANCH  10  11
ENDBRANCH   8   9
ENDBRANCH   7   8
ENDBRANCH   6   7
ENDBRANCH   5   6
ENDBRANCH   2   5
BRANCH   3  14
ATOM     14  C   LIG    1        2.757  -3.396   3.124  0.00  0.00    +0.139 C 
BRANCH  14  15
ATOM     15  C   LIG    1        4.025  -3.544   2.291  0.00  0.00    -0.027 A 
ATOM     16  C   LIG    1        5.196  -2.887   2.675  0.00  0.00    +0.009 A 
ATOM     17  C   LIG    1        6.364  -3.048   1.935  0.00  0.00    +0.049 A 
ATOM     18  C   LIG    1        6.374  -3.873   0.809  0.00  0.00    +0.158 A 
ATOM     19  C   LIG    1        5.212  -4.551   0.411  0.00  0.00    +0.162 A 
ATOM     20  C   LIG    1        4.042  -4.382   1.172  0.00  0.00    +0.054 A 
BRANCH  19  21
ATOM     21  O   LIG    1        5.291  -5.354  -0.714  0.00  0.00    -0.491 OA
ATOM     22  C   LIG    1        4.126  -6.033  -1.170  0.00  0.00    +0.277 C 
ENDBRANCH  19  21
BRANCH  18  23
ATOM     23  O   LIG    1        7.540  -4.010   0.099  0.00  0.00    -0.503 OA
ATOM     24  H   LIG    1        8.265  -3.499   0.467  0.00  0.00    +0.292 HD
ENDBRANCH  18  23
ENDBRANCH  14  15
ENDBRANCH   3  14
TORSDOF 10
