REMARK  Name = DB06194
REMARK                            x       y       z     vdW  Elec       q    Type
REMARK                         _______ _______ _______ _____ _____    ______ ____
ROOT
ATOM      1  C   LIG    1       -0.109   4.198   5.436  0.00  0.00    -0.000 C 
ATOM      2  C   LIG    1       -0.159   3.006   4.800  0.00  0.00    -0.065 C 
ATOM      3  C   LIG    1       -0.727   1.694   5.369  0.00  0.00    +0.031 C 
ATOM      4  C   LIG    1       -1.779   1.067   4.416  0.00  0.00    +0.005 C 
ATOM      5  C   LIG    1       -1.328   1.007   2.934  0.00  0.00    +0.012 C 
ATOM      6  C   LIG    1       -0.797   2.379   2.440  0.00  0.00    -0.004 C 
ATOM      7  C   LIG    1       -1.959   3.417   2.377  0.00  0.00    +0.016 C 
ATOM      8  C   LIG    1       -0.057   2.419   1.095  0.00  0.00    -0.064 C 
ATOM      9  C   LIG    1        0.979   3.289   1.200  0.00  0.00    -0.026 C 
ATOM     10  C   LIG    1        1.130   3.841   2.605  0.00  0.00    +0.036 C 
ATOM     11  C   LIG    1        0.360   2.778   3.376  0.00  0.00    +0.029 C 
ENDROOT
BRANCH   1  18
ATOM     12  F   LIG    1       -1.435   8.102   6.039  0.00  0.00    -0.240 F 
ATOM     13  C   LIG    1       -0.504   8.148   6.994  0.00  0.00    +0.198 C 
ATOM     14  C   LIG    1       -1.168   8.345   8.377  0.00  0.00    +0.073 C 
ATOM     15  C   LIG    1       -1.970   7.109   8.849  0.00  0.00    +0.122 C 
ATOM     16  C   LIG    1       -1.117   5.817   8.831  0.00  0.00    +0.067 C 
ATOM     17  C   LIG    1       -0.478   5.645   7.455  0.00  0.00    -0.040 C 
ATOM     18  C   LIG    1       -0.607   4.478   6.778  0.00  0.00    +0.004 C 
ATOM     19  C   LIG    1        0.247   6.819   6.959  0.00  0.00    -0.018 C 
ATOM     20  C   LIG    1        1.523   6.744   6.532  0.00  0.00    +0.015 C 
BRANCH  15  21
ATOM     21  O   LIG    1       -2.522   7.327  10.131  0.00  0.00    -0.391 OA
ATOM     22  H   LIG    1       -1.804   7.452  10.756  0.00  0.00    +0.210 HD
ENDBRANCH  15  21
ENDBRANCH   1  18
BRANCH   8  23
ATOM     23  C   LIG    1       -0.566   1.672  -0.142  0.00  0.00    +0.016 C 
ATOM     24  C   LIG    1       -0.167   2.357  -1.467  0.00  0.00    +0.012 C 
BRANCH  23  25
ATOM     25  C   LIG    1       -0.188   0.170  -0.168  0.00  0.00    +0.034 C 
BRANCH  25  26
ATOM     26  C   LIG    1        1.298  -0.111  -0.030  0.00  0.00    -0.028 C 
ATOM     27  C   LIG    1        2.072  -0.633  -1.000  0.00  0.00    +0.003 C 
BRANCH  27  28
ATOM     28  C   LIG    1        3.576  -0.904  -0.922  0.00  0.00    +0.084 C 
BRANCH  28  29
ATOM     29  C   LIG    1        4.392   0.241  -1.584  0.00  0.00    +0.035 C 
ATOM     30  C   LIG    1        4.034   0.572  -3.047  0.00  0.00    +0.007 C 
ENDBRANCH  28  29
BRANCH  28  31
ATOM     31  C   LIG    1        4.116  -1.167   0.517  0.00  0.00    +0.035 C 
ATOM     32  C   LIG    1        3.484  -2.353   1.277  0.00  0.00    +0.007 C 
ENDBRANCH  28  31
BRANCH  28  33
ATOM     33  O   LIG    1        3.816  -2.085  -1.669  0.00  0.00    -0.385 OA
ATOM     34  H   LIG    1        3.567  -1.921  -2.581  0.00  0.00    +0.211 HD
ENDBRANCH  28  33
ENDBRANCH  27  28
ENDBRANCH  25  26
ENDBRANCH  23  25
ENDBRANCH   8  23
TORSDOF 9
