REMARK  Name = DB06711
REMARK                            x       y       z     vdW  Elec       q    Type
REMARK                         _______ _______ _______ _____ _____    ______ ____
ROOT
ATOM      1  C   LIG    1        3.917   1.550   3.359  0.00  0.00    +0.001 A 
ATOM      2  C   LIG    1        4.525   1.026   2.223  0.00  0.00    +0.008 A 
ATOM      3  C   LIG    1        3.741   0.548   1.144  0.00  0.00    -0.018 A 
ATOM      4  C   LIG    1        2.312   0.606   1.227  0.00  0.00    -0.014 A 
ATOM      5  C   LIG    1        1.538   0.115   0.123  0.00  0.00    -0.028 A 
ATOM      6  C   LIG    1        2.186  -0.406  -0.999  0.00  0.00    +0.005 A 
ATOM      7  C   LIG    1        3.572  -0.456  -1.069  0.00  0.00    +0.001 A 
ATOM      8  C   LIG    1        1.733   1.151   2.410  0.00  0.00    +0.009 A 
ATOM      9  C   LIG    1        4.350   0.013  -0.017  0.00  0.00    +0.008 A 
ATOM     10  C   LIG    1        2.533   1.612   3.451  0.00  0.00    +0.001 A 
ENDROOT
BRANCH   5  11
ATOM     11  C   LIG    1        0.006   0.153   0.151  0.00  0.00    +0.163 C 
BRANCH  11  12
ATOM     12  C   LIG    1       -0.614   1.528  -0.083  0.00  0.00    +0.285 C 
ATOM     13  N   LIG    1       -1.879   1.765   0.403  0.00  0.00    -0.233 N 
ATOM     14  H   LIG    1       -2.331   1.388   1.223  0.00  0.00    +0.291 HD
ATOM     15  C   LIG    1       -2.198   3.156   0.228  0.00  0.00    +0.273 C 
ATOM     16  C   LIG    1       -1.055   3.592  -0.680  0.00  0.00    +0.333 C 
ATOM     17  N   LIG    1       -0.083   2.527  -0.665  0.00  0.00    -0.084 NA
ENDBRANCH  11  12
ENDBRANCH   5  11
TORSDOF 2
