REMARK  Name = DB06670
REMARK                            x       y       z     vdW  Elec       q    Type
REMARK                         _______ _______ _______ _____ _____    ______ ____
ROOT
ATOM      1  C   LIG    1       -0.370   1.619  -0.011  0.00  0.00    +0.190 C 
ENDROOT
BRANCH   1   5
ATOM      2  C   LIG    1        0.789   3.527  -3.737  0.00  0.00    -0.018 A 
ATOM      3  C   LIG    1        0.098   2.309  -3.749  0.00  0.00    +0.009 A 
ATOM      4  C   LIG    1       -0.281   1.692  -2.561  0.00  0.00    +0.006 A 
ATOM      5  C   LIG    1        0.022   2.288  -1.333  0.00  0.00    -0.022 A 
ATOM      6  C   LIG    1        0.696   3.509  -1.310  0.00  0.00    +0.006 A 
ATOM      7  C   LIG    1        1.076   4.121  -2.501  0.00  0.00    +0.009 A 
BRANCH   2  12
ATOM      8  C   LIG    1        2.065   3.994  -7.284  0.00  0.00    +0.027 A 
ATOM      9  C   LIG    1        2.045   5.383  -7.404  0.00  0.00    +0.088 A 
ATOM     10  C   LIG    1        1.617   6.172  -6.337  0.00  0.00    +0.027 A 
ATOM     11  C   LIG    1        1.209   5.568  -5.150  0.00  0.00    +0.010 A 
ATOM     12  C   LIG    1        1.220   4.173  -5.013  0.00  0.00    -0.018 A 
ATOM     13  C   LIG    1        1.652   3.396  -6.097  0.00  0.00    +0.010 A 
BRANCH   9  14
ATOM     14  S   LIG    1        2.581   6.160  -8.926  0.00  0.00    -0.006 S 
ATOM     15  C   LIG    1        4.409   6.502  -8.613  0.00  0.00    +0.200 C 
ATOM     16  O   LIG    1        1.879   7.443  -9.037  0.00  0.00    -0.170 OA
ATOM     17  O   LIG    1        2.470   5.162  -9.996  0.00  0.00    -0.170 OA
ENDBRANCH   9  14
ENDBRANCH   2  12
ENDBRANCH   1   5
BRANCH   1  18
ATOM     18  C   LIG    1       -1.896   1.673   0.258  0.00  0.00    +0.409 C 
ATOM     19  F   LIG    1       -2.601   0.990  -0.647  0.00  0.00    -0.169 F 
ATOM     20  F   LIG    1       -2.340   2.930   0.245  0.00  0.00    -0.169 F 
ATOM     21  F   LIG    1       -2.195   1.169   1.456  0.00  0.00    -0.169 F 
ENDBRANCH   1  18
BRANCH   1  22
ATOM     22  N   LIG    1        0.121   0.240   0.102  0.00  0.00    -0.292 NA
ATOM     23  H   LIG    1       -0.430  -0.348   0.711  0.00  0.00    +0.123 HD
BRANCH  22  24
ATOM     24  C   LIG    1        1.589   0.033   0.174  0.00  0.00    +0.144 C 
BRANCH  24  25
ATOM     25  C   LIG    1        2.089  -0.364  -1.235  0.00  0.00    +0.231 C 
ATOM     26  O   LIG    1        1.590  -1.327  -1.821  0.00  0.00    -0.274 OA
ATOM     27  N   LIG    1        3.078   0.389  -1.744  0.00  0.00    -0.296 N 
ATOM     28  H   LIG    1        3.459   1.134  -1.180  0.00  0.00    +0.150 HD
BRANCH  27  29
ATOM     29  C   LIG    1        3.779   0.089  -2.990  0.00  0.00    +0.121 C 
ATOM     30  C   LIG    1        3.934   1.207  -3.999  0.00  0.00    +0.044 C 
ATOM     31  C   LIG    1        2.998   0.065  -4.292  0.00  0.00    +0.044 C 
BRANCH  29  32
ATOM     32  C   LIG    1        4.862  -0.900  -2.856  0.00  0.00    +0.088 C 
ATOM     33  N   LIG    1        5.714  -1.676  -2.751  0.00  0.00    -0.194 NA
ENDBRANCH  29  32
ENDBRANCH  27  29
ENDBRANCH  24  25
BRANCH  24  34
ATOM     34  C   LIG    1        1.930  -1.040   1.249  0.00  0.00    +0.068 C 
BRANCH  34  35
ATOM     35  C   LIG    1        3.430  -1.366   1.512  0.00  0.00    +0.108 C 
ATOM     36  F   LIG    1        3.999  -1.876   0.418  0.00  0.00    -0.242 F 
ATOM     37  C   LIG    1        3.535  -2.431   2.622  0.00  0.00    +0.047 C 
ATOM     38  C   LIG    1        4.221  -0.110   1.931  0.00  0.00    +0.047 C 
ENDBRANCH  34  35
ENDBRANCH  24  34
ENDBRANCH  22  24
ENDBRANCH   1  22
TORSDOF 11
