REMARK  Name = DB06370
REMARK                            x       y       z     vdW  Elec       q    Type
REMARK                         _______ _______ _______ _____ _____    ______ ____
ROOT
ATOM      1  S   LIG    1        0.033  -0.083   0.009  0.00  0.00    +0.072 S 
ATOM      2  O   LIG    1       -0.430  -0.668  -1.255  0.00  0.00    -0.150 OA
ATOM      3  O   LIG    1       -0.399  -0.648   1.293  0.00  0.00    -0.150 OA
ENDROOT
BRANCH   1   4
ATOM      4  C   LIG    1        1.821  -0.037  -0.014  0.00  0.00    +0.109 A 
ATOM      5  C   LIG    1        2.531  -0.013   1.188  0.00  0.00    +0.031 A 
ATOM      6  C   LIG    1        3.922   0.041   1.169  0.00  0.00    +0.030 A 
ATOM      7  C   LIG    1        4.599   0.077  -0.053  0.00  0.00    +0.105 A 
ATOM      8  C   LIG    1        3.888   0.053  -1.254  0.00  0.00    +0.030 A 
ATOM      9  C   LIG    1        2.497  -0.001  -1.235  0.00  0.00    +0.031 A 
BRANCH   7  10
ATOM     10  S   LIG    1        6.388   0.140  -0.081  0.00  0.00    +0.056 S 
ATOM     11  O   LIG    1        6.786   0.784  -1.338  0.00  0.00    -0.153 OA
ATOM     12  O   LIG    1        6.834   0.671   1.212  0.00  0.00    -0.153 OA
BRANCH  10  13
ATOM     13  N   LIG    1        6.883  -1.539  -0.165  0.00  0.00    -0.204 NA
ATOM     14  H   LIG    1        6.633  -2.013  -1.037  0.00  0.00    +0.144 HD
ATOM     15  H   LIG    1        6.667  -2.088   0.671  0.00  0.00    +0.144 HD
ENDBRANCH  10  13
ENDBRANCH   7  10
ENDBRANCH   1   4
BRANCH   1  16
ATOM     16  N   LIG    1       -0.465   1.620   0.002  0.00  0.00    -0.214 N 
ATOM     17  H   LIG    1        0.258   2.323  -0.014  0.00  0.00    +0.174 HD
BRANCH  16  24
ATOM     18 CL   LIG    1       -4.830   6.312   0.007  0.00  0.00    -0.081 Cl
ATOM     19  C   LIG    1       -3.429   5.315   0.001  0.00  0.00    +0.066 A 
ATOM     20  C   LIG    1       -2.101   5.678  -0.018  0.00  0.00    +0.103 A 
ATOM     21  N   LIG    1       -1.331   4.543  -0.014  0.00  0.00    -0.358 N 
ATOM     22  H   LIG    1       -0.321   4.577  -0.025  0.00  0.00    +0.165 HD
ATOM     23  C   LIG    1       -2.132   3.415   0.005  0.00  0.00    +0.071 A 
ATOM     24  C   LIG    1       -1.801   2.051   0.013  0.00  0.00    +0.072 A 
ATOM     25  C   LIG    1       -2.880   1.156   0.034  0.00  0.00    +0.026 A 
ATOM     26  C   LIG    1       -4.204   1.585   0.044  0.00  0.00    +0.003 A 
ATOM     27  C   LIG    1       -4.524   2.939   0.035  0.00  0.00    +0.011 A 
ATOM     28  C   LIG    1       -3.485   3.882   0.015  0.00  0.00    +0.020 A 
ENDBRANCH  16  24
ENDBRANCH   1  16
TORSDOF 5
