REMARK  Name = DB06809
REMARK                            x       y       z     vdW  Elec       q    Type
REMARK                         _______ _______ _______ _____ _____    ______ ____
ROOT
ATOM      1  C   LIG    1        1.457   0.017  -0.415  0.00  0.00    -0.033 A 
ATOM      2  C   LIG    1        2.171   0.381   0.729  0.00  0.00    +0.005 A 
ATOM      3  C   LIG    1        3.563   0.377   0.711  0.00  0.00    +0.005 A 
ATOM      4  C   LIG    1        4.245   0.011  -0.453  0.00  0.00    -0.033 A 
ATOM      5  C   LIG    1        3.530  -0.324  -1.605  0.00  0.00    +0.005 A 
ATOM      6  C   LIG    1        2.138  -0.322  -1.586  0.00  0.00    +0.005 A 
ENDROOT
BRANCH   1   7
ATOM      7  C   LIG    1       -0.067   0.064  -0.403  0.00  0.00    +0.119 C 
BRANCH   7  14
ATOM      8  C   LIG    1       -2.542   5.309  -3.156  0.00  0.00    +0.030 C 
ATOM      9  C   LIG    1       -1.464   4.342  -3.696  0.00  0.00    +0.082 C 
ATOM     10  N   LIG    1       -0.266   4.328  -2.860  0.00  0.00    -0.315 NA
ATOM     11  H   LIG    1        0.070   5.269  -2.714  0.00  0.00    +0.122 HD
ATOM     12  C   LIG    1       -0.422   3.648  -1.576  0.00  0.00    +0.096 C 
ATOM     13  C   LIG    1       -0.376   2.111  -1.723  0.00  0.00    +0.100 C 
ATOM     14  N   LIG    1       -0.599   1.435  -0.434  0.00  0.00    -0.297 NA
ATOM     15  C   LIG    1       -2.007   1.474  -0.004  0.00  0.00    +0.086 C 
ATOM     16  C   LIG    1       -2.974   0.554  -0.797  0.00  0.00    +0.030 C 
ATOM     17  C   LIG    1       -4.476   0.875  -0.629  0.00  0.00    +0.082 C 
ATOM     18  N   LIG    1       -4.872   2.209  -1.074  0.00  0.00    -0.315 NA
ATOM     19  H   LIG    1       -4.462   2.902  -0.464  0.00  0.00    +0.122 HD
ATOM     20  C   LIG    1       -4.499   2.489  -2.455  0.00  0.00    +0.096 C 
ATOM     21  C   LIG    1       -5.183   3.778  -2.940  0.00  0.00    +0.096 C 
ATOM     22  N   LIG    1       -4.581   4.226  -4.194  0.00  0.00    -0.315 NA
ATOM     23  H   LIG    1       -5.303   4.365  -4.888  0.00  0.00    +0.122 HD
ATOM     24  C   LIG    1       -3.786   5.445  -4.061  0.00  0.00    +0.082 C 
ENDBRANCH   7  14
ENDBRANCH   1   7
BRANCH   4  25
ATOM     25  C   LIG    1        5.768   0.057  -0.484  0.00  0.00    +0.119 C 
BRANCH  25  26
ATOM     26  N   LIG    1        6.303   1.427  -0.511  0.00  0.00    -0.297 NA
ATOM     27  C   LIG    1        5.981   2.120  -1.772  0.00  0.00    +0.100 C 
ATOM     28  C   LIG    1        6.387   3.615  -1.788  0.00  0.00    +0.096 C 
ATOM     29  N   LIG    1        6.286   4.232  -3.112  0.00  0.00    -0.315 NA
ATOM     30  H   LIG    1        6.417   5.232  -3.043  0.00  0.00    +0.122 HD
ATOM     31  C   LIG    1        7.150   3.679  -4.156  0.00  0.00    +0.082 C 
ATOM     32  C   LIG    1        8.655   3.732  -3.820  0.00  0.00    +0.030 C 
ATOM     33  C   LIG    1        9.526   3.084  -4.917  0.00  0.00    +0.082 C 
ATOM     34  N   LIG    1       10.962   3.088  -4.628  0.00  0.00    -0.315 NA
ATOM     35  H   LIG    1       11.331   4.025  -4.711  0.00  0.00    +0.122 HD
ATOM     36  C   LIG    1       11.367   2.496  -3.353  0.00  0.00    +0.096 C 
ATOM     37  C   LIG    1       10.984   1.001  -3.214  0.00  0.00    +0.096 C 
ATOM     38  N   LIG    1       11.107   0.501  -1.844  0.00  0.00    -0.315 NA
ATOM     39  H   LIG    1       11.045  -0.507  -1.837  0.00  0.00    +0.122 HD
ATOM     40  C   LIG    1       10.171   1.071  -0.873  0.00  0.00    +0.082 C 
ATOM     41  C   LIG    1        8.689   0.748  -1.163  0.00  0.00    +0.030 C 
ATOM     42  C   LIG    1        7.733   1.433  -0.156  0.00  0.00    +0.086 C 
ENDBRANCH  25  26
ENDBRANCH   4  25
TORSDOF 4
