REMARK  Name = DB06202
REMARK                            x       y       z     vdW  Elec       q    Type
REMARK                         _______ _______ _______ _____ _____    ______ ____
ROOT
ATOM      1  C   LIG    1       -4.739   0.153   1.531  0.00  0.00    +0.031 C 
ATOM      2  C   LIG    1       -4.142   0.111   0.092  0.00  0.00    +0.057 C 
ATOM      3  C   LIG    1       -4.879   1.050  -0.880  0.00  0.00    -0.036 A 
ATOM      4  C   LIG    1       -5.687   2.117  -0.417  0.00  0.00    -0.040 A 
ATOM      5  C   LIG    1       -6.242   3.003  -1.349  0.00  0.00    +0.049 A 
ATOM      6  C   LIG    1       -6.032   2.844  -2.716  0.00  0.00    +0.117 A 
ATOM      7  C   LIG    1       -5.256   1.786  -3.174  0.00  0.00    +0.046 A 
ATOM      8  C   LIG    1       -6.009   2.292   1.067  0.00  0.00    +0.036 C 
ATOM      9  C   LIG    1       -4.686   0.904  -2.262  0.00  0.00    +0.008 A 
ATOM     10  C   LIG    1       -5.005   1.598   2.003  0.00  0.00    +0.014 C 
ENDROOT
BRANCH   1  14
ATOM     11  C   LIG    1       -2.656  -2.443   4.297  0.00  0.00    +0.000 A 
ATOM     12  C   LIG    1       -3.427  -2.986   3.272  0.00  0.00    +0.000 A 
ATOM     13  C   LIG    1       -4.092  -2.140   2.389  0.00  0.00    +0.004 A 
ATOM     14  C   LIG    1       -3.986  -0.750   2.522  0.00  0.00    -0.043 A 
ATOM     15  C   LIG    1       -3.216  -0.218   3.564  0.00  0.00    +0.004 A 
ATOM     16  C   LIG    1       -2.549  -1.063   4.447  0.00  0.00    +0.000 A 
ENDBRANCH   1  14
BRANCH   2  17
ATOM     17  C   LIG    1       -2.620   0.344   0.063  0.00  0.00    -0.039 A 
ATOM     18  C   LIG    1       -2.085   1.637   0.046  0.00  0.00    +0.008 A 
ATOM     19  C   LIG    1       -0.707   1.829   0.031  0.00  0.00    +0.046 A 
ATOM     20  C   LIG    1        0.160   0.726   0.031  0.00  0.00    +0.121 A 
ATOM     21  C   LIG    1       -0.376  -0.561   0.038  0.00  0.00    +0.046 A 
ATOM     22  C   LIG    1       -1.754  -0.754   0.053  0.00  0.00    +0.008 A 
BRANCH  20  23
ATOM     23  O   LIG    1        1.538   0.818   0.023  0.00  0.00    -0.491 OA
BRANCH  23  24
ATOM     24  C   LIG    1        2.157   2.101   0.083  0.00  0.00    +0.244 C 
BRANCH  24  25
ATOM     25  C   LIG    1        3.691   1.956   0.155  0.00  0.00    +0.125 C 
BRANCH  25  26
ATOM     26  N   LIG    1        4.171   1.501   1.463  0.00  0.00    -0.299 NA
ATOM     27  C   LIG    1        3.814   0.131   1.810  0.00  0.00    +0.084 C 
ATOM     28  C   LIG    1        4.748  -0.256   2.960  0.00  0.00    +0.017 C 
ATOM     29  C   LIG    1        5.958   0.664   2.787  0.00  0.00    +0.017 C 
ATOM     30  C   LIG    1        5.626   1.487   1.542  0.00  0.00    +0.084 C 
ENDBRANCH  25  26
ENDBRANCH  24  25
ENDBRANCH  23  24
ENDBRANCH  20  23
ENDBRANCH   2  17
BRANCH   6  31
ATOM     31  O   LIG    1       -6.591   3.723  -3.604  0.00  0.00    -0.507 OA
ATOM     32  H   LIG    1       -6.380   3.518  -4.518  0.00  0.00    +0.292 HD
ENDBRANCH   6  31
TORSDOF 7
