REMARK  Name = DB06616
REMARK                            x       y       z     vdW  Elec       q    Type
REMARK                         _______ _______ _______ _____ _____    ______ ____
ROOT
ATOM      1  C   LIG    1       -4.122  -2.599  -0.296  0.00  0.00    +0.132 A 
ATOM      2  N   LIG    1       -2.781  -2.584  -0.138  0.00  0.00    -0.253 NA
ATOM      3  C   LIG    1       -2.156  -1.383  -0.046  0.00  0.00    +0.077 A 
ATOM      4  C   LIG    1       -0.754  -1.380   0.128  0.00  0.00    +0.077 A 
ATOM      5  C   LIG    1       -0.041  -0.177   0.224  0.00  0.00    +0.164 A 
ATOM      6  C   LIG    1       -0.722   1.042   0.159  0.00  0.00    +0.162 A 
ATOM      7  C   LIG    1       -2.114   1.057  -0.014  0.00  0.00    +0.061 A 
ATOM      8  C   LIG    1       -2.866  -0.148  -0.124  0.00  0.00    +0.026 A 
ATOM      9  C   LIG    1       -4.290  -0.185  -0.322  0.00  0.00    +0.060 A 
ATOM     10  C   LIG    1       -4.914  -1.456  -0.382  0.00  0.00    +0.091 A 
ENDROOT
BRANCH   6  11
ATOM     11  O   LIG    1        0.045   2.190   0.266  0.00  0.00    -0.491 OA
ATOM     12  C   LIG    1       -0.583   3.467   0.214  0.00  0.00    +0.277 C 
ENDBRANCH   6  11
BRANCH   9  13
ATOM     13  N   LIG    1       -4.987   1.042  -0.412  0.00  0.00    -0.312 N 
ATOM     14  H   LIG    1       -4.481   1.831  -0.036  0.00  0.00    +0.152 HD
BRANCH  13  15
ATOM     15  C   LIG    1       -6.156   1.401  -1.103  0.00  0.00    +0.053 A 
ATOM     16  C   LIG    1       -6.362   0.949  -2.412  0.00  0.00    +0.071 A 
ATOM     17  C   LIG    1       -7.533   1.275  -3.118  0.00  0.00    +0.140 A 
ATOM     18  C   LIG    1       -8.496   2.071  -2.486  0.00  0.00    +0.084 A 
ATOM     19 CL   LIG    1       -9.956   2.505  -3.305  0.00  0.00    -0.080 Cl
ATOM     20  C   LIG    1       -8.295   2.526  -1.183  0.00  0.00    +0.045 A 
ATOM     21  C   LIG    1       -7.133   2.195  -0.488  0.00  0.00    +0.064 A 
ATOM     22 CL   LIG    1       -6.939   2.782   1.131  0.00  0.00    -0.082 Cl
BRANCH  17  23
ATOM     23  O   LIG    1       -7.797   0.853  -4.409  0.00  0.00    -0.494 OA
ATOM     24  C   LIG    1       -6.849   0.033  -5.084  0.00  0.00    +0.277 C 
ENDBRANCH  17  23
ENDBRANCH  13  15
ENDBRANCH   9  13
BRANCH  10  25
ATOM     25  C   LIG    1       -6.358  -1.664  -0.474  0.00  0.00    +0.103 C 
ATOM     26  N   LIG    1       -7.501  -1.830  -0.547  0.00  0.00    -0.191 NA
ENDBRANCH  10  25
BRANCH   5  27
ATOM     27  O   LIG    1        1.333  -0.114   0.380  0.00  0.00    -0.488 OA
BRANCH  27  28
ATOM     28  C   LIG    1        2.106  -1.311   0.404  0.00  0.00    +0.230 C 
BRANCH  28  29
ATOM     29  C   LIG    1        3.599  -0.948   0.425  0.00  0.00    +0.056 C 
BRANCH  29  30
ATOM     30  C   LIG    1        4.033  -0.120  -0.805  0.00  0.00    +0.088 C 
BRANCH  30  31
ATOM     31  N   LIG    1        5.488  -0.015  -0.953  0.00  0.00    -0.300 NA
ATOM     32  C   LIG    1        5.805   0.623  -2.238  0.00  0.00    +0.100 C 
ATOM     33  C   LIG    1        7.338   0.714  -2.435  0.00  0.00    +0.099 C 
ATOM     34  N   LIG    1        7.935   1.505  -1.353  0.00  0.00    -0.303 NA
ATOM     35  C   LIG    1        9.378   1.611  -1.539  0.00  0.00    +0.105 C 
ATOM     36  C   LIG    1        7.633   0.862  -0.069  0.00  0.00    +0.099 C 
ATOM     37  C   LIG    1        6.100   0.770   0.131  0.00  0.00    +0.100 C 
ENDBRANCH  30  31
ENDBRANCH  29  30
ENDBRANCH  28  29
ENDBRANCH  27  28
ENDBRANCH   5  27
TORSDOF 10
