REMARK  Name = DB06700
REMARK                            x       y       z     vdW  Elec       q    Type
REMARK                         _______ _______ _______ _____ _____    ______ ____
ROOT
ATOM      1  C   LIG    1        1.353  -0.110  -0.249  0.00  0.00    +0.065 C 
ENDROOT
BRANCH   1   2
ATOM      2  C   LIG    1        1.909  -1.574  -0.203  0.00  0.00    +0.074 C 
ATOM      3  C   LIG    1        1.281  -2.443   0.943  0.00  0.00    +0.035 C 
ATOM      4  C   LIG    1        2.037  -3.708   1.400  0.00  0.00    +0.003 C 
ATOM      5  C   LIG    1        3.533  -3.460   1.599  0.00  0.00    +0.000 C 
ATOM      6  C   LIG    1        4.149  -2.940   0.299  0.00  0.00    +0.003 C 
ATOM      7  C   LIG    1        3.477  -1.642  -0.194  0.00  0.00    +0.035 C 
BRANCH   2   8
ATOM      8  O   LIG    1        1.610  -2.372  -1.340  0.00  0.00    -0.388 OA
ATOM      9  H   LIG    1        2.011  -3.235  -1.216  0.00  0.00    +0.210 HD
ENDBRANCH   2   8
ENDBRANCH   1   2
BRANCH   1  10
ATOM     10  C   LIG    1        2.002   0.731  -1.363  0.00  0.00    -0.040 A 
ATOM     11  C   LIG    1        1.645   0.538  -2.703  0.00  0.00    +0.007 A 
ATOM     12  C   LIG    1        2.237   1.305  -3.703  0.00  0.00    +0.045 A 
ATOM     13  C   LIG    1        3.188   2.266  -3.365  0.00  0.00    +0.117 A 
ATOM     14  C   LIG    1        3.551   2.464  -2.034  0.00  0.00    +0.045 A 
ATOM     15  C   LIG    1        2.959   1.697  -1.035  0.00  0.00    +0.007 A 
BRANCH  13  16
ATOM     16  O   LIG    1        3.771   3.022  -4.347  0.00  0.00    -0.507 OA
ATOM     17  H   LIG    1        3.449   2.805  -5.225  0.00  0.00    +0.292 HD
ENDBRANCH  13  16
ENDBRANCH   1  10
BRANCH   1  18
ATOM     18  C   LIG    1       -0.207  -0.064  -0.295  0.00  0.00    +0.094 C 
BRANCH  18  19
ATOM     19  N   LIG    1       -0.786   1.277  -0.458  0.00  0.00    -0.308 NA
ATOM     20  C   LIG    1       -0.530   2.132   0.700  0.00  0.00    +0.104 C 
ATOM     21  C   LIG    1       -2.225   1.175  -0.674  0.00  0.00    +0.104 C 
ENDBRANCH  18  19
ENDBRANCH   1  18
TORSDOF 6
