REMARK  Name = DB06436
REMARK                            x       y       z     vdW  Elec       q    Type
REMARK                         _______ _______ _______ _____ _____    ______ ____
ROOT
ATOM      1  O   LIG    1        0.587  -2.336  -2.305  0.00  0.00    -0.270 OA
ATOM      2  C   LIG    1        1.726  -1.973  -2.020  0.00  0.00    +0.249 C 
ATOM      3  C   LIG    1        2.174  -0.931  -1.101  0.00  0.00    +0.048 C 
ATOM      4  C   LIG    1        1.379  -0.136  -0.343  0.00  0.00    +0.039 C 
ATOM      5  C   LIG    1        3.631  -0.916  -1.198  0.00  0.00    +0.008 A 
ATOM      6  C   LIG    1        4.618  -0.140  -0.582  0.00  0.00    +0.010 A 
ATOM      7  C   LIG    1        5.963  -0.377  -0.883  0.00  0.00    +0.001 A 
ATOM      8  C   LIG    1        6.315  -1.382  -1.791  0.00  0.00    +0.002 A 
ATOM      9  C   LIG    1        5.324  -2.153  -2.405  0.00  0.00    +0.024 A 
ATOM     10  C   LIG    1        3.989  -1.899  -2.091  0.00  0.00    +0.042 A 
ATOM     11  N   LIG    1        2.844  -2.502  -2.552  0.00  0.00    -0.281 N 
ATOM     12  H   LIG    1        2.834  -3.248  -3.231  0.00  0.00    +0.155 HD
ENDROOT
BRANCH   4  13
ATOM     13  C   LIG    1       -0.066  -0.052  -0.141  0.00  0.00    +0.043 A 
ATOM     14  C   LIG    1       -0.877   1.036   0.188  0.00  0.00    -0.026 A 
ATOM     15  C   LIG    1       -0.457   2.482   0.326  0.00  0.00    +0.046 C 
ATOM     16  C   LIG    1       -2.188   0.537   0.251  0.00  0.00    +0.026 A 
ATOM     17  C   LIG    1       -2.183  -0.832   0.042  0.00  0.00    +0.014 A 
ATOM     18  C   LIG    1       -3.283  -1.865   0.021  0.00  0.00    +0.063 C 
ATOM     19  N   LIG    1       -0.874  -1.162  -0.182  0.00  0.00    -0.358 N 
ATOM     20  H   LIG    1       -0.548  -2.096  -0.383  0.00  0.00    +0.166 HD
ENDBRANCH   4  13
TORSDOF 1
