REMARK  Name = DB06802
REMARK                            x       y       z     vdW  Elec       q    Type
REMARK                         _______ _______ _______ _____ _____    ______ ____
ROOT
ATOM      1  C   LIG    1        1.601   0.093  -0.059  0.00  0.00    +0.043 A 
ATOM      2  C   LIG    1        2.320   0.963   0.775  0.00  0.00    +0.013 A 
ATOM      3  C   LIG    1        3.710   0.957   0.791  0.00  0.00    +0.001 A 
ATOM      4  C   LIG    1        4.410   0.067  -0.014  0.00  0.00    +0.006 A 
ATOM      5  C   LIG    1        3.729  -0.833  -0.840  0.00  0.00    -0.017 A 
ATOM      6  C   LIG    1        2.318  -0.824  -0.867  0.00  0.00    +0.039 A 
ENDROOT
BRANCH   6   7
ATOM      7  N   LIG    1        1.651  -1.717  -1.719  0.00  0.00    -0.357 N 
ATOM      8  H   LIG    1        0.641  -1.732  -1.726  0.00  0.00    +0.142 HD
ATOM      9  H   LIG    1        2.187  -2.358  -2.287  0.00  0.00    +0.142 HD
ENDBRANCH   6   7
BRANCH   1  10
ATOM     10  C   LIG    1        0.095   0.127   0.022  0.00  0.00    +0.195 C 
ATOM     11  O   LIG    1       -0.538  -0.931   0.041  0.00  0.00    -0.287 OA
BRANCH  10  15
ATOM     12  C   LIG    1       -2.075   3.839   0.055  0.00  0.00    +0.000 A 
ATOM     13  C   LIG    1       -0.777   3.810  -0.446  0.00  0.00    +0.001 A 
ATOM     14  C   LIG    1       -0.066   2.613  -0.455  0.00  0.00    +0.012 A 
ATOM     15  C   LIG    1       -0.642   1.438   0.053  0.00  0.00    +0.022 A 
ATOM     16  C   LIG    1       -1.961   1.481   0.532  0.00  0.00    +0.012 A 
ATOM     17  C   LIG    1       -2.671   2.679   0.540  0.00  0.00    +0.001 A 
ENDBRANCH  10  15
ENDBRANCH   1  10
BRANCH   5  18
ATOM     18  C   LIG    1        4.561  -1.789  -1.706  0.00  0.00    +0.132 C 
BRANCH  18  19
ATOM     19  C   LIG    1        4.753  -1.282  -3.145  0.00  0.00    +0.215 C 
ATOM     20  N   LIG    1        4.728  -2.197  -4.117  0.00  0.00    -0.329 N 
ATOM     21  H   LIG    1        4.581  -3.171  -3.901  0.00  0.00    +0.145 HD
ATOM     22  H   LIG    1        4.860  -1.916  -5.078  0.00  0.00    +0.145 HD
ATOM     23  O   LIG    1        4.947  -0.091  -3.382  0.00  0.00    -0.276 OA
ENDBRANCH  18  19
ENDBRANCH   5  18
TORSDOF 5
