REMARK  Name = DB06659
REMARK                            x       y       z     vdW  Elec       q    Type
REMARK                         _______ _______ _______ _____ _____    ______ ____
ROOT
ATOM      1  C   LIG    1       -9.141  -1.273   0.963  0.00  0.00    -0.019 A 
ATOM      2  C   LIG    1       -7.914  -1.885   1.095  0.00  0.00    +0.045 A 
ATOM      3  N   LIG    1       -6.966  -0.909   0.868  0.00  0.00    -0.355 N 
ATOM      4  H   LIG    1       -5.970  -1.060   0.907  0.00  0.00    +0.166 HD
ATOM      5  C   LIG    1       -7.562   0.305   0.606  0.00  0.00    +0.045 A 
ATOM      6  C   LIG    1       -6.926   1.540   0.348  0.00  0.00    +0.051 C 
ATOM      7  C   LIG    1       -5.536   1.776   0.266  0.00  0.00    +0.045 A 
ATOM      8  C   LIG    1       -4.909   2.981   0.045  0.00  0.00    -0.019 A 
ATOM      9  C   LIG    1       -3.510   2.760   0.052  0.00  0.00    -0.021 A 
ATOM     10  C   LIG    1       -2.441   3.824  -0.125  0.00  0.00    +0.046 C 
ATOM     11  C   LIG    1       -3.293   1.410   0.239  0.00  0.00    +0.052 A 
ATOM     12  C   LIG    1       -2.097   0.654   0.278  0.00  0.00    +0.017 C 
ATOM     13  C   LIG    1       -0.693   1.094   0.169  0.00  0.00    +0.023 C 
ATOM     14  C   LIG    1        0.160   0.045   0.249  0.00  0.00    +0.050 C 
ATOM     15  C   LIG    1       -0.612  -1.272   0.261  0.00  0.00    +0.048 C 
ATOM     16  C   LIG    1       -0.688  -2.384   1.331  0.00  0.00    +0.047 C 
ATOM     17  C   LIG    1        0.312  -3.557   1.217  0.00  0.00    +0.015 C 
ATOM     18  C   LIG    1       -2.165  -2.773   1.317  0.00  0.00    +0.014 C 
ATOM     19  C   LIG    1       -2.792  -3.960   1.692  0.00  0.00    +0.045 C 
ATOM     20  C   LIG    1       -4.188  -4.194   1.721  0.00  0.00    +0.045 A 
ATOM     21  C   LIG    1       -4.812  -5.378   2.049  0.00  0.00    -0.019 A 
ATOM     22  C   LIG    1       -6.210  -5.181   1.942  0.00  0.00    -0.022 A 
ATOM     23  C   LIG    1       -7.286  -6.223   2.186  0.00  0.00    +0.046 C 
ATOM     24  C   LIG    1       -6.433  -3.871   1.587  0.00  0.00    +0.045 A 
ATOM     25  N   LIG    1       -5.193  -3.294   1.441  0.00  0.00    -0.355 N 
ATOM     26  H   LIG    1       -5.042  -2.334   1.175  0.00  0.00    +0.166 HD
ATOM     27  N   LIG    1       -2.811  -1.668   0.913  0.00  0.00    -0.320 N 
ATOM     28  H   LIG    1       -3.808  -1.547   0.985  0.00  0.00    +0.152 HD
ATOM     29  C   LIG    1       -1.979  -0.703   0.509  0.00  0.00    +0.029 C 
ATOM     30  N   LIG    1       -4.537   0.838   0.382  0.00  0.00    -0.354 N 
ATOM     31  H   LIG    1       -4.694  -0.147   0.532  0.00  0.00    +0.166 HD
ATOM     32  C   LIG    1       -7.685  -3.243   1.415  0.00  0.00    +0.051 C 
ATOM     33  C   LIG    1       -8.920   0.088   0.648  0.00  0.00    -0.022 A 
ATOM     34  C   LIG    1       -9.989   1.139   0.398  0.00  0.00    +0.046 C 
ENDROOT
BRANCH   1  36
ATOM     35  C   LIG    1      -10.981  -2.617  -0.158  0.00  0.00    +0.009 C 
ATOM     36  C   LIG    1      -10.498  -1.942   1.134  0.00  0.00    +0.034 C 
ENDBRANCH   1  36
BRANCH   8  37
ATOM     37  C   LIG    1       -5.604   4.320  -0.165  0.00  0.00    +0.034 C 
ATOM     38  C   LIG    1       -5.876   5.045   1.160  0.00  0.00    +0.009 C 
ENDBRANCH   8  37
BRANCH  14  39
ATOM     39  C   LIG    1        1.625   0.077   0.222  0.00  0.00    +0.336 C 
ATOM     40  O   LIG    1        2.316  -0.936   0.346  0.00  0.00    -0.245 OA
BRANCH  39  41
ATOM     41  O   LIG    1        2.127   1.323   0.041  0.00  0.00    -0.462 OA
BRANCH  41  42
ATOM     42  C   LIG    1        3.531   1.545  -0.013  0.00  0.00    +0.229 C 
ATOM     43  C   LIG    1        3.802   3.039  -0.211  0.00  0.00    +0.048 C 
ENDBRANCH  41  42
ENDBRANCH  39  41
ENDBRANCH  14  39
BRANCH  15  44
ATOM     44  C   LIG    1       -0.498  -1.940  -1.165  0.00  0.00    +0.015 C 
ATOM     45  C   LIG    1       -0.847  -1.070  -2.390  0.00  0.00    +0.005 C 
ENDBRANCH  15  44
BRANCH  21  46
ATOM     46  C   LIG    1       -4.117  -6.672   2.450  0.00  0.00    +0.034 C 
ATOM     47  C   LIG    1       -3.693  -7.502   1.230  0.00  0.00    +0.009 C 
ENDBRANCH  21  46
TORSDOF 7
