REMARK  Name = DB06152
REMARK                            x       y       z     vdW  Elec       q    Type
REMARK                         _______ _______ _______ _____ _____    ______ ____
ROOT
ATOM      1  C   LIG    1       -0.672   0.231  -0.026  0.00  0.00    +0.084 C 
ATOM      2  C   LIG    1       -1.766  -0.206   0.978  0.00  0.00    +0.027 C 
ENDROOT
BRANCH   1   3
ATOM      3  N   LIG    1        0.665  -0.102   0.486  0.00  0.00    -0.308 NA
ATOM      4  H   LIG    1        0.783  -1.104   0.530  0.00  0.00    +0.123 HD
BRANCH   3   6
ATOM      5  C   LIG    1        1.160   2.054   1.628  0.00  0.00    +0.024 C 
ATOM      6  C   LIG    1        1.105   0.513   1.741  0.00  0.00    +0.051 C 
BRANCH   6   7
ATOM      7  C   LIG    1        2.475  -0.115   2.092  0.00  0.00    +0.023 C 
BRANCH   7   8
ATOM      8  C   LIG    1        3.020   0.272   3.483  0.00  0.00    +0.036 C 
BRANCH   8   9
ATOM      9  C   LIG    1        4.326  -0.435   3.813  0.00  0.00    -0.047 A 
ATOM     10  C   LIG    1        5.546   0.169   3.498  0.00  0.00    +0.003 A 
ATOM     11  C   LIG    1        6.741  -0.482   3.794  0.00  0.00    +0.000 A 
ATOM     12  C   LIG    1        6.712  -1.735   4.403  0.00  0.00    +0.000 A 
ATOM     13  C   LIG    1        5.498  -2.342   4.720  0.00  0.00    +0.000 A 
ATOM     14  C   LIG    1        4.303  -1.692   4.425  0.00  0.00    +0.003 A 
ENDBRANCH   8   9
ENDBRANCH   7   8
ENDBRANCH   6   7
ENDBRANCH   3   6
ENDBRANCH   1   3
BRANCH   1  15
ATOM     15  C   LIG    1       -0.861  -0.414  -1.434  0.00  0.00    +0.161 C 
BRANCH  15  16
ATOM     16  C   LIG    1        0.278  -0.107  -2.413  0.00  0.00    -0.017 A 
ATOM     17  C   LIG    1        1.086  -1.144  -2.890  0.00  0.00    +0.010 A 
ATOM     18  C   LIG    1        2.129  -0.868  -3.769  0.00  0.00    +0.046 A 
ATOM     19  C   LIG    1        2.366   0.446  -4.171  0.00  0.00    +0.117 A 
ATOM     20  C   LIG    1        1.565   1.485  -3.700  0.00  0.00    +0.046 A 
ATOM     21  C   LIG    1        0.522   1.209  -2.821  0.00  0.00    +0.010 A 
BRANCH  19  22
ATOM     22  O   LIG    1        3.393   0.718  -5.035  0.00  0.00    -0.507 OA
ATOM     23  H   LIG    1        3.881  -0.067  -5.294  0.00  0.00    +0.292 HD
ENDBRANCH  19  22
ENDBRANCH  15  16
BRANCH  15  24
ATOM     24  O   LIG    1       -2.109  -0.010  -1.970  0.00  0.00    -0.386 OA
ATOM     25  H   LIG    1       -2.275  -0.518  -2.768  0.00  0.00    +0.210 HD
ENDBRANCH  15  24
ENDBRANCH   1  15
TORSDOF 9
