REMARK  Name = DB06236
REMARK                            x       y       z     vdW  Elec       q    Type
REMARK                         _______ _______ _______ _____ _____    ______ ____
ROOT
ATOM      1  C   LIG    1       -0.767   1.036  -0.074  0.00  0.00    +0.135 A 
ATOM      2  N   LIG    1       -0.012  -0.113  -0.002  0.00  0.00    -0.266 N 
ATOM      3  C   LIG    1       -0.636  -1.352   0.105  0.00  0.00    +0.353 A 
ATOM      4  O   LIG    1        0.048  -2.373   0.187  0.00  0.00    -0.244 OA
ATOM      5  N   LIG    1       -2.049  -1.342   0.113  0.00  0.00    -0.175 NA
ATOM      6  C   LIG    1       -2.743  -0.258   0.042  0.00  0.00    +0.159 A 
ATOM      7  C   LIG    1       -2.107   1.029  -0.056  0.00  0.00    +0.179 A 
ATOM      8  F   LIG    1       -2.821   2.175  -0.129  0.00  0.00    -0.200 F 
ENDROOT
BRANCH   2   9
ATOM      9  C   LIG    1        1.451  -0.014  -0.024  0.00  0.00    +0.248 C 
ATOM     10  O   LIG    1        2.004  -0.511   1.149  0.00  0.00    -0.343 OA
ATOM     11  C   LIG    1        3.216  -1.188   0.832  0.00  0.00    +0.169 C 
ATOM     12  C   LIG    1        3.164  -1.397  -0.668  0.00  0.00    +0.007 C 
ATOM     13  C   LIG    1        2.136  -0.706  -1.171  0.00  0.00    +0.025 C 
BRANCH  11  14
ATOM     14  C   LIG    1        3.268  -2.511   1.618  0.00  0.00    +0.191 C 
BRANCH  14  15
ATOM     15  O   LIG    1        3.467  -2.269   2.996  0.00  0.00    -0.392 OA
ATOM     16  H   LIG    1        3.456  -3.110   3.459  0.00  0.00    +0.210 HD
ENDBRANCH  14  15
ENDBRANCH  11  14
ENDBRANCH   2   9
BRANCH   6  17
ATOM     17  N   LIG    1       -4.084  -0.304   0.055  0.00  0.00    -0.341 N 
ATOM     18  H   LIG    1       -4.563  -1.191   0.121  0.00  0.00    +0.144 HD
ATOM     19  H   LIG    1       -4.628   0.544  -0.003  0.00  0.00    +0.144 HD
ENDBRANCH   6  17
TORSDOF 4
