REMARK  Name = DB06702
REMARK                            x       y       z     vdW  Elec       q    Type
REMARK                         _______ _______ _______ _____ _____    ______ ____
ROOT
ATOM      1  C   LIG    1       -0.173  -0.346   0.203  0.00  0.00    +0.054 C 
ENDROOT
BRANCH   1   7
ATOM      2  C   LIG    1       -1.718  -1.996   1.442  0.00  0.00    +0.135 A 
ATOM      3  C   LIG    1       -2.114  -2.641   2.617  0.00  0.00    +0.047 A 
ATOM      4  C   LIG    1       -1.536  -2.309   3.839  0.00  0.00    +0.009 A 
ATOM      5  C   LIG    1       -0.543  -1.330   3.909  0.00  0.00    -0.022 A 
ATOM      6  C   LIG    1       -0.135  -0.695   2.730  0.00  0.00    +0.013 A 
ATOM      7  C   LIG    1       -0.702  -1.019   1.488  0.00  0.00    +0.003 A 
BRANCH   2   8
ATOM      8  O   LIG    1       -2.327  -2.375   0.265  0.00  0.00    -0.425 OA
BRANCH   8   9
ATOM      9  C   LIG    1       -3.335  -1.613  -0.249  0.00  0.00    +0.315 C 
ATOM     10  O   LIG    1       -3.811  -0.594   0.260  0.00  0.00    -0.250 OA
BRANCH   9  12
ATOM     11  C   LIG    1       -2.931  -1.802  -2.744  0.00  0.00    +0.019 C 
ATOM     12  C   LIG    1       -3.862  -2.186  -1.578  0.00  0.00    +0.092 C 
ATOM     13  C   LIG    1       -5.319  -1.770  -1.871  0.00  0.00    +0.019 C 
ENDBRANCH   9  12
ENDBRANCH   8   9
ENDBRANCH   2   8
BRANCH   5  14
ATOM     14  C   LIG    1        0.061  -0.995   5.271  0.00  0.00    +0.191 C 
BRANCH  14  15
ATOM     15  O   LIG    1        1.099  -0.033   5.251  0.00  0.00    -0.390 OA
ATOM     16  H   LIG    1        1.380   0.132   6.154  0.00  0.00    +0.210 HD
ENDBRANCH  14  15
ENDBRANCH   5  14
ENDBRANCH   1   7
BRANCH   1  17
ATOM     17  C   LIG    1       -0.844   0.993  -0.128  0.00  0.00    -0.040 A 
ATOM     18  C   LIG    1       -1.167   1.283  -1.458  0.00  0.00    +0.004 A 
ATOM     19  C   LIG    1       -1.780   2.488  -1.787  0.00  0.00    +0.000 A 
ATOM     20  C   LIG    1       -2.065   3.412  -0.785  0.00  0.00    +0.000 A 
ATOM     21  C   LIG    1       -1.738   3.142   0.541  0.00  0.00    +0.000 A 
ATOM     22  C   LIG    1       -1.125   1.936   0.869  0.00  0.00    +0.004 A 
ENDBRANCH   1  17
BRANCH   1  23
ATOM     23  C   LIG    1        1.373  -0.240   0.119  0.00  0.00    +0.028 C 
BRANCH  23  24
ATOM     24  C   LIG    1        2.093  -1.605   0.160  0.00  0.00    +0.086 C 
BRANCH  24  25
ATOM     25  N   LIG    1        3.559  -1.432   0.130  0.00  0.00    -0.297 NA
BRANCH  25  26
ATOM     26  C   LIG    1        4.177  -1.893  -1.136  0.00  0.00    +0.051 C 
ATOM     27  C   LIG    1        4.129  -3.428  -1.318  0.00  0.00    +0.024 C 
ATOM     28  C   LIG    1        3.617  -1.147  -2.366  0.00  0.00    +0.024 C 
ENDBRANCH  25  26
BRANCH  25  29
ATOM     29  C   LIG    1        4.221  -1.858   1.389  0.00  0.00    +0.051 C 
ATOM     30  C   LIG    1        5.762  -1.716   1.346  0.00  0.00    +0.024 C 
ATOM     31  C   LIG    1        3.691  -1.047   2.596  0.00  0.00    +0.024 C 
ENDBRANCH  25  29
ENDBRANCH  24  25
ENDBRANCH  23  24
ENDBRANCH   1  23
TORSDOF 12
