REMARK  Name = DB06401
REMARK                            x       y       z     vdW  Elec       q    Type
REMARK                         _______ _______ _______ _____ _____    ______ ____
ROOT
ATOM      1  N   LIG    1       -0.258  -0.337   0.525  0.00  0.00    -0.335 N 
ATOM      2  C   LIG    1       -1.265  -1.279   0.667  0.00  0.00    +0.050 A 
ATOM      3  C   LIG    1       -1.232  -2.597   1.147  0.00  0.00    +0.030 A 
ATOM      4  C   LIG    1       -2.434  -3.303   1.162  0.00  0.00    +0.047 A 
ATOM      5  C   LIG    1       -3.625  -2.734   0.721  0.00  0.00    +0.118 A 
ATOM      6  C   LIG    1       -3.659  -1.426   0.244  0.00  0.00    +0.055 A 
ATOM      7  C   LIG    1       -2.471  -0.676   0.208  0.00  0.00    +0.007 A 
ATOM      8  C   LIG    1       -2.156   0.656  -0.218  0.00  0.00    -0.017 A 
ATOM      9  C   LIG    1       -3.150   1.650  -0.781  0.00  0.00    +0.046 C 
ATOM     10  C   LIG    1       -0.793   0.828  -0.007  0.00  0.00    +0.053 A 
ENDROOT
BRANCH  10  11
ATOM     11  C   LIG    1        0.017   2.047  -0.298  0.00  0.00    -0.001 A 
ATOM     12  C   LIG    1        0.143   2.492  -1.616  0.00  0.00    +0.013 A 
ATOM     13  C   LIG    1        0.885   3.637  -1.895  0.00  0.00    +0.046 A 
ATOM     14  C   LIG    1        1.495   4.336  -0.855  0.00  0.00    +0.117 A 
ATOM     15  C   LIG    1        1.366   3.900   0.464  0.00  0.00    +0.046 A 
ATOM     16  C   LIG    1        0.623   2.756   0.742  0.00  0.00    +0.013 A 
BRANCH  14  17
ATOM     17  O   LIG    1        2.225   5.462  -1.130  0.00  0.00    -0.507 OA
ATOM     18  H   LIG    1        2.598   5.868  -0.344  0.00  0.00    +0.292 HD
ENDBRANCH  14  17
ENDBRANCH  10  11
BRANCH   5  19
ATOM     19  O   LIG    1       -4.780  -3.469   0.755  0.00  0.00    -0.507 OA
ATOM     20  H   LIG    1       -4.648  -4.355   1.099  0.00  0.00    +0.292 HD
ENDBRANCH   5  19
BRANCH   1  21
ATOM     21  C   LIG    1        1.157  -0.593   0.822  0.00  0.00    +0.157 C 
BRANCH  21  22
ATOM     22  C   LIG    1        1.811  -1.592  -0.127  0.00  0.00    -0.028 A 
ATOM     23  C   LIG    1        2.463  -2.716   0.383  0.00  0.00    +0.009 A 
ATOM     24  C   LIG    1        3.052  -3.631  -0.484  0.00  0.00    +0.046 A 
ATOM     25  C   LIG    1        2.996  -3.439  -1.865  0.00  0.00    +0.121 A 
ATOM     26  C   LIG    1        2.352  -2.300  -2.374  0.00  0.00    +0.046 A 
ATOM     27  C   LIG    1        1.766  -1.381  -1.508  0.00  0.00    +0.009 A 
BRANCH  25  28
ATOM     28  O   LIG    1        3.596  -4.408  -2.646  0.00  0.00    -0.491 OA
BRANCH  28  29
ATOM     29  C   LIG    1        3.476  -4.339  -4.066  0.00  0.00    +0.244 C 
BRANCH  29  30
ATOM     30  C   LIG    1        4.111  -5.589  -4.712  0.00  0.00    +0.125 C 
BRANCH  30  31
ATOM     31  N   LIG    1        3.634  -6.866  -4.166  0.00  0.00    -0.299 NA
ATOM     32  C   LIG    1        2.194  -7.134  -4.239  0.00  0.00    +0.084 C 
ATOM     33  C   LIG    1        1.642  -7.993  -3.085  0.00  0.00    +0.015 C 
ATOM     34  C   LIG    1        1.784  -9.520  -3.240  0.00  0.00    +0.001 C 
ATOM     35  C   LIG    1        3.080 -10.047  -3.887  0.00  0.00    +0.001 C 
ATOM     36  C   LIG    1        4.364  -9.264  -3.561  0.00  0.00    +0.015 C 
ATOM     37  C   LIG    1        4.552  -7.984  -4.397  0.00  0.00    +0.084 C 
ENDBRANCH  30  31
ENDBRANCH  29  30
ENDBRANCH  28  29
ENDBRANCH  25  28
ENDBRANCH  21  22
ENDBRANCH   1  21
TORSDOF 9
