REMARK  Name = DB06119
REMARK                            x       y       z     vdW  Elec       q    Type
REMARK                         _______ _______ _______ _____ _____    ______ ____
ROOT
ATOM      1  C   LIG    1       -0.021   0.043   0.047  0.00  0.00    +0.233 C 
ENDROOT
BRANCH   1   2
ATOM      2  C   LIG    1       -0.515  -0.755   1.263  0.00  0.00    +0.013 A 
ATOM      3  C   LIG    1       -0.471  -0.171   2.536  0.00  0.00    +0.009 A 
ATOM      4  C   LIG    1       -0.914  -0.871   3.657  0.00  0.00    +0.000 A 
ATOM      5  C   LIG    1       -1.403  -2.168   3.518  0.00  0.00    +0.001 A 
ATOM      6  C   LIG    1       -1.446  -2.764   2.259  0.00  0.00    +0.020 A 
ATOM      7  C   LIG    1       -1.005  -2.067   1.131  0.00  0.00    +0.048 A 
ATOM      8 CL   LIG    1       -1.075  -2.866  -0.402  0.00  0.00    -0.083 Cl
ENDBRANCH   1   2
BRANCH   1   9
ATOM      9  O   LIG    1       -0.581   1.363   0.023  0.00  0.00    -0.440 OA
BRANCH   9  10
ATOM     10  C   LIG    1       -1.885   1.588  -0.256  0.00  0.00    +0.398 C 
ATOM     11  O   LIG    1       -2.717   0.722  -0.526  0.00  0.00    -0.227 OA
ATOM     12  N   LIG    1       -2.139   2.939  -0.195  0.00  0.00    -0.295 N 
ATOM     13  H   LIG    1       -1.387   3.575   0.028  0.00  0.00    +0.148 HD
ATOM     14  H   LIG    1       -3.072   3.276  -0.381  0.00  0.00    +0.148 HD
ENDBRANCH   9  10
ENDBRANCH   1   9
BRANCH   1  15
ATOM     15  C   LIG    1        1.522   0.139   0.025  0.00  0.00    +0.218 C 
BRANCH  15  16
ATOM     16  N   LIG    1        1.995   0.813  -1.179  0.00  0.00    -0.159 N 
ATOM     17  N   LIG    1        2.426   2.077  -1.170  0.00  0.00    -0.046 NA
ATOM     18  N   LIG    1        2.665   2.353  -2.501  0.00  0.00    -0.116 NA
ATOM     19  C   LIG    1        2.329   1.250  -3.146  0.00  0.00    +0.270 A 
ATOM     20  N   LIG    1        1.894   0.263  -2.396  0.00  0.00    -0.139 NA
ENDBRANCH  15  16
ENDBRANCH   1  15
TORSDOF 5
