REMARK  Name = DB06414
REMARK                            x       y       z     vdW  Elec       q    Type
REMARK                         _______ _______ _______ _____ _____    ______ ____
ROOT
ATOM      1  C   LIG    1        1.445  -0.051  -0.058  0.00  0.00    +0.241 A 
ATOM      2  C   LIG    1        2.178  -1.216  -0.304  0.00  0.00    +0.119 A 
ATOM      3 BR   LIG    1        1.295  -2.840  -0.783  0.00  0.00    -0.041 Br
ATOM      4  C   LIG    1        3.572  -1.129  -0.178  0.00  0.00    +0.139 A 
ATOM      5  N   LIG    1        4.194   0.028   0.168  0.00  0.00    -0.198 NA
ATOM      6  C   LIG    1        3.411   1.114   0.392  0.00  0.00    +0.224 A 
ATOM      7  N   LIG    1        2.060   1.117   0.287  0.00  0.00    -0.178 NA
ENDROOT
BRANCH   4   8
ATOM      8  N   LIG    1        4.388  -2.236  -0.403  0.00  0.00    -0.342 N 
ATOM      9  H   LIG    1        5.387  -2.142  -0.295  0.00  0.00    +0.144 HD
ATOM     10  H   LIG    1        3.968  -3.117  -0.659  0.00  0.00    +0.144 HD
ENDBRANCH   4   8
BRANCH   6  11
ATOM     11  N   LIG    1        4.094   2.288   0.748  0.00  0.00    -0.283 N 
ATOM     12  H   LIG    1        5.096   2.165   0.757  0.00  0.00    +0.155 HD
BRANCH  11  13
ATOM     13  C   LIG    1        3.693   3.592   1.101  0.00  0.00    +0.034 A 
ATOM     14  C   LIG    1        2.357   4.001   1.232  0.00  0.00    +0.024 A 
ATOM     15  C   LIG    1        2.054   5.313   1.587  0.00  0.00    +0.020 A 
ATOM     16  C   LIG    1        3.083   6.227   1.816  0.00  0.00    +0.052 A 
ATOM     17  C   LIG    1        4.414   5.830   1.691  0.00  0.00    +0.020 A 
ATOM     18  C   LIG    1        4.714   4.517   1.337  0.00  0.00    +0.024 A 
BRANCH  16  19
ATOM     19  C   LIG    1        2.766   7.599   2.186  0.00  0.00    +0.099 C 
ATOM     20  N   LIG    1        2.514   8.689   2.481  0.00  0.00    -0.191 NA
ENDBRANCH  16  19
ENDBRANCH  11  13
ENDBRANCH   6  11
BRANCH   1  21
ATOM     21  O   LIG    1        0.063  -0.073  -0.159  0.00  0.00    -0.436 OA
BRANCH  21  22
ATOM     22  C   LIG    1       -0.687   1.057   0.097  0.00  0.00    +0.136 A 
ATOM     23  C   LIG    1       -1.085   1.358   1.409  0.00  0.00    -0.007 A 
ATOM     24  C   LIG    1       -0.724   0.430   2.559  0.00  0.00    +0.047 C 
ATOM     25  C   LIG    1       -1.816   2.522   1.662  0.00  0.00    +0.025 A 
ATOM     26  C   LIG    1       -2.152   3.386   0.618  0.00  0.00    +0.052 A 
ATOM     27  C   LIG    1       -1.761   3.082  -0.688  0.00  0.00    +0.025 A 
ATOM     28  C   LIG    1       -1.030   1.920  -0.954  0.00  0.00    -0.007 A 
ATOM     29  C   LIG    1       -0.611   1.603  -2.381  0.00  0.00    +0.047 C 
BRANCH  26  30
ATOM     30  C   LIG    1       -2.906   4.601   0.890  0.00  0.00    +0.099 C 
ATOM     31  N   LIG    1       -3.506   5.567   1.106  0.00  0.00    -0.191 NA
ENDBRANCH  26  30
ENDBRANCH  21  22
ENDBRANCH   1  21
TORSDOF 7
