REMARK  Name = DB06625
REMARK                            x       y       z     vdW  Elec       q    Type
REMARK                         _______ _______ _______ _____ _____    ______ ____
ROOT
ATOM      1  N   LIG    1        2.046  -0.024   1.321  0.00  0.00    -0.222 N 
ATOM      2  N   LIG    1        2.248   1.127   1.998  0.00  0.00    -0.063 NA
ATOM      3  N   LIG    1        2.697   0.823   3.267  0.00  0.00    -0.126 NA
ATOM      4  C   LIG    1        2.727  -0.537   3.370  0.00  0.00    +0.160 A 
ATOM      5  C   LIG    1        3.069  -1.435   4.399  0.00  0.00    +0.140 A 
ATOM      6  N   LIG    1        2.976  -2.777   4.179  0.00  0.00    -0.209 NA
ATOM      7  C   LIG    1        2.550  -3.194   2.957  0.00  0.00    +0.215 A 
ATOM      8  N   LIG    1        2.196  -2.416   1.898  0.00  0.00    -0.194 NA
ATOM      9  C   LIG    1        2.304  -1.104   2.147  0.00  0.00    +0.184 A 
ENDROOT
BRANCH   5  10
ATOM     10  C   LIG    1        3.536  -1.002   5.750  0.00  0.00    +0.155 A 
ATOM     11  O   LIG    1        3.854  -1.970   6.656  0.00  0.00    -0.461 OA
ATOM     12  C   LIG    1        4.251  -1.351   7.797  0.00  0.00    +0.196 A 
ATOM     13  C   LIG    1        4.193   0.021   7.638  0.00  0.00    +0.042 A 
ATOM     14  C   LIG    1        3.738   0.243   6.338  0.00  0.00    +0.051 A 
ENDBRANCH   5  10
BRANCH   7  15
ATOM     15  N   LIG    1        2.469  -4.569   2.768  0.00  0.00    -0.327 N 
ATOM     16  H   LIG    1        2.725  -5.188   3.524  0.00  0.00    +0.145 HD
ATOM     17  H   LIG    1        2.162  -4.929   1.876  0.00  0.00    +0.145 HD
ENDBRANCH   7  15
BRANCH   1  18
ATOM     18  C   LIG    1        1.488   0.006  -0.025  0.00  0.00    +0.182 C 
BRANCH  18  24
ATOM     19  C   LIG    1       -2.849   2.561  -0.003  0.00  0.00    +0.045 C 
ATOM     20  C   LIG    1       -2.142   1.210  -0.013  0.00  0.00    -0.030 A 
ATOM     21  C   LIG    1       -2.837  -0.014  -0.009  0.00  0.00    +0.028 A 
ATOM     22  C   LIG    1       -2.125  -1.216  -0.014  0.00  0.00    +0.023 A 
ATOM     23  C   LIG    1       -0.731  -1.212  -0.024  0.00  0.00    +0.007 A 
ATOM     24  C   LIG    1       -0.033  -0.002  -0.029  0.00  0.00    -0.026 A 
ATOM     25  C   LIG    1       -0.743   1.202  -0.023  0.00  0.00    +0.010 A 
BRANCH  21  26
ATOM     26  N   LIG    1       -4.232  -0.072   0.002  0.00  0.00    -0.358 N 
ATOM     27  H   LIG    1       -4.765   0.786   0.002  0.00  0.00    +0.142 HD
ATOM     28  H   LIG    1       -4.692  -0.971   0.006  0.00  0.00    +0.142 HD
ENDBRANCH  21  26
ENDBRANCH  18  24
ENDBRANCH   1  18
TORSDOF 5
