REMARK  Name = DB06581
REMARK                            x       y       z     vdW  Elec       q    Type
REMARK                         _______ _______ _______ _____ _____    ______ ____
ROOT
ATOM      1  C   LIG    1        1.520   0.106  -0.243  0.00  0.00    +0.182 C 
ATOM      2  C   LIG    1        1.866  -0.640   1.065  0.00  0.00    +0.046 C 
ATOM      3  C   LIG    1        3.341  -1.085   1.068  0.00  0.00    +0.011 C 
ATOM      4  C   LIG    1        3.779  -1.961  -0.157  0.00  0.00    -0.025 C 
ATOM      5  C   LIG    1        3.127  -3.375  -0.026  0.00  0.00    +0.012 C 
ATOM      6  C   LIG    1        3.328  -1.175  -1.458  0.00  0.00    +0.004 C 
ATOM      7  C   LIG    1        3.879  -1.864  -2.739  0.00  0.00    +0.005 C 
ATOM      8  C   LIG    1        5.418  -1.901  -2.740  0.00  0.00    +0.008 C 
ATOM      9  C   LIG    1        6.053  -2.631  -1.511  0.00  0.00    -0.023 C 
ATOM     10  C   LIG    1        5.717  -4.155  -1.667  0.00  0.00    +0.012 C 
ATOM     11  C   LIG    1        7.655  -2.381  -1.461  0.00  0.00    -0.023 C 
ATOM     12  C   LIG    1        8.013  -0.849  -1.496  0.00  0.00    +0.012 C 
ATOM     13  C   LIG    1        8.409  -3.003  -2.705  0.00  0.00    +0.008 C 
ATOM     14  C   LIG    1        9.956  -3.098  -2.557  0.00  0.00    +0.019 C 
ATOM     15  C   LIG    1       10.368  -3.916  -1.284  0.00  0.00    +0.071 C 
ATOM     16  C   LIG    1       11.867  -3.788  -0.928  0.00  0.00    +0.019 C 
ATOM     17  C   LIG    1       11.953  -3.950   0.605  0.00  0.00    +0.009 C 
ATOM     18  C   LIG    1       10.563  -3.552   1.168  0.00  0.00    +0.019 C 
ATOM     19  C   LIG    1        9.789  -3.082  -0.095  0.00  0.00    +0.017 C 
ATOM     20  C   LIG    1        8.221  -3.034  -0.130  0.00  0.00    +0.000 C 
ATOM     21  C   LIG    1        7.557  -2.428   1.123  0.00  0.00    +0.005 C 
ATOM     22  C   LIG    1        6.034  -2.606   1.099  0.00  0.00    +0.005 C 
ATOM     23  C   LIG    1        5.374  -2.034  -0.194  0.00  0.00    +0.002 C 
ATOM     24  C   LIG    1        1.804  -0.741  -1.528  0.00  0.00    +0.005 C 
ATOM     25  C   LIG    1        0.822  -1.942  -1.619  0.00  0.00    +0.015 C 
ATOM     26  C   LIG    1        1.601   0.213  -2.739  0.00  0.00    +0.015 C 
ENDROOT
BRANCH  18  27
ATOM     27  C   LIG    1       10.686  -2.589   2.360  0.00  0.00    -0.076 C 
ATOM     28  C   LIG    1       10.459  -1.262   2.313  0.00  0.00    +0.007 C 
ATOM     29  C   LIG    1       11.100  -3.258   3.662  0.00  0.00    +0.039 C 
ENDBRANCH  18  27
BRANCH  15  30
ATOM     30  C   LIG    1        9.948  -5.432  -1.460  0.00  0.00    +0.311 C 
ATOM     31  O   LIG    1       10.149  -5.981  -2.570  0.00  0.00    -0.250 OA
BRANCH  30  32
ATOM     32  O   LIG    1        9.499  -6.064  -0.477  0.00  0.00    -0.480 OA
ATOM     33  H   LIG    1        8.899  -6.772  -0.609  0.00  0.00    +0.295 HD
ENDBRANCH  30  32
ENDBRANCH  15  30
BRANCH   1  34
ATOM     34  O   LIG    1        0.161   0.552  -0.191  0.00  0.00    -0.461 OA
BRANCH  34  35
ATOM     35  C   LIG    1       -0.184   1.744   0.351  0.00  0.00    +0.308 C 
ATOM     36  O   LIG    1        0.590   2.586   0.810  0.00  0.00    -0.251 OA
BRANCH  35  37
ATOM     37  C   LIG    1       -1.702   1.967   0.350  0.00  0.00    +0.138 C 
BRANCH  37  38
ATOM     38  C   LIG    1       -2.456   1.575   1.665  0.00  0.00    +0.072 C 
ATOM     39  C   LIG    1       -1.961   2.430   2.872  0.00  0.00    +0.023 C 
ATOM     40  C   LIG    1       -2.213   0.071   2.018  0.00  0.00    +0.023 C 
BRANCH  38  41
ATOM     41  C   LIG    1       -3.982   1.863   1.400  0.00  0.00    +0.311 C 
ATOM     42  O   LIG    1       -4.379   3.053   1.432  0.00  0.00    -0.250 OA
BRANCH  41  43
ATOM     43  O   LIG    1       -4.749   0.913   1.109  0.00  0.00    -0.480 OA
ATOM     44  H   LIG    1       -4.968   0.745   0.213  0.00  0.00    +0.295 HD
ENDBRANCH  41  43
ENDBRANCH  38  41
ENDBRANCH  37  38
ENDBRANCH  35  37
ENDBRANCH  34  35
ENDBRANCH   1  34
TORSDOF 9
