REMARK  Name = DB06536
REMARK                            x       y       z     vdW  Elec       q    Type
REMARK                         _______ _______ _______ _____ _____    ______ ____
ROOT
ATOM      1  C   LIG    1        1.362   0.085   0.066  0.00  0.00    +0.121 A 
ATOM      2  C   LIG    1        2.012  -1.146   0.162  0.00  0.00    +0.046 A 
ATOM      3  C   LIG    1        3.402  -1.218   0.137  0.00  0.00    +0.007 A 
ATOM      4  C   LIG    1        4.158  -0.050   0.019  0.00  0.00    -0.044 A 
ATOM      5  C   LIG    1        3.518   1.187  -0.078  0.00  0.00    +0.007 A 
ATOM      6  C   LIG    1        2.127   1.256  -0.056  0.00  0.00    +0.046 A 
ENDROOT
BRANCH   1   7
ATOM      7  O   LIG    1       -0.019   0.057   0.099  0.00  0.00    -0.492 OA
BRANCH   7   8
ATOM      8  C   LIG    1       -0.747   1.278  -0.008  0.00  0.00    +0.233 C 
BRANCH   8   9
ATOM      9  C   LIG    1       -2.259   0.994   0.080  0.00  0.00    +0.076 C 
BRANCH   9  13
ATOM     10  C   LIG    1       -3.646  -1.022   3.641  0.00  0.00    +0.156 A 
ATOM     11  C   LIG    1       -2.600  -0.104   3.736  0.00  0.00    +0.049 A 
ATOM     12  C   LIG    1       -2.141   0.546   2.594  0.00  0.00    +0.007 A 
ATOM     13  C   LIG    1       -2.729   0.282   1.350  0.00  0.00    -0.044 A 
ATOM     14  C   LIG    1       -3.789  -0.625   1.267  0.00  0.00    +0.007 A 
ATOM     15  C   LIG    1       -4.248  -1.275   2.409  0.00  0.00    +0.049 A 
BRANCH  10  16
ATOM     16  O   LIG    1       -4.116  -1.653   4.764  0.00  0.00    -0.346 OA
BRANCH  16  17
ATOM     17  S   LIG    1       -3.254  -2.947   5.386  0.00  0.00    +0.118 S 
ATOM     18  C   LIG    1       -3.400  -4.147   3.934  0.00  0.00    +0.242 C 
ATOM     19  O   LIG    1       -4.013  -3.485   6.519  0.00  0.00    -0.137 OA
ATOM     20  O   LIG    1       -1.851  -2.549   5.547  0.00  0.00    -0.137 OA
ENDBRANCH  16  17
ENDBRANCH  10  16
ENDBRANCH   9  13
ENDBRANCH   8   9
ENDBRANCH   7   8
ENDBRANCH   1   7
BRANCH   4  21
ATOM     21  C   LIG    1        5.679  -0.122  -0.008  0.00  0.00    +0.078 C 
BRANCH  21  22
ATOM     22  C   LIG    1        6.263  -0.093  -1.442  0.00  0.00    +0.230 C 
BRANCH  22  23
ATOM     23  C   LIG    1        7.818  -0.072  -1.384  0.00  0.00    +0.334 C 
ATOM     24  O   LIG    1        8.366   1.051  -1.313  0.00  0.00    -0.248 OA
BRANCH  23  25
ATOM     25  O   LIG    1        8.443  -1.159  -1.390  0.00  0.00    -0.479 OA
ATOM     26  H   LIG    1        8.288  -1.785  -2.070  0.00  0.00    +0.295 HD
ENDBRANCH  23  25
ENDBRANCH  22  23
BRANCH  22  27
ATOM     27  O   LIG    1        5.786  -1.251  -2.144  0.00  0.00    -0.365 OA
BRANCH  27  28
ATOM     28  C   LIG    1        5.914  -1.219  -3.563  0.00  0.00    +0.157 C 
ATOM     29  C   LIG    1        5.342  -2.519  -4.135  0.00  0.00    +0.034 C 
ENDBRANCH  27  28
ENDBRANCH  22  27
ENDBRANCH  21  22
ENDBRANCH   4  21
TORSDOF 12
