REMARK  Name = DB06420
REMARK                            x       y       z     vdW  Elec       q    Type
REMARK                         _______ _______ _______ _____ _____    ______ ____
ROOT
ATOM      1  C   LIG    1        1.244   0.178  -0.420  0.00  0.00    +0.158 C 
ATOM      2  C   LIG    1        1.996  -0.448  -1.617  0.00  0.00    +0.030 A 
ATOM      3  C   LIG    1        2.105   0.269  -2.821  0.00  0.00    +0.134 A 
ATOM      4  C   LIG    1        2.698  -0.286  -3.979  0.00  0.00    +0.078 A 
ATOM      5  C   LIG    1        2.809   0.518  -5.266  0.00  0.00    +0.198 C 
ATOM      6  O   LIG    1        2.588   1.730  -5.322  0.00  0.00    -0.286 OA
ATOM      7  C   LIG    1        3.056  -0.259  -6.523  0.00  0.00    +0.033 A 
ATOM      8  C   LIG    1        2.813   0.334  -7.773  0.00  0.00    +0.012 A 
ATOM      9  C   LIG    1        3.030  -0.370  -8.955  0.00  0.00    +0.001 A 
ATOM     10  C   LIG    1        3.492  -1.680  -8.906  0.00  0.00    +0.001 A 
ATOM     11  C   LIG    1        3.736  -2.284  -7.676  0.00  0.00    +0.012 A 
ATOM     12  C   LIG    1        3.524  -1.588  -6.473  0.00  0.00    +0.033 A 
ATOM     13  C   LIG    1        3.789  -2.264  -5.163  0.00  0.00    +0.198 C 
ATOM     14  O   LIG    1        4.377  -3.348  -5.133  0.00  0.00    -0.286 OA
ATOM     15  C   LIG    1        3.169  -1.624  -3.929  0.00  0.00    +0.078 A 
ATOM     16  C   LIG    1        3.033  -2.347  -2.721  0.00  0.00    +0.132 A 
ATOM     17  C   LIG    1        2.462  -1.781  -1.570  0.00  0.00    +0.007 A 
ATOM     18  C   LIG    1        2.387  -2.592  -0.258  0.00  0.00    +0.082 C 
ATOM     19  C   LIG    1        1.271  -2.122   0.704  0.00  0.00    +0.133 C 
ATOM     20  C   LIG    1        1.452  -0.600   0.897  0.00  0.00    +0.079 C 
ENDROOT
BRANCH   3  21
ATOM     21  O   LIG    1        1.588   1.546  -2.833  0.00  0.00    -0.506 OA
ATOM     22  H   LIG    1        1.196   1.799  -1.995  0.00  0.00    +0.292 HD
ENDBRANCH   3  21
BRANCH  16  23
ATOM     23  O   LIG    1        3.467  -3.651  -2.622  0.00  0.00    -0.506 OA
ATOM     24  H   LIG    1        3.309  -4.034  -1.757  0.00  0.00    +0.292 HD
ENDBRANCH  16  23
BRANCH  19  25
ATOM     25  O   LIG    1        0.005  -2.439   0.135  0.00  0.00    -0.381 OA
ATOM     26  H   LIG    1       -0.682  -2.151   0.740  0.00  0.00    +0.211 HD
ENDBRANCH  19  25
BRANCH  19  27
ATOM     27  C   LIG    1        1.368  -2.861   2.075  0.00  0.00    +0.190 C 
ATOM     28  O   LIG    1        0.440  -3.559   2.501  0.00  0.00    -0.292 OA
BRANCH  27  29
ATOM     29  C   LIG    1        2.664  -2.678   2.894  0.00  0.00    +0.233 C 
BRANCH  29  30
ATOM     30  O   LIG    1        2.593  -3.390   4.117  0.00  0.00    -0.387 OA
ATOM     31  H   LIG    1        3.417  -3.267   4.595  0.00  0.00    +0.210 HD
ENDBRANCH  29  30
ENDBRANCH  27  29
ENDBRANCH  19  27
BRANCH   1  32
ATOM     32  O   LIG    1       -0.141   0.280  -0.771  0.00  0.00    -0.342 OA
BRANCH  32  36
ATOM     33  C   LIG    1       -2.095   0.427   3.043  0.00  0.00    +0.041 C 
ATOM     34  C   LIG    1       -1.983   0.315   1.514  0.00  0.00    +0.149 C 
ATOM     35  O   LIG    1       -1.106   1.362   1.071  0.00  0.00    -0.345 OA
ATOM     36  C   LIG    1       -0.846   1.401  -0.313  0.00  0.00    +0.266 C 
ATOM     37  C   LIG    1       -2.147   1.509  -1.121  0.00  0.00    +0.139 C 
ATOM     38  I   LIG    1       -2.974   3.518  -0.769  0.00  0.00    -0.074 I 
ATOM     39  C   LIG    1       -3.141   0.398  -0.728  0.00  0.00    +0.163 C 
ATOM     40  C   LIG    1       -3.354   0.360   0.798  0.00  0.00    +0.173 C 
BRANCH  39  41
ATOM     41  O   LIG    1       -4.349   0.505  -1.457  0.00  0.00    -0.388 OA
ATOM     42  H   LIG    1       -4.146   0.807  -2.346  0.00  0.00    +0.210 HD
ENDBRANCH  39  41
BRANCH  40  43
ATOM     43  O   LIG    1       -4.175  -0.732   1.177  0.00  0.00    -0.387 OA
ATOM     44  H   LIG    1       -3.819  -1.534   0.789  0.00  0.00    +0.210 HD
ENDBRANCH  40  43
ENDBRANCH  32  36
ENDBRANCH   1  32
TORSDOF 10
