REMARK  Name = DB06144
REMARK                            x       y       z     vdW  Elec       q    Type
REMARK                         _______ _______ _______ _____ _____    ______ ____
ROOT
ATOM      1 CL   LIG    1       -6.057   2.954   5.211  0.00  0.00    -0.084 Cl
ATOM      2  C   LIG    1       -6.179   2.114   3.709  0.00  0.00    +0.042 A 
ATOM      3  C   LIG    1       -7.434   1.852   3.169  0.00  0.00    +0.022 A 
ATOM      4  C   LIG    1       -7.589   1.177   1.959  0.00  0.00    +0.028 A 
ATOM      5  C   LIG    1       -6.425   0.758   1.294  0.00  0.00    +0.054 A 
ATOM      6  C   LIG    1       -5.122   1.030   1.826  0.00  0.00    +0.005 A 
ATOM      7  C   LIG    1       -4.152   0.502   0.910  0.00  0.00    -0.019 A 
ATOM      8  C   LIG    1       -4.890  -0.059  -0.110  0.00  0.00    +0.096 A 
ATOM      9  N   LIG    1       -6.246   0.076   0.094  0.00  0.00    -0.316 N 
ATOM     10  C   LIG    1       -5.020   1.712   3.050  0.00  0.00    +0.030 A 
ENDROOT
BRANCH   9  11
ATOM     11  C   LIG    1       -7.237  -0.442  -0.773  0.00  0.00    +0.047 A 
ATOM     12  C   LIG    1       -8.390  -1.044  -0.256  0.00  0.00    +0.029 A 
ATOM     13  C   LIG    1       -9.370  -1.528  -1.119  0.00  0.00    +0.040 A 
ATOM     14  C   LIG    1       -9.203  -1.404  -2.496  0.00  0.00    +0.124 A 
ATOM     15  C   LIG    1       -8.061  -0.801  -3.019  0.00  0.00    +0.040 A 
ATOM     16  F   LIG    1      -10.156  -1.874  -3.332  0.00  0.00    -0.205 F 
ATOM     17  C   LIG    1       -7.079  -0.316  -2.160  0.00  0.00    +0.029 A 
ENDBRANCH   9  11
BRANCH   7  18
ATOM     18  C   LIG    1       -2.641   0.551   1.040  0.00  0.00    +0.023 C 
ATOM     19  C   LIG    1       -1.982  -0.839   1.178  0.00  0.00    +0.023 C 
ATOM     20  C   LIG    1       -0.441  -0.761   1.251  0.00  0.00    +0.085 C 
ATOM     21  N   LIG    1        0.115  -0.007   0.124  0.00  0.00    -0.301 NA
ATOM     22  C   LIG    1       -0.412   1.361   0.060  0.00  0.00    +0.085 C 
ATOM     23  C   LIG    1       -1.949   1.372  -0.069  0.00  0.00    +0.023 C 
BRANCH  21  24
ATOM     24  C   LIG    1        1.581  -0.043   0.079  0.00  0.00    +0.103 C 
BRANCH  24  25
ATOM     25  C   LIG    1        2.100  -0.659  -1.242  0.00  0.00    +0.124 C 
BRANCH  25  26
ATOM     26  N   LIG    1        1.613  -0.030  -2.476  0.00  0.00    -0.283 N 
ATOM     27  C   LIG    1        2.037   1.192  -2.877  0.00  0.00    +0.302 C 
ATOM     28  N   LIG    1        1.038   1.636  -3.662  0.00  0.00    -0.298 N 
ATOM     29  H   LIG    1        1.191   2.424  -4.275  0.00  0.00    +0.150 HD
ATOM     30  C   LIG    1        0.165   0.589  -4.144  0.00  0.00    +0.124 C 
ATOM     31  O   LIG    1        2.974   1.855  -2.436  0.00  0.00    -0.253 OA
ATOM     32  C   LIG    1        0.406  -0.498  -3.132  0.00  0.00    +0.128 C 
ENDBRANCH  25  26
ENDBRANCH  24  25
ENDBRANCH  21  24
ENDBRANCH   7  18
TORSDOF 5
