REMARK  Name = DB06485
REMARK                            x       y       z     vdW  Elec       q    Type
REMARK                         _______ _______ _______ _____ _____    ______ ____
ROOT
ATOM      1  C1* LIG    1       -2.009   0.967  -0.441  0.00  0.00    +0.226 C 
ATOM      2  O4* LIG    1       -0.866   0.992   0.366  0.00  0.00    -0.348 OA
ATOM      3  C4* LIG    1       -0.011  -0.122   0.110  0.00  0.00    +0.175 C 
ATOM      4  C3* LIG    1       -0.692  -0.855  -1.059  0.00  0.00    +0.150 C 
ATOM      5  C2* LIG    1       -1.575   0.212  -1.689  0.00  0.00    +0.088 C 
ENDROOT
BRANCH   1  10
ATOM      6  C   LIG    1       -3.639   4.787  -1.161  0.00  0.00    +0.132 A 
ATOM      7  N   LIG    1       -4.385   3.737  -1.284  0.00  0.00    -0.200 NA
ATOM      8  C   LIG    1       -3.900   2.418  -1.079  0.00  0.00    +0.350 A 
ATOM      9  O   LIG    1       -4.567   1.396  -1.258  0.00  0.00    -0.244 OA
ATOM     10  N   LIG    1       -2.580   2.295  -0.650  0.00  0.00    -0.272 N 
ATOM     11  C   LIG    1       -1.796   3.427  -0.536  0.00  0.00    +0.109 A 
ATOM     12  C   LIG    1       -2.259   4.668  -0.775  0.00  0.00    +0.048 A 
ATOM     13  I   LIG    1       -1.015   6.401  -0.595  0.00  0.00    -0.041 I 
ENDBRANCH   1  10
BRANCH   4  14
ATOM     14  O3* LIG    1       -1.441  -1.979  -0.632  0.00  0.00    -0.389 OA
ATOM     15  H3* LIG    1       -2.077  -1.690   0.027  0.00  0.00    +0.210 HD
ENDBRANCH   4  14
BRANCH   3  16
ATOM     16  C5* LIG    1        1.395   0.417  -0.225  0.00  0.00    +0.190 C 
BRANCH  16  17
ATOM     17  O5* LIG    1        1.971   1.058   0.895  0.00  0.00    -0.392 OA
ATOM     18  H5* LIG    1        2.844   1.375   0.652  0.00  0.00    +0.210 HD
ENDBRANCH  16  17
ENDBRANCH   3  16
TORSDOF 4
