REMARK  Name = DB06497
REMARK                            x       y       z     vdW  Elec       q    Type
REMARK                         _______ _______ _______ _____ _____    ______ ____
ROOT
ATOM      1  C   LIG    1        4.194  -1.084   0.039  0.00  0.00    +0.116 C 
ATOM      2  N   LIG    1        5.669  -0.792  -0.057  0.00  0.00    -0.286 N 
ATOM      3  C   LIG    1        6.662  -1.733   0.006  0.00  0.00    +0.239 C 
ATOM      4  O   LIG    1        7.864  -1.465  -0.076  0.00  0.00    -0.273 OA
ATOM      5  C   LIG    1        6.199  -3.202   0.170  0.00  0.00    +0.188 C 
ATOM      6  N   LIG    1        4.782  -3.485  -0.057  0.00  0.00    -0.300 N 
ATOM      7  H   LIG    1        4.524  -4.455  -0.166  0.00  0.00    +0.150 HD
ATOM      8  C   LIG    1        3.811  -2.582  -0.250  0.00  0.00    +0.237 C 
ATOM      9  O   LIG    1        2.673  -2.995  -0.467  0.00  0.00    -0.273 OA
ATOM     10  C   LIG    1        3.349  -0.198  -0.945  0.00  0.00    +0.051 C 
ATOM     11  C   LIG    1        1.833  -0.085  -0.647  0.00  0.00    +0.087 C 
ATOM     12  N   LIG    1        1.578   0.284   0.753  0.00  0.00    -0.298 NA
ATOM     13  C   LIG    1        2.187  -0.664   1.692  0.00  0.00    +0.087 C 
ATOM     14  C   LIG    1        3.716  -0.742   1.484  0.00  0.00    +0.051 C 
ENDROOT
BRANCH   2  15
ATOM     15  C   LIG    1        6.116   0.620  -0.109  0.00  0.00    +0.109 C 
BRANCH  15  16
ATOM     16  C   LIG    1        6.567   1.100  -1.505  0.00  0.00    +0.019 C 
BRANCH  16  17
ATOM     17  C   LIG    1        6.950   2.589  -1.513  0.00  0.00    -0.002 C 
ATOM     18  C   LIG    1        7.384   3.087  -2.898  0.00  0.00    +0.004 C 
ENDBRANCH  16  17
ENDBRANCH  15  16
ENDBRANCH   2  15
BRANCH   5  19
ATOM     19  C   LIG    1        6.856  -3.859   1.427  0.00  0.00    +0.147 C 
BRANCH  19  20
ATOM     20  C   LIG    1        6.388  -3.318   2.817  0.00  0.00    +0.020 C 
ATOM     21  C   LIG    1        5.021  -3.876   3.304  0.00  0.00    +0.006 C 
ATOM     22  C   LIG    1        4.579  -3.217   4.627  0.00  0.00    +0.000 C 
ATOM     23  C   LIG    1        5.647  -3.387   5.728  0.00  0.00    +0.000 C 
ATOM     24  C   LIG    1        7.050  -2.945   5.258  0.00  0.00    +0.000 C 
ATOM     25  C   LIG    1        7.437  -3.606   3.920  0.00  0.00    +0.006 C 
ENDBRANCH  19  20
BRANCH  19  26
ATOM     26  O   LIG    1        6.687  -5.267   1.363  0.00  0.00    -0.389 OA
ATOM     27  H   LIG    1        7.116  -5.659   2.127  0.00  0.00    +0.210 HD
ENDBRANCH  19  26
ENDBRANCH   5  19
BRANCH  12  28
ATOM     28  C   LIG    1        0.147   0.445   1.028  0.00  0.00    +0.119 C 
BRANCH  28  29
ATOM     29  C   LIG    1       -0.431   1.693   0.371  0.00  0.00    -0.033 A 
ATOM     30  C   LIG    1       -0.084   2.958   0.852  0.00  0.00    +0.008 A 
ATOM     31  C   LIG    1       -0.602   4.098   0.244  0.00  0.00    +0.046 A 
ATOM     32  C   LIG    1       -1.463   3.978  -0.855  0.00  0.00    +0.128 A 
ATOM     33  C   LIG    1       -1.825   2.712  -1.316  0.00  0.00    +0.046 A 
ATOM     34  C   LIG    1       -1.308   1.571  -0.709  0.00  0.00    +0.008 A 
BRANCH  32  35
ATOM     35  O   LIG    1       -2.014   5.077  -1.481  0.00  0.00    -0.456 OA
BRANCH  35  36
ATOM     36  C   LIG    1       -1.272   6.218  -1.706  0.00  0.00    +0.128 A 
ATOM     37  C   LIG    1        0.056   6.172  -2.140  0.00  0.00    +0.047 A 
ATOM     38  C   LIG    1        0.757   7.352  -2.373  0.00  0.00    +0.018 A 
ATOM     39  C   LIG    1        0.147   8.606  -2.190  0.00  0.00    +0.059 A 
ATOM     40  C   LIG    1       -1.196   8.631  -1.771  0.00  0.00    +0.018 A 
ATOM     41  C   LIG    1       -1.897   7.451  -1.538  0.00  0.00    +0.047 A 
BRANCH  39  42
ATOM     42  C   LIG    1        0.910   9.888  -2.439  0.00  0.00    +0.337 C 
ATOM     43  O   LIG    1        0.491  10.947  -1.914  0.00  0.00    -0.245 OA
BRANCH  42  44
ATOM     44  O   LIG    1        1.935   9.845  -3.161  0.00  0.00    -0.477 OA
ATOM     45  H   LIG    1        2.423  10.628  -3.329  0.00  0.00    +0.295 HD
ENDBRANCH  42  44
ENDBRANCH  39  42
ENDBRANCH  35  36
ENDBRANCH  32  35
ENDBRANCH  28  29
ENDBRANCH  12  28
TORSDOF 12
