REMARK  Name = DB06127
REMARK                            x       y       z     vdW  Elec       q    Type
REMARK                         _______ _______ _______ _____ _____    ______ ____
ROOT
ATOM      1  N   LIG    1        1.457  -0.281   0.842  0.00  0.00    +0.388 N 
ATOM      2  H   LIG    1        1.889   0.172   0.048  0.00  0.00    -0.084 HD
ATOM      3  H   LIG    1        1.593   0.332   1.634  0.00  0.00    -0.084 HD
ENDROOT
BRANCH   1   7
ATOM      4  C   LIG    1       -2.673  -0.339   0.095  0.00  0.00    +0.068 C 
ATOM      5  C   LIG    1       -1.890  -1.078  -1.047  0.00  0.00    +0.017 C 
ATOM      6  C   LIG    1       -0.355  -1.066  -0.782  0.00  0.00    -0.011 C 
ATOM      7  C   LIG    1       -0.065  -0.347   0.567  0.00  0.00    -0.068 C 
ATOM      8  C   LIG    1       -0.816  -1.064   1.728  0.00  0.00    -0.011 C 
ATOM      9  C   LIG    1       -0.585   1.115   0.465  0.00  0.00    -0.011 C 
ATOM     10  C   LIG    1       -2.348  -1.064   1.443  0.00  0.00    +0.017 C 
ATOM     11  C   LIG    1       -2.116   1.121   0.178  0.00  0.00    +0.017 C 
BRANCH   4  12
ATOM     12  C   LIG    1       -4.203  -0.333  -0.165  0.00  0.00    +0.313 C 
ATOM     13  O   LIG    1       -4.704  -0.894  -1.142  0.00  0.00    -0.250 OA
BRANCH  12  14
ATOM     14  O   LIG    1       -4.895   0.343   0.784  0.00  0.00    -0.465 OA
BRANCH  14  16
ATOM     15  C   LIG    1       -6.816   1.281   1.898  0.00  0.00    +0.048 C 
ATOM     16  C   LIG    1       -6.310   0.456   0.710  0.00  0.00    +0.229 C 
ENDBRANCH  14  16
ENDBRANCH  12  14
ENDBRANCH   4  12
ENDBRANCH   1   7
BRANCH   1  17
ATOM     17  C   LIG    1        2.154  -1.580   1.109  0.00  0.00    +0.016 C 
BRANCH  17  18
ATOM     18  C   LIG    1        3.572  -1.519   0.496  0.00  0.00    +0.200 C 
ATOM     19  O   LIG    1        4.222  -0.473   0.572  0.00  0.00    -0.278 OA
ATOM     20  N   LIG    1        4.078  -2.622  -0.111  0.00  0.00    -0.284 N 
ATOM     21  C   LIG    1        5.423  -2.657  -0.717  0.00  0.00    +0.182 C 
ATOM     22  C   LIG    1        5.551  -4.087  -1.251  0.00  0.00    +0.076 C 
ATOM     23  C   LIG    1        4.582  -4.884  -0.398  0.00  0.00    +0.186 C 
ATOM     24  F   LIG    1        4.150  -5.961  -1.055  0.00  0.00    -0.244 F 
ATOM     25  C   LIG    1        3.418  -3.933  -0.133  0.00  0.00    +0.146 C 
BRANCH  21  26
ATOM     26  C   LIG    1        5.618  -1.649  -1.778  0.00  0.00    +0.085 C 
ATOM     27  N   LIG    1        5.769  -0.860  -2.610  0.00  0.00    -0.195 NA
ENDBRANCH  21  26
ENDBRANCH  17  18
ENDBRANCH   1  17
TORSDOF 7
