REMARK  Name = DB06685
REMARK                            x       y       z     vdW  Elec       q    Type
REMARK                         _______ _______ _______ _____ _____    ______ ____
ROOT
ATOM      1  C   LIG    1       -0.114  -0.065   0.320  0.00  0.00    +0.144 A 
ATOM      2  C   LIG    1       -0.883   1.193   0.493  0.00  0.00    +0.207 A 
ATOM      3  O   LIG    1       -0.435   2.215   1.018  0.00  0.00    -0.286 OA
ATOM      4  C   LIG    1       -2.302   1.108  -0.035  0.00  0.00    +0.064 A 
ATOM      5  C   LIG    1       -2.937  -0.157  -0.142  0.00  0.00    +0.057 A 
ATOM      6  C   LIG    1       -4.257  -0.247  -0.606  0.00  0.00    +0.027 A 
ATOM      7  C   LIG    1       -4.957   0.895  -0.976  0.00  0.00    +0.003 A 
ATOM      8  C   LIG    1       -4.340   2.136  -0.901  0.00  0.00    +0.021 A 
ATOM      9  N   LIG    1       -2.204  -1.326   0.191  0.00  0.00    -0.314 N 
ATOM     10  C   LIG    1       -2.947  -2.461   0.781  0.00  0.00    +0.152 C 
ATOM     11  C   LIG    1       -3.026   2.255  -0.447  0.00  0.00    +0.054 A 
ATOM     12 CL   LIG    1       -2.364   3.858  -0.444  0.00  0.00    -0.083 Cl
ATOM     13  C   LIG    1       -0.799  -1.244   0.169  0.00  0.00    +0.209 A 
ENDROOT
BRANCH   1  14
ATOM     14  C   LIG    1        1.346   0.026   0.340  0.00  0.00    +0.260 C 
ATOM     15  O   LIG    1        1.948   0.207  -0.723  0.00  0.00    -0.269 OA
ATOM     16  N   LIG    1        1.972  -0.032   1.558  0.00  0.00    -0.267 N 
BRANCH  16  17
ATOM     17  C   LIG    1        3.376   0.061   1.627  0.00  0.00    +0.037 A 
ATOM     18  C   LIG    1        4.187  -0.968   1.130  0.00  0.00    +0.023 A 
ATOM     19  C   LIG    1        5.572  -0.863   1.228  0.00  0.00    +0.002 A 
ATOM     20  C   LIG    1        6.139   0.262   1.824  0.00  0.00    +0.000 A 
ATOM     21  C   LIG    1        5.336   1.284   2.326  0.00  0.00    +0.002 A 
ATOM     22  C   LIG    1        3.950   1.183   2.232  0.00  0.00    +0.023 A 
ENDBRANCH  16  17
BRANCH  16  23
ATOM     23  C   LIG    1        1.292  -0.433   2.808  0.00  0.00    +0.110 C 
ATOM     24  C   LIG    1        1.544  -1.892   3.221  0.00  0.00    +0.025 C 
ENDBRANCH  16  23
ENDBRANCH   1  14
BRANCH  13  25
ATOM     25  O   LIG    1       -0.261  -2.403  -0.066  0.00  0.00    -0.493 OA
ATOM     26  H   LIG    1        0.671  -2.487  -0.107  0.00  0.00    +0.294 HD
ENDBRANCH  13  25
TORSDOF 4
