REMARK  Name = DB06413
REMARK                            x       y       z     vdW  Elec       q    Type
REMARK                         _______ _______ _______ _____ _____    ______ ____
ROOT
ATOM      1  C   LIG    1        0.071  -0.169   0.058  0.00  0.00    +0.139 C 
ENDROOT
BRANCH   1   2
ATOM      2  C   LIG    1       -0.197  -0.894  -1.269  0.00  0.00    -0.028 A 
ATOM      3  C   LIG    1        0.539  -2.026  -1.644  0.00  0.00    +0.005 A 
ATOM      4  C   LIG    1        0.296  -2.650  -2.864  0.00  0.00    +0.000 A 
ATOM      5  C   LIG    1       -0.682  -2.141  -3.716  0.00  0.00    +0.000 A 
ATOM      6  C   LIG    1       -1.417  -1.014  -3.357  0.00  0.00    +0.000 A 
ATOM      7  C   LIG    1       -1.174  -0.391  -2.136  0.00  0.00    +0.005 A 
ENDBRANCH   1   2
BRANCH   1   8
ATOM      8  C   LIG    1       -0.513  -0.835   1.312  0.00  0.00    -0.028 A 
ATOM      9  C   LIG    1       -0.556  -2.227   1.468  0.00  0.00    +0.005 A 
ATOM     10  C   LIG    1       -1.088  -2.789   2.626  0.00  0.00    +0.000 A 
ATOM     11  C   LIG    1       -1.577  -1.962   3.634  0.00  0.00    +0.000 A 
ATOM     12  C   LIG    1       -1.537  -0.577   3.494  0.00  0.00    +0.000 A 
ATOM     13  C   LIG    1       -1.005  -0.017   2.337  0.00  0.00    +0.005 A 
ENDBRANCH   1   8
BRANCH   1  14
ATOM     14  S   LIG    1        1.891   0.159   0.312  0.00  0.00    +0.043 S 
ATOM     15  O   LIG    1        2.055   0.783   1.700  0.00  0.00    -0.256 OA
BRANCH  14  16
ATOM     16  C   LIG    1        2.162   1.531  -0.915  0.00  0.00    +0.200 C 
BRANCH  16  17
ATOM     17  C   LIG    1        2.186   1.132  -2.392  0.00  0.00    +0.223 C 
ATOM     18  O   LIG    1        1.385   1.623  -3.185  0.00  0.00    -0.275 OA
ATOM     19  N   LIG    1        3.106   0.244  -2.772  0.00  0.00    -0.329 N 
ATOM     20  H   LIG    1        3.753  -0.142  -2.099  0.00  0.00    +0.145 HD
ATOM     21  H   LIG    1        3.159  -0.048  -3.737  0.00  0.00    +0.145 HD
ENDBRANCH  16  17
ENDBRANCH  14  16
ENDBRANCH   1  14
TORSDOF 5
