REMARK  Name = DB06354
REMARK                            x       y       z     vdW  Elec       q    Type
REMARK                         _______ _______ _______ _____ _____    ______ ____
ROOT
ATOM      1  C   LIG    1        1.983  -1.414  -0.151  0.00  0.00    -0.010 C 
ATOM      2  C   LIG    1        1.529  -2.215  -1.399  0.00  0.00    +0.004 C 
ATOM      3  C   LIG    1        2.092  -3.654  -1.380  0.00  0.00    +0.002 C 
ATOM      4  C   LIG    1        3.637  -3.684  -1.252  0.00  0.00    -0.025 C 
ATOM      5  C   LIG    1        4.369  -3.271  -2.557  0.00  0.00    -0.078 C 
ATOM      6  N   LIG    1        5.894  -3.347  -2.357  0.00  0.00    +0.388 N 
ATOM      7  H1  LIG    1        6.361  -3.051  -3.203  0.00  0.00    -0.085 HD
ATOM      8  H2  LIG    1        6.154  -4.308  -2.186  0.00  0.00    -0.085 HD
ATOM      9  CA  LIG    1        6.390  -2.480  -1.170  0.00  0.00    +0.039 C 
ATOM     10  C   LIG    1        5.637  -2.904   0.122  0.00  0.00    -0.001 C 
ATOM     11  C   LIG    1        4.100  -2.837  -0.030  0.00  0.00    -0.010 C 
ATOM     12  C   LIG    1        3.529  -1.400  -0.133  0.00  0.00    +0.007 C 
ENDROOT
BRANCH   9  13
ATOM     13  C   LIG    1        7.937  -2.666  -1.028  0.00  0.00    +0.291 C 
ATOM     14  O   LIG    1        8.478  -2.006  -0.111  0.00  0.00    -0.253 OA
BRANCH  13  15
ATOM     15  OXT LIG    1        8.587  -3.415  -1.798  0.00  0.00    -0.482 OA
ATOM     16  HXT LIG    1        8.144  -3.892  -2.471  0.00  0.00    +0.295 HD
ENDBRANCH  13  15
ENDBRANCH   9  13
BRANCH   1  17
ATOM     17  C   LIG    1        1.408   0.022  -0.107  0.00  0.00    +0.011 C 
BRANCH  17  18
ATOM     18  C   LIG    1       -0.125   0.099   0.063  0.00  0.00    +0.080 C 
BRANCH  18  22
ATOM     19  N   LIG    1       -1.302   3.483  -0.322  0.00  0.00    -0.176 N 
ATOM     20  H   LIG    1       -1.600   4.270  -0.832  0.00  0.00    +0.214 HD
ATOM     21  N   LIG    1       -0.930   2.268  -0.848  0.00  0.00    -0.138 NA
ATOM     22  C   LIG    1       -0.618   1.531   0.192  0.00  0.00    +0.174 A 
ATOM     23  N   LIG    1       -0.736   2.138   1.349  0.00  0.00    -0.113 NA
ATOM     24  N   LIG    1       -1.181   3.402   1.042  0.00  0.00    -0.049 NA
ENDBRANCH  18  22
ENDBRANCH  17  18
ENDBRANCH   1  17
TORSDOF 5
