REMARK  Name = DB06267
REMARK                            x       y       z     vdW  Elec       q    Type
REMARK                         _______ _______ _______ _____ _____    ______ ____
ROOT
ATOM      1  C   LIG    1        1.401  -0.131  -0.047  0.00  0.00    +0.106 A 
ATOM      2  C   LIG    1        1.965   0.368  -1.218  0.00  0.00    +0.032 A 
ATOM      3  C   LIG    1        3.322   0.668  -1.267  0.00  0.00    +0.048 A 
ATOM      4  C   LIG    1        4.145   0.486  -0.141  0.00  0.00    +0.131 A 
ATOM      5  C   LIG    1        3.574  -0.031   1.044  0.00  0.00    +0.061 A 
ATOM      6  C   LIG    1        2.205  -0.338   1.074  0.00  0.00    +0.043 A 
ENDROOT
BRANCH   5   7
ATOM      7  C   LIG    1        4.374  -0.259   2.265  0.00  0.00    +0.146 A 
ATOM      8  N   LIG    1        5.545  -0.820   2.198  0.00  0.00    -0.189 NA
ATOM      9  C   LIG    1        6.399  -1.072   3.298  0.00  0.00    +0.299 A 
ATOM     10  C   LIG    1        5.796  -0.650   4.561  0.00  0.00    +0.151 A 
ATOM     11  C   LIG    1        4.549  -0.048   4.660  0.00  0.00    +0.095 A 
ATOM     12  C   LIG    1        4.326   0.216   6.015  0.00  0.00    +0.087 A 
ATOM     13  N   LIG    1        5.359  -0.185   6.731  0.00  0.00    -0.174 NA
ATOM     14  N   LIG    1        6.239  -0.714   5.861  0.00  0.00    -0.260 N 
ATOM     15  C   LIG    1        7.507  -1.231   6.360  0.00  0.00    +0.173 C 
ATOM     16  O   LIG    1        7.516  -1.580   3.234  0.00  0.00    -0.263 OA
ATOM     17  N   LIG    1        3.834   0.151   3.495  0.00  0.00    -0.336 N 
ATOM     18  H   LIG    1        2.924   0.586   3.516  0.00  0.00    +0.167 HD
BRANCH  12  19
ATOM     19  C   LIG    1        3.122   0.854   6.679  0.00  0.00    +0.059 C 
BRANCH  19  20
ATOM     20  C   LIG    1        2.220  -0.185   7.370  0.00  0.00    +0.003 C 
ATOM     21  C   LIG    1        0.967   0.438   8.001  0.00  0.00    +0.004 C 
ENDBRANCH  19  20
ENDBRANCH  12  19
ENDBRANCH   5   7
BRANCH   1  22
ATOM     22  S   LIG    1       -0.352  -0.485   0.001  0.00  0.00    +0.058 S 
ATOM     23  O   LIG    1       -0.681  -1.129  -1.275  0.00  0.00    -0.153 OA
ATOM     24  O   LIG    1       -0.648  -1.148   1.276  0.00  0.00    -0.153 OA
BRANCH  22  25
ATOM     25  N   LIG    1       -1.134   1.095   0.008  0.00  0.00    -0.190 NA
ATOM     26  H   LIG    1       -1.253   1.571  -0.890  0.00  0.00    +0.148 HD
BRANCH  25  27
ATOM     27  C   LIG    1       -1.171   1.926   1.230  0.00  0.00    +0.107 C 
BRANCH  27  28
ATOM     28  C   LIG    1        0.113   2.747   1.466  0.00  0.00    +0.035 C 
BRANCH  28  29
ATOM     29  C   LIG    1        0.569   3.647   0.291  0.00  0.00    +0.058 C 
ATOM     30  C   LIG    1       -0.523   4.601  -0.227  0.00  0.00    +0.020 C 
ATOM     31  C   LIG    1        0.244   5.819  -0.746  0.00  0.00    +0.017 C 
ATOM     32  C   LIG    1        1.712   5.453  -0.542  0.00  0.00    +0.084 C 
ATOM     33  N   LIG    1        1.720   4.505   0.563  0.00  0.00    -0.302 NA
ATOM     34  C   LIG    1        2.991   3.795   0.660  0.00  0.00    +0.105 C 
ENDBRANCH  28  29
ENDBRANCH  27  28
ENDBRANCH  25  27
ENDBRANCH  22  25
ENDBRANCH   1  22
BRANCH   4  35
ATOM     35  O   LIG    1        5.489   0.823  -0.137  0.00  0.00    -0.491 OA
BRANCH  35  36
ATOM     36  C   LIG    1        6.118   1.296  -1.324  0.00  0.00    +0.229 C 
BRANCH  36  37
ATOM     37  C   LIG    1        7.607   1.544  -1.038  0.00  0.00    +0.038 C 
ATOM     38  C   LIG    1        8.368   0.281  -0.603  0.00  0.00    +0.007 C 
ENDBRANCH  36  37
ENDBRANCH  35  36
ENDBRANCH   4  35
TORSDOF 11
