REMARK  Name = DB06622
REMARK                            x       y       z     vdW  Elec       q    Type
REMARK                         _______ _______ _______ _____ _____    ______ ____
ROOT
ATOM      1  C   LIG    1       -0.376   3.704  -1.301  0.00  0.00    +0.008 C 
ATOM      2  C   LIG    1       -0.109   4.673  -2.451  0.00  0.00    +0.012 C 
ATOM      3  C   LIG    1       -0.364   6.067  -1.859  0.00  0.00    +0.075 C 
ATOM      4  C   LIG    1       -0.346   5.878  -0.334  0.00  0.00    +0.139 C 
ATOM      5  O   LIG    1       -0.680   6.718   0.499  0.00  0.00    -0.297 OA
ATOM      6  C   LIG    1        0.140   4.444  -0.046  0.00  0.00    +0.029 C 
ATOM      7  C   LIG    1        1.697   4.547   0.055  0.00  0.00    +0.019 C 
ATOM      8  C   LIG    1       -0.467   3.747   1.193  0.00  0.00    +0.015 C 
ATOM      9  C   LIG    1        0.000   2.275   1.255  0.00  0.00    +0.005 C 
ATOM     10  C   LIG    1       -0.306   1.467  -0.051  0.00  0.00    +0.001 C 
ATOM     11  C   LIG    1        0.198  -0.031  -0.014  0.00  0.00    -0.026 C 
ATOM     12  C   LIG    1       -0.384  -0.770   1.234  0.00  0.00    +0.010 C 
ATOM     13  C   LIG    1       -0.118  -2.291   1.258  0.00  0.00    +0.032 C 
ATOM     14  C   LIG    1       -0.595  -2.988  -0.034  0.00  0.00    +0.115 C 
ATOM     15  C   LIG    1       -0.116  -2.255  -1.305  0.00  0.00    +0.035 C 
ATOM     16  C   LIG    1        1.757  -0.112   0.001  0.00  0.00    +0.012 C 
ATOM     17  C   LIG    1       -0.421  -0.735  -1.272  0.00  0.00    +0.000 C 
ATOM     18  C   LIG    1        0.004  -0.038  -2.586  0.00  0.00    +0.035 C 
ATOM     19  C   LIG    1       -0.390   1.452  -2.615  0.00  0.00    +0.118 C 
ATOM     20  C   LIG    1        0.128   2.225  -1.363  0.00  0.00    +0.025 C 
ENDROOT
BRANCH  14  21
ATOM     21  O   LIG    1       -0.186  -4.340  -0.053  0.00  0.00    -0.392 OA
ATOM     22  H   LIG    1       -0.970  -4.895  -0.051  0.00  0.00    +0.210 HD
ENDBRANCH  14  21
BRANCH  19  23
ATOM     23  O   LIG    1        0.026   2.019  -3.842  0.00  0.00    -0.391 OA
ATOM     24  H   LIG    1        0.981   2.114  -3.824  0.00  0.00    +0.210 HD
ENDBRANCH  19  23
TORSDOF 2
