REMARK  Name = DB06529
REMARK                            x       y       z     vdW  Elec       q    Type
REMARK                         _______ _______ _______ _____ _____    ______ ____
ROOT
ATOM      1  C   LIG    1        1.481   0.011   0.141  0.00  0.00    +0.088 A 
ATOM      2  C   LIG    1        2.443   0.934   0.648  0.00  0.00    +0.167 A 
ATOM      3  N   LIG    1        2.355   2.096   1.313  0.00  0.00    -0.235 NA
ATOM      4  C   LIG    1        3.514   2.728   1.632  0.00  0.00    +0.115 A 
ATOM      5  C   LIG    1        4.780   2.234   1.326  0.00  0.00    +0.048 A 
ATOM      6  C   LIG    1        4.883   1.012   0.658  0.00  0.00    +0.076 A 
ATOM      7  N   LIG    1        3.700   0.375   0.329  0.00  0.00    -0.213 N 
ATOM      8  N   LIG    1        3.559  -0.800  -0.333  0.00  0.00    -0.172 NA
ATOM      9  C   LIG    1        2.263  -1.008  -0.409  0.00  0.00    +0.148 A 
ENDROOT
BRANCH   6  10
ATOM     10  C   LIG    1        6.205   0.400   0.321  0.00  0.00    +0.003 A 
ATOM     11  C   LIG    1        7.242   1.195  -0.191  0.00  0.00    +0.030 A 
ATOM     12  C   LIG    1        8.476   0.610  -0.484  0.00  0.00    +0.111 A 
ATOM     13  N   LIG    1        8.732  -0.707  -0.286  0.00  0.00    -0.263 NA
ATOM     14  C   LIG    1        7.734  -1.471   0.222  0.00  0.00    +0.111 A 
ATOM     15  C   LIG    1        6.474  -0.962   0.539  0.00  0.00    +0.030 A 
ENDBRANCH   6  10
BRANCH   1  16
ATOM     16  C   LIG    1        0.015   0.055   0.190  0.00  0.00    +0.216 C 
ATOM     17  O   LIG    1       -0.606  -1.008   0.248  0.00  0.00    -0.285 OA
BRANCH  16  20
ATOM     18  C   LIG    1       -2.659   2.685   0.740  0.00  0.00    +0.004 A 
ATOM     19  C   LIG    1       -1.983   1.464   0.787  0.00  0.00    +0.031 A 
ATOM     20  C   LIG    1       -0.705   1.369   0.212  0.00  0.00    +0.111 A 
ATOM     21  N   LIG    1       -0.131   2.428  -0.426  0.00  0.00    -0.252 NA
ATOM     22  C   LIG    1       -0.801   3.608  -0.460  0.00  0.00    +0.111 A 
ATOM     23  C   LIG    1       -2.062   3.778   0.111  0.00  0.00    +0.020 A 
ENDBRANCH  16  20
ENDBRANCH   1  16
TORSDOF 3
