REMARK  Name = DB06458
REMARK                            x       y       z     vdW  Elec       q    Type
REMARK                         _______ _______ _______ _____ _____    ______ ____
ROOT
ATOM      1  C   LIG    1       -0.564  -0.793   1.445  0.00  0.00    +0.037 C 
ATOM      2  C   LIG    1       -0.075  -0.007   0.190  0.00  0.00    +0.061 C 
ENDROOT
BRANCH   2   3
ATOM      3  C   LIG    1       -0.524   1.483   0.183  0.00  0.00    -0.024 A 
ATOM      4  C   LIG    1        0.044   2.369  -0.747  0.00  0.00    +0.006 A 
ATOM      5  C   LIG    1       -0.344   3.704  -0.789  0.00  0.00    +0.000 A 
ATOM      6  C   LIG    1       -1.308   4.169   0.099  0.00  0.00    +0.000 A 
ATOM      7  C   LIG    1       -1.886   3.309   1.028  0.00  0.00    +0.000 A 
ATOM      8  C   LIG    1       -1.497   1.973   1.069  0.00  0.00    +0.006 A 
ENDBRANCH   2   3
BRANCH   2   9
ATOM      9  N   LIG    1        1.397  -0.125   0.121  0.00  0.00    -0.307 N 
ATOM     10  H   LIG    1        1.743  -0.618  -0.690  0.00  0.00    +0.149 HD
ATOM     11  C   LIG    1        2.310   0.389   0.969  0.00  0.00    +0.196 C 
ATOM     12  O   LIG    1        1.996   1.041   1.969  0.00  0.00    -0.278 OA
BRANCH  11  13
ATOM     13  C   LIG    1        3.777   0.098   0.580  0.00  0.00    +0.011 C 
BRANCH  13  14
ATOM     14  N   LIG    1        4.733   0.678   1.565  0.00  0.00    +0.384 N 
ATOM     15  H   LIG    1        4.631   1.682   1.623  0.00  0.00    -0.089 HD
ATOM     16  H   LIG    1        4.582   0.291   2.487  0.00  0.00    -0.089 HD
ATOM     17  H   LIG    1        5.688   0.480   1.302  0.00  0.00    -0.089 HD
ENDBRANCH  13  14
ENDBRANCH  11  13
ENDBRANCH   2   9
BRANCH   2  18
ATOM     18  C   LIG    1       -0.629  -0.715  -1.089  0.00  0.00    +0.065 C 
BRANCH  18  19
ATOM     19  C   LIG    1       -2.152  -0.751  -1.237  0.00  0.00    -0.045 A 
ATOM     20  C   LIG    1       -2.825   0.319  -1.835  0.00  0.00    +0.004 A 
ATOM     21  C   LIG    1       -4.210   0.284  -1.968  0.00  0.00    +0.000 A 
ATOM     22  C   LIG    1       -4.920  -0.824  -1.511  0.00  0.00    +0.000 A 
ATOM     23  C   LIG    1       -4.256  -1.899  -0.924  0.00  0.00    +0.000 A 
ATOM     24  C   LIG    1       -2.871  -1.864  -0.789  0.00  0.00    +0.004 A 
ENDBRANCH  18  19
ENDBRANCH   2  18
TORSDOF 6
