REMARK  Name = DB06555
REMARK                            x       y       z     vdW  Elec       q    Type
REMARK                         _______ _______ _______ _____ _____    ______ ____
ROOT
ATOM      1  C   LIG    1        1.574  -0.146  -0.079  0.00  0.00    +0.003 C 
ENDROOT
BRANCH   1   2
ATOM      2  C   LIG    1        0.036  -0.145  -0.075  0.00  0.00    -0.018 C 
BRANCH   2   3
ATOM      3  C   LIG    1       -0.545   1.263  -0.298  0.00  0.00    -0.079 C 
BRANCH   3  12
ATOM      4  C   LIG    1       -9.146   1.873  -0.194  0.00  0.00    +0.000 A 
ATOM      5  C   LIG    1       -8.448   1.096   0.733  0.00  0.00    +0.006 A 
ATOM      6  C   LIG    1       -7.060   0.988   0.630  0.00  0.00    -0.016 A 
ATOM      7  C   LIG    1       -6.062   0.248   1.481  0.00  0.00    +0.196 C 
ATOM      8  O   LIG    1       -4.801   0.392   0.834  0.00  0.00    -0.364 OA
ATOM      9  C   LIG    1       -4.897   1.375  -0.199  0.00  0.00    +0.092 C 
ATOM     10  C   LIG    1       -4.136   2.656   0.253  0.00  0.00    +0.021 C 
ATOM     11  C   LIG    1       -2.641   2.699  -0.140  0.00  0.00    -0.076 C 
ATOM     12  N   LIG    1       -2.087   1.258  -0.173  0.00  0.00    +0.380 N 
ATOM     13  H   LIG    1       -2.329   0.848   0.719  0.00  0.00    -0.082 HD
ATOM     14  C   LIG    1       -2.755   0.403  -1.284  0.00  0.00    -0.076 C 
ATOM     15  C   LIG    1       -4.247   0.774  -1.464  0.00  0.00    +0.021 C 
ATOM     16  C   LIG    1       -6.377   1.636  -0.383  0.00  0.00    -0.011 A 
ATOM     17  C   LIG    1       -7.067   2.433  -1.301  0.00  0.00    +0.007 A 
ATOM     18  C   LIG    1       -8.456   2.543  -1.208  0.00  0.00    +0.000 A 
ENDBRANCH   3  12
ENDBRANCH   2   3
ENDBRANCH   1   2
BRANCH   1  19
ATOM     19  C   LIG    1        2.178  -1.539   0.174  0.00  0.00    +0.037 C 
BRANCH  19  20
ATOM     20  C   LIG    1        3.692  -1.510   0.162  0.00  0.00    -0.022 A 
ATOM     21  C   LIG    1        4.544  -1.410  -0.987  0.00  0.00    +0.003 A 
ATOM     22  C   LIG    1        4.292  -1.332  -2.367  0.00  0.00    +0.010 A 
ATOM     23  C   LIG    1        5.363  -1.250  -3.252  0.00  0.00    +0.001 A 
ATOM     24  C   LIG    1        6.674  -1.249  -2.791  0.00  0.00    +0.002 A 
ATOM     25  C   LIG    1        6.977  -1.323  -1.433  0.00  0.00    +0.027 A 
ATOM     26  C   LIG    1        5.902  -1.394  -0.530  0.00  0.00    +0.054 A 
ATOM     27  N   LIG    1        5.869  -1.476   0.859  0.00  0.00    -0.316 N 
ATOM     28  C   LIG    1        4.547  -1.551   1.243  0.00  0.00    +0.096 A 
BRANCH  27  29
ATOM     29  C   LIG    1        6.960  -1.444   1.759  0.00  0.00    +0.047 A 
ATOM     30  C   LIG    1        8.038  -0.578   1.537  0.00  0.00    +0.029 A 
ATOM     31  C   LIG    1        9.117  -0.571   2.416  0.00  0.00    +0.040 A 
ATOM     32  C   LIG    1        9.124  -1.432   3.511  0.00  0.00    +0.124 A 
ATOM     33  F   LIG    1       10.174  -1.424   4.363  0.00  0.00    -0.205 F 
ATOM     34  C   LIG    1        8.060  -2.303   3.734  0.00  0.00    +0.040 A 
ATOM     35  C   LIG    1        6.977  -2.311   2.858  0.00  0.00    +0.029 A 
ENDBRANCH  27  29
ENDBRANCH  19  20
ENDBRANCH   1  19
TORSDOF 6
