REMARK  Name = DB06143
REMARK                            x       y       z     vdW  Elec       q    Type
REMARK                         _______ _______ _______ _____ _____    ______ ____
ROOT
ATOM      1  C   LIG    1        0.022   0.048   0.000  0.00  0.00    +0.143 A 
ATOM      2  N   LIG    1       -0.778   1.166   0.000  0.00  0.00    -0.339 N 
ATOM      3  H   LIG    1       -0.470   2.128   0.000  0.00  0.00    +0.167 HD
ATOM      4  C   LIG    1       -2.071   0.726   0.000  0.00  0.00    +0.199 A 
ATOM      5  N   LIG    1       -2.149  -0.581   0.000  0.00  0.00    -0.221 NA
ATOM      6  C   LIG    1       -0.896  -1.016   0.000  0.00  0.00    +0.147 A 
ENDROOT
BRANCH   1   7
ATOM      7  C   LIG    1        1.468   0.043   0.000  0.00  0.00    +0.261 C 
ATOM      8  O   LIG    1        2.114  -1.003   0.000  0.00  0.00    -0.269 OA
ATOM      9  N   LIG    1        2.055   1.245   0.000  0.00  0.00    -0.324 N 
ATOM     10  H   LIG    1        3.063   1.312   0.000  0.00  0.00    +0.145 HD
ATOM     11  H   LIG    1        1.502   2.088   0.000  0.00  0.00    +0.145 HD
ENDBRANCH   1   7
BRANCH   6  12
ATOM     12  N   LIG    1       -0.651  -2.360   0.000  0.00  0.00    -0.341 N 
ATOM     13  H   LIG    1       -1.403  -3.035   0.000  0.00  0.00    +0.144 HD
ATOM     14  H   LIG    1        0.291  -2.724   0.000  0.00  0.00    +0.144 HD
ENDBRANCH   6  12
TORSDOF 2
