REMARK  Name = DB06719
REMARK                            x       y       z     vdW  Elec       q    Type
REMARK                         _______ _______ _______ _____ _____    ______ ____
ROOT
ATOM      1  C   UNK    1       -2.509   1.171   0.346  0.00  0.00    +0.163 C 
ENDROOT
BRANCH   1   2
ATOM      2  N   UNK    1       -2.970   1.740   1.613  0.00  0.00    -0.302 N 
ATOM      3  H   UNK    1       -3.600   2.525   1.538  0.00  0.00    +0.150 HD
ATOM      4  C   UNK    1       -2.666   1.255   2.828  0.00  0.00    +0.236 C 
ATOM      5  O   UNK    1       -1.903   0.312   3.029  0.00  0.00    -0.274 OA
BRANCH   4   6
ATOM      6  C   UNK    1       -3.339   1.946   4.024  0.00  0.00    +0.184 C 
BRANCH   6   7
ATOM      7  N   UNK    1       -3.848   0.962   4.982  0.00  0.00    -0.301 N 
ATOM      8  H   UNK    1       -3.333   0.881   5.846  0.00  0.00    +0.150 HD
ATOM      9  C   UNK    1       -4.885   0.140   4.751  0.00  0.00    +0.234 C 
ATOM     10  O   UNK    1       -5.569   0.150   3.727  0.00  0.00    -0.274 OA
BRANCH   9  11
ATOM     11  C   UNK    1       -5.185  -0.894   5.849  0.00  0.00    +0.163 C 
BRANCH  11  12
ATOM     12  N   UNK    1       -6.594  -0.840   6.228  0.00  0.00    -0.302 N 
ATOM     13  H   UNK    1       -7.194  -1.520   5.784  0.00  0.00    +0.150 HD
ATOM     14  C   UNK    1       -7.136   0.092   7.028  0.00  0.00    +0.234 C 
ATOM     15  O   UNK    1       -6.496   0.970   7.611  0.00  0.00    -0.274 OA
BRANCH  14  16
ATOM     16  C   UNK    1       -8.663   0.047   7.163  0.00  0.00    +0.165 C 
BRANCH  16  17
ATOM     17  N   UNK    1       -9.026   0.156   8.574  0.00  0.00    -0.302 N 
ATOM     18  H   UNK    1       -8.366   0.651   9.156  0.00  0.00    +0.150 HD
ATOM     19  C   UNK    1      -10.136  -0.363   9.126  0.00  0.00    +0.234 C 
ATOM     20  O   UNK    1      -10.984  -0.969   8.468  0.00  0.00    -0.274 OA
BRANCH  19  21
ATOM     21  C   UNK    1      -10.304  -0.139  10.646  0.00  0.00    +0.159 C 
ATOM     22  C   UNK    1       -9.257  -0.904  11.455  0.00  0.00    +0.041 C 
ATOM     23  C   UNK    1       -9.996  -1.327  12.713  0.00  0.00    +0.098 C 
ATOM     24  C   UNK    1      -11.486  -1.245  12.378  0.00  0.00    +0.214 C 
ATOM     25  O   UNK    1      -12.410  -1.644  13.082  0.00  0.00    -0.276 OA
ATOM     26  N   UNK    1      -11.566  -0.653  11.173  0.00  0.00    -0.304 N 
ATOM     27  H   UNK    1      -12.450  -0.398  10.757  0.00  0.00    +0.149 HD
ENDBRANCH  19  21
ENDBRANCH  16  17
BRANCH  16  28
ATOM     28  C   UNK    1       -9.356   1.172   6.358  0.00  0.00    +0.086 C 
BRANCH  28  29
ATOM     29  C   UNK    1       -9.006   1.240   4.889  0.00  0.00    +0.038 A 
ATOM     30  C   UNK    1       -8.459   2.251   4.130  0.00  0.00    +0.133 A 
ATOM     31  N   UNK    1       -8.311   1.827   2.808  0.00  0.00    -0.244 NA
ATOM     32  C   UNK    1       -8.763   0.578   2.816  0.00  0.00    +0.196 A 
ATOM     33  N   UNK    1       -9.189   0.179   4.018  0.00  0.00    -0.348 N 
ATOM     34  H   UNK    1       -9.570  -0.728   4.245  0.00  0.00    +0.166 HD
ENDBRANCH  28  29
ENDBRANCH  16  28
ENDBRANCH  14  16
ENDBRANCH  11  12
BRANCH  11  35
ATOM     35  C   UNK    1       -4.847  -2.331   5.399  0.00  0.00    +0.069 C 
BRANCH  35  36
ATOM     36  C   UNK    1       -3.448  -2.574   4.909  0.00  0.00    -0.020 A 
ATOM     37  C   UNK    1       -2.354  -2.698   5.695  0.00  0.00    +0.087 A 
ATOM     38  N   UNK    1       -1.234  -2.869   4.908  0.00  0.00    -0.360 N 
ATOM     39  H   UNK    1       -0.308  -2.980   5.295  0.00  0.00    +0.165 HD
ATOM     40  C   UNK    1       -1.546  -2.849   3.565  0.00  0.00    +0.047 A 
ATOM     41  C   UNK    1       -0.775  -2.965   2.394  0.00  0.00    +0.026 A 
ATOM     42  C   UNK    1       -1.413  -2.892   1.143  0.00  0.00    +0.002 A 
ATOM     43  C   UNK    1       -2.806  -2.694   1.076  0.00  0.00    +0.001 A 
ATOM     44  C   UNK    1       -3.568  -2.575   2.257  0.00  0.00    +0.010 A 
ATOM     45  C   UNK    1       -2.961  -2.655   3.533  0.00  0.00    +0.003 A 
ENDBRANCH  35  36
ENDBRANCH  11  35
ENDBRANCH   9  11
ENDBRANCH   6   7
BRANCH   6  46
ATOM     46  C   UNK    1       -2.346   2.882   4.739  0.00  0.00    +0.187 C 
BRANCH  46  47
ATOM     47  O   UNK    1       -3.042   3.827   5.524  0.00  0.00    -0.393 OA
ATOM     48  H   UNK    1       -3.464   3.368   6.255  0.00  0.00    +0.209 HD
ENDBRANCH  46  47
ENDBRANCH   6  46
ENDBRANCH   4   6
ENDBRANCH   1   2
BRANCH   1  51
ATOM     49  N   UNK    1       -0.372   0.054   0.027  0.00  0.00    -0.301 N 
ATOM     50  H   UNK    1       -0.953  -0.772   0.022  0.00  0.00    +0.150 HD
ATOM     51  C   UNK    1       -0.981   1.241   0.192  0.00  0.00    +0.234 C 
ATOM     52  O   UNK    1       -0.415   2.333   0.231  0.00  0.00    -0.274 OA
BRANCH  49  53
ATOM     53  C   UNK    1        1.063  -0.217  -0.115  0.00  0.00    +0.185 C 
BRANCH  53  56
ATOM     54  N   UNK    1        2.568  -0.684  -1.970  0.00  0.00    -0.302 N 
ATOM     55  H   UNK    1        2.880  -1.451  -1.393  0.00  0.00    +0.150 HD
ATOM     56  C   UNK    1        1.602   0.131  -1.514  0.00  0.00    +0.236 C 
ATOM     57  O   UNK    1        1.163   1.098  -2.136  0.00  0.00    -0.274 OA
BRANCH  54  58
ATOM     58  C   UNK    1        3.188  -0.595  -3.293  0.00  0.00    +0.159 C 
BRANCH  58  61
ATOM     59  N   UNK    1        2.411  -0.472  -5.601  0.00  0.00    -0.302 N 
ATOM     60  H   UNK    1        3.140   0.221  -5.695  0.00  0.00    +0.150 HD
ATOM     61  C   UNK    1        2.225  -1.051  -4.404  0.00  0.00    +0.234 C 
ATOM     62  O   UNK    1        1.377  -1.912  -4.165  0.00  0.00    -0.274 OA
BRANCH  59  63
ATOM     63  C   UNK    1        1.677  -0.771  -6.832  0.00  0.00    +0.159 C 
BRANCH  63  69
ATOM     64  C   UNK    1        1.060  -4.492  -7.840  0.00  0.00    +0.162 C 
ATOM     65  C   UNK    1       -0.336  -5.112  -7.645  0.00  0.00    +0.033 C 
ATOM     66  C   UNK    1       -0.998  -4.260  -6.579  0.00  0.00    +0.021 C 
ATOM     67  C   UNK    1       -0.449  -2.870  -6.864  0.00  0.00    +0.109 C 
ATOM     68  N   UNK    1        0.915  -3.102  -7.345  0.00  0.00    -0.288 N 
ATOM     69  C   UNK    1        1.950  -2.224  -7.298  0.00  0.00    +0.237 C 
ATOM     70  O   UNK    1        3.105  -2.519  -7.610  0.00  0.00    -0.274 OA
BRANCH  64  71
ATOM     71  C   UNK    1        1.532  -4.667  -9.299  0.00  0.00    +0.234 C 
ATOM     72  N   UNK    1        1.365  -3.628 -10.137  0.00  0.00    -0.314 N 
ATOM     73  H   UNK    1        0.952  -2.779  -9.780  0.00  0.00    +0.149 HD
ATOM     74  O   UNK    1        2.033  -5.741  -9.629  0.00  0.00    -0.274 OA
BRANCH  72  75
ATOM     75  C   UNK    1        1.759  -3.622 -11.542  0.00  0.00    +0.101 C 
ATOM     76  C   UNK    1        0.780  -4.380 -12.451  0.00  0.00    +0.024 C 
ENDBRANCH  72  75
ENDBRANCH  64  71
ENDBRANCH  63  69
BRANCH  63  77
ATOM     77  C   UNK    1        2.141   0.254  -7.891  0.00  0.00    +0.035 C 
BRANCH  77  78
ATOM     78  C   UNK    1        1.423   0.134  -9.249  0.00  0.00    +0.039 C 
BRANCH  78  79
ATOM     79  C   UNK    1        1.780   1.262 -10.230  0.00  0.00    +0.196 C 
BRANCH  79  80
ATOM     80  N   UNK    1        3.178   1.214 -10.623  0.00  0.00    -0.276 N 
ATOM     81  H   UNK    1        3.401   0.568 -11.366  0.00  0.00    +0.258 HD
BRANCH  80  82
ATOM     82  C   UNK    1        4.240   1.909 -10.058  0.00  0.00    +0.376 C 
ATOM     83  N   UNK    1        4.146   2.744  -9.116  0.00  0.00    -0.130 NA
ATOM     84  H   UNK    1        5.035   3.141  -8.844  0.00  0.00    +0.306 HD
BRANCH  82  85
ATOM     85  N   UNK    1        5.439   1.573 -10.663  0.00  0.00    -0.289 N 
ATOM     86  H   UNK    1        5.346   1.254 -11.617  0.00  0.00    +0.255 HD
ATOM     87  H   UNK    1        6.141   2.298 -10.620  0.00  0.00    +0.255 HD
ENDBRANCH  82  85
ENDBRANCH  80  82
ENDBRANCH  79  80
ENDBRANCH  78  79
ENDBRANCH  77  78
ENDBRANCH  63  77
ENDBRANCH  59  63
ENDBRANCH  58  61
BRANCH  58  88
ATOM     88  C   UNK    1        4.466  -1.465  -3.310  0.00  0.00    +0.034 C 
BRANCH  88  89
ATOM     89  C   UNK    1        5.578  -1.008  -2.336  0.00  0.00    -0.015 C 
ATOM     90  C   UNK    1        6.723  -2.043  -2.284  0.00  0.00    +0.007 C 
ATOM     91  C   UNK    1        6.089   0.414  -2.652  0.00  0.00    +0.007 C 
ENDBRANCH  88  89
ENDBRANCH  58  88
ENDBRANCH  54  58
ENDBRANCH  53  56
BRANCH  53  92
ATOM     92  C   UNK    1        1.941   0.397   1.001  0.00  0.00    +0.192 C 
BRANCH  92  93
ATOM     93  O   UNK    1        1.430  -0.054   2.257  0.00  0.00    -0.372 OA
BRANCH  93  94
ATOM     94  C   UNK    1        1.857   0.604   3.457  0.00  0.00    +0.061 C 
ATOM     95  C   UNK    1        1.249  -0.234   4.598  0.00  0.00    +0.041 C 
ATOM     96  C   UNK    1        3.399   0.603   3.577  0.00  0.00    +0.041 C 
ATOM     97  C   UNK    1        1.299   2.044   3.508  0.00  0.00    +0.041 C 
ENDBRANCH  93  94
ENDBRANCH  92  93
ENDBRANCH  53  92
ENDBRANCH  49  53
ENDBRANCH   1  51
BRANCH   1  98
ATOM     98  C   UNK    1       -3.227   1.874  -0.822  0.00  0.00    +0.067 C 
BRANCH  98  99
ATOM     99  C   UNK    1       -4.737   1.706  -0.807  0.00  0.00    -0.045 A 
ATOM    100  C   UNK    1       -5.564   2.732  -0.304  0.00  0.00    +0.007 A 
ATOM    101  C   UNK    1       -6.962   2.565  -0.275  0.00  0.00    +0.045 A 
ATOM    102  C   UNK    1       -7.539   1.370  -0.747  0.00  0.00    +0.117 A 
ATOM    103  C   UNK    1       -6.717   0.343  -1.250  0.00  0.00    +0.045 A 
ATOM    104  C   UNK    1       -5.318   0.510  -1.279  0.00  0.00    +0.007 A 
BRANCH 102 105
ATOM    105  O   UNK    1       -8.893   1.205  -0.714  0.00  0.00    -0.507 OA
ATOM    106  H   UNK    1       -9.351   1.957  -0.331  0.00  0.00    +0.292 HD
ENDBRANCH 102 105
ENDBRANCH  98  99
ENDBRANCH   1  98
TORSDOF 37
