REMARK  Name = DB06713
REMARK                            x       y       z     vdW  Elec       q    Type
REMARK                         _______ _______ _______ _____ _____    ______ ____
ROOT
ATOM      1  C   LIG    1       -0.603  -0.493   1.461  0.00  0.00    +0.132 C 
ATOM      2  C   LIG    1       -0.403   0.770   2.355  0.00  0.00    +0.049 C 
ATOM      3  C   LIG    1       -0.242   1.986   1.421  0.00  0.00    +0.008 C 
ATOM      4  C   LIG    1       -0.435   1.417   0.012  0.00  0.00    +0.002 C 
ATOM      5  C   LIG    1        0.102   2.206  -1.219  0.00  0.00    -0.003 C 
ATOM      6  C   LIG    1       -0.430   3.649  -1.264  0.00  0.00    +0.008 C 
ATOM      7  C   LIG    1        0.215   4.421  -2.421  0.00  0.00    +0.031 C 
ATOM      8  C   LIG    1       -0.085   3.730  -3.753  0.00  0.00    -0.064 C 
ATOM      9  C   LIG    1       -0.530   4.426  -4.823  0.00  0.00    +0.026 C 
ATOM     10  C   LIG    1       -0.716   3.932  -6.159  0.00  0.00    +0.080 C 
ATOM     11  C   LIG    1       -0.281   2.463  -6.382  0.00  0.00    +0.059 C 
ATOM     12  C   LIG    1       -0.423   1.610  -5.102  0.00  0.00    +0.014 C 
ATOM     13  N   LIG    1       -1.157   4.710  -7.072  0.00  0.00    -0.092 NA
ATOM     14  C   LIG    1        0.195   2.209  -3.809  0.00  0.00    +0.019 C 
ATOM     15  C   LIG    1       -0.333   1.478  -2.527  0.00  0.00    -0.000 C 
ATOM     16  C   LIG    1        0.083  -0.023  -2.485  0.00  0.00    +0.005 C 
ATOM     17  C   LIG    1       -0.466  -0.735  -1.224  0.00  0.00    +0.011 C 
ATOM     18  C   LIG    1        0.063  -0.062   0.086  0.00  0.00    +0.014 C 
ENDROOT
BRANCH   1  19
ATOM     19  O   LIG    1       -0.004  -1.615   2.080  0.00  0.00    -0.376 OA
ATOM     20  H   LIG    1       -0.041  -2.353   1.468  0.00  0.00    +0.211 HD
ENDBRANCH   1  19
BRANCH   1  21
ATOM     21  C   LIG    1       -2.047  -0.841   1.379  0.00  0.00    -0.070 C 
ATOM     22  C   LIG    1       -3.237  -1.110   1.313  0.00  0.00    +0.007 C 
ENDBRANCH   1  21
BRANCH  13  23
ATOM     23  O   LIG    1       -1.240   4.136  -8.353  0.00  0.00    -0.409 OA
ATOM     24  H   LIG    1       -1.587   4.863  -8.877  0.00  0.00    +0.328 HD
ENDBRANCH  13  23
BRANCH  18  25
ATOM     25  C   LIG    1        1.640  -0.168   0.175  0.00  0.00    +0.007 C 
ATOM     26  C   LIG    1        2.269  -1.555  -0.082  0.00  0.00    +0.004 C 
ENDBRANCH  18  25
TORSDOF 4
