REMARK  Name = DB06598
REMARK                            x       y       z     vdW  Elec       q    Type
REMARK                         _______ _______ _______ _____ _____    ______ ____
ROOT
ATOM      1  C   LIG    1        1.447   0.190  -0.114  0.00  0.00    +0.106 A 
ATOM      2  N   LIG    1        2.148   1.390  -0.085  0.00  0.00    -0.344 N 
ATOM      3  C   LIG    1        1.606   2.745  -0.112  0.00  0.00    +0.149 C 
ATOM      4  C   LIG    1        3.489   1.102   0.028  0.00  0.00    +0.109 A 
ATOM      5  C   LIG    1        3.685  -0.274   0.036  0.00  0.00    +0.052 A 
ATOM      6  C   LIG    1        2.408  -0.826  -0.074  0.00  0.00    +0.055 A 
ENDROOT
BRANCH   1   9
ATOM      7  N   LIG    1       -0.452  -1.174   0.056  0.00  0.00    -0.279 N 
ATOM      8  H   LIG    1        0.220  -1.849   0.390  0.00  0.00    +0.155 HD
ATOM      9  C   LIG    1        0.012   0.052  -0.278  0.00  0.00    +0.265 C 
ATOM     10  O   LIG    1       -0.686   0.987  -0.676  0.00  0.00    -0.268 OA
BRANCH   7  12
ATOM     11  C   LIG    1       -2.209  -2.858   0.419  0.00  0.00    +0.055 A 
ATOM     12  C   LIG    1       -1.770  -1.599   0.006  0.00  0.00    +0.052 A 
ATOM     13  C   LIG    1       -2.912  -0.945  -0.439  0.00  0.00    +0.109 A 
ATOM     14  N   LIG    1       -4.012  -1.759  -0.304  0.00  0.00    -0.344 N 
ATOM     15  C   LIG    1       -5.365  -1.365  -0.682  0.00  0.00    +0.149 C 
ATOM     16  C   LIG    1       -3.594  -2.969   0.241  0.00  0.00    +0.106 A 
BRANCH  16  17
ATOM     17  C   LIG    1       -4.449  -4.104   0.540  0.00  0.00    +0.261 C 
ATOM     18  N   LIG    1       -3.809  -5.156   1.087  0.00  0.00    -0.309 N 
ATOM     19  H   LIG    1       -2.827  -5.060   1.299  0.00  0.00    +0.149 HD
ATOM     20  O   LIG    1       -5.657  -4.101   0.299  0.00  0.00    -0.269 OA
BRANCH  18  21
ATOM     21  C   LIG    1       -4.431  -6.428   1.463  0.00  0.00    +0.119 C 
BRANCH  21  22
ATOM     22  C   LIG    1       -4.543  -7.446   0.303  0.00  0.00    +0.102 C 
BRANCH  22  23
ATOM     23  N   LIG    1       -5.779  -7.326  -0.494  0.00  0.00    -0.282 NA
ATOM     24  H   LIG    1       -6.623  -7.649  -0.044  0.00  0.00    +0.125 HD
BRANCH  23  25
ATOM     25  C   LIG    1       -5.945  -6.783  -1.706  0.00  0.00    +0.167 C 
BRANCH  25  26
ATOM     26  N   LIG    1       -7.165  -6.768  -2.219  0.00  0.00    -0.297 NA
ATOM     27  H   LIG    1       -7.291  -6.671  -3.217  0.00  0.00    +0.121 HD
ATOM     28  H   LIG    1       -7.968  -6.847  -1.612  0.00  0.00    +0.121 HD
ENDBRANCH  25  26
BRANCH  25  29
ATOM     29  N   LIG    1       -4.961  -6.256  -2.430  0.00  0.00    -0.297 NA
ATOM     30  H   LIG    1       -4.021  -6.240  -2.063  0.00  0.00    +0.121 HD
ATOM     31  H   LIG    1       -5.163  -5.846  -3.331  0.00  0.00    +0.121 HD
ENDBRANCH  25  29
ENDBRANCH  23  25
ENDBRANCH  22  23
ENDBRANCH  21  22
ENDBRANCH  18  21
ENDBRANCH  16  17
ENDBRANCH   7  12
ENDBRANCH   1   9
BRANCH   5  32
ATOM     32  N   LIG    1        4.852  -1.017   0.111  0.00  0.00    -0.279 N 
ATOM     33  H   LIG    1        4.746  -2.017   0.033  0.00  0.00    +0.155 HD
ATOM     34  C   LIG    1        6.102  -0.534   0.292  0.00  0.00    +0.265 C 
ATOM     35  O   LIG    1        6.385   0.656   0.443  0.00  0.00    -0.268 OA
BRANCH  34  36
ATOM     36  C   LIG    1        7.122  -1.568   0.306  0.00  0.00    +0.106 A 
ATOM     37  N   LIG    1        8.435  -1.407   0.731  0.00  0.00    -0.344 N 
ATOM     38  C   LIG    1        9.045  -0.224   1.331  0.00  0.00    +0.149 C 
ATOM     39  C   LIG    1        9.099  -2.596   0.535  0.00  0.00    +0.109 A 
ATOM     40  C   LIG    1        8.260  -3.531  -0.042  0.00  0.00    +0.052 A 
ATOM     41  C   LIG    1        7.031  -2.870  -0.197  0.00  0.00    +0.055 A 
BRANCH  40  42
ATOM     42  N   LIG    1        8.643  -4.820  -0.373  0.00  0.00    -0.279 N 
ATOM     43  H   LIG    1        9.602  -5.061  -0.171  0.00  0.00    +0.155 HD
ATOM     44  C   LIG    1        7.868  -5.775  -0.936  0.00  0.00    +0.265 C 
ATOM     45  O   LIG    1        6.680  -5.634  -1.230  0.00  0.00    -0.268 OA
BRANCH  44  46
ATOM     46  C   LIG    1        8.568  -7.028  -1.170  0.00  0.00    +0.106 A 
ATOM     47  N   LIG    1        7.983  -8.220  -1.581  0.00  0.00    -0.344 N 
ATOM     48  C   LIG    1        6.568  -8.495  -1.810  0.00  0.00    +0.149 C 
ATOM     49  C   LIG    1        8.977  -9.161  -1.723  0.00  0.00    +0.109 A 
ATOM     50  C   LIG    1       10.211  -8.610  -1.436  0.00  0.00    +0.052 A 
ATOM     51  C   LIG    1        9.945  -7.271  -1.105  0.00  0.00    +0.055 A 
BRANCH  50  52
ATOM     52  N   LIG    1       11.405  -9.311  -1.494  0.00  0.00    -0.280 N 
ATOM     53  H   LIG    1       11.329 -10.286  -1.744  0.00  0.00    +0.155 HD
ATOM     54  C   LIG    1       12.644  -8.828  -1.256  0.00  0.00    +0.255 C 
ATOM     55  O   LIG    1       12.884  -7.658  -0.945  0.00  0.00    -0.269 OA
BRANCH  54  56
ATOM     56  C   LIG    1       13.696  -9.820  -1.400  0.00  0.00    +0.073 C 
ATOM     57 BR   LIG    1       13.229 -11.713  -1.799  0.00  0.00    -0.046 Br
ATOM     58  C   LIG    1       14.999  -9.506  -1.273  0.00  0.00    +0.030 C 
ENDBRANCH  54  56
ENDBRANCH  50  52
ENDBRANCH  44  46
ENDBRANCH  40  42
ENDBRANCH  34  36
ENDBRANCH   5  32
TORSDOF 15
