REMARK  Name = DB06634
REMARK                            x       y       z     vdW  Elec       q    Type
REMARK                         _______ _______ _______ _____ _____    ______ ____
ROOT
ATOM      1  C   LIG    1       -1.927  -1.686   1.765  0.00  0.00    +0.106 C 
ATOM      2  N   LIG    1       -0.532  -1.572   1.218  0.00  0.00    -0.279 N 
ATOM      3  C   LIG    1       -0.005  -0.362   0.859  0.00  0.00    +0.306 C 
ATOM      4  N   LIG    1        1.277  -0.067   1.228  0.00  0.00    -0.282 N 
ATOM      5  C   LIG    1        1.881  -0.551   2.483  0.00  0.00    +0.134 C 
ATOM      6  O   LIG    1       -0.669   0.441   0.198  0.00  0.00    -0.252 OA
ATOM      7  C   LIG    1        0.337  -2.775   1.148  0.00  0.00    +0.108 C 
ATOM      8  C   LIG    1       -0.440  -3.914   0.473  0.00  0.00    +0.004 C 
ATOM      9  C   LIG    1       -1.703  -4.248   1.270  0.00  0.00    -0.065 C 
ATOM     10  C   LIG    1       -2.629  -3.019   1.365  0.00  0.00    +0.012 C 
ENDROOT
BRANCH   9  11
ATOM     11  N   LIG    1       -2.397  -5.500   0.660  0.00  0.00    +0.384 N 
ATOM     12  H   LIG    1       -1.648  -6.146   0.455  0.00  0.00    -0.081 HD
ATOM     13  C   LIG    1       -3.120  -5.293  -0.700  0.00  0.00    -0.059 C 
ATOM     14  C   LIG    1       -4.653  -5.202  -0.501  0.00  0.00    +0.089 C 
ATOM     15  N   LIG    1       -5.116  -6.481   0.095  0.00  0.00    -0.305 N 
ATOM     16  C   LIG    1       -6.375  -6.919  -0.172  0.00  0.00    +0.212 C 
ATOM     17  C   LIG    1       -6.856  -8.251   0.416  0.00  0.00    +0.109 C 
ATOM     18  O   LIG    1       -7.165  -6.296  -0.884  0.00  0.00    -0.276 OA
ATOM     19  C   LIG    1       -4.213  -7.225   1.009  0.00  0.00    +0.089 C 
ATOM     20  C   LIG    1       -3.297  -6.197   1.710  0.00  0.00    -0.059 C 
ENDBRANCH   9  11
BRANCH   1  23
ATOM     21  C   LIG    1       -1.961   0.268   4.093  0.00  0.00    +0.044 C 
ATOM     22  C   LIG    1       -2.896   0.428   2.900  0.00  0.00    -0.043 A 
ATOM     23  C   LIG    1       -2.869  -0.459   1.801  0.00  0.00    -0.024 A 
ATOM     24  C   LIG    1       -3.736  -0.223   0.723  0.00  0.00    +0.008 A 
ATOM     25  C   LIG    1       -4.609   0.863   0.729  0.00  0.00    +0.039 A 
ATOM     26  C   LIG    1       -4.631   1.731   1.816  0.00  0.00    +0.124 A 
ATOM     27  F   LIG    1       -5.477   2.786   1.822  0.00  0.00    -0.205 F 
ATOM     28  C   LIG    1       -3.777   1.515   2.894  0.00  0.00    +0.042 A 
ENDBRANCH   1  23
BRANCH   4  29
ATOM     29  C   LIG    1        2.071   0.966   0.519  0.00  0.00    +0.104 C 
ATOM     30  C   LIG    1        3.406   0.379   0.001  0.00  0.00    +0.033 C 
BRANCH  29  31
ATOM     31  C   LIG    1        2.188   2.302   1.288  0.00  0.00    -0.026 A 
ATOM     32  C   LIG    1        3.398   3.005   1.379  0.00  0.00    +0.017 A 
ATOM     33  C   LIG    1        3.489   4.203   2.097  0.00  0.00    +0.056 A 
ATOM     34  C   LIG    1        2.350   4.702   2.735  0.00  0.00    +0.024 A 
ATOM     35  C   LIG    1        1.131   4.022   2.664  0.00  0.00    +0.056 A 
ATOM     36  C   LIG    1        1.063   2.829   1.938  0.00  0.00    +0.017 A 
BRANCH  33  37
ATOM     37  C   LIG    1        4.811   4.965   2.192  0.00  0.00    +0.417 C 
ATOM     38  F   LIG    1        5.370   4.715   3.376  0.00  0.00    -0.166 F 
ATOM     39  F   LIG    1        4.607   6.280   2.086  0.00  0.00    -0.166 F 
ATOM     40  F   LIG    1        5.670   4.603   1.238  0.00  0.00    -0.166 F 
ENDBRANCH  33  37
BRANCH  35  41
ATOM     41  C   LIG    1       -0.095   4.587   3.380  0.00  0.00    +0.417 C 
ATOM     42  F   LIG    1       -1.126   3.738   3.374  0.00  0.00    -0.166 F 
ATOM     43  F   LIG    1       -0.479   5.711   2.775  0.00  0.00    -0.166 F 
ATOM     44  F   LIG    1        0.204   4.863   4.650  0.00  0.00    -0.166 F 
ENDBRANCH  35  41
ENDBRANCH  29  31
ENDBRANCH   4  29
TORSDOF 6
