REMARK  Name = DB06333
REMARK                            x       y       z     vdW  Elec       q    Type
REMARK                         _______ _______ _______ _____ _____    ______ ____
ROOT
ATOM      1  C   LIG    1       -0.561  -0.773  -1.423  0.00  0.00    -0.015 C 
ATOM      2  C   LIG    1       -0.122  -0.063  -0.117  0.00  0.00    -0.072 C 
ATOM      3  C   LIG    1       -0.561  -0.896   1.110  0.00  0.00    -0.012 C 
ATOM      4  C   LIG    1       -2.080  -1.196   1.101  0.00  0.00    -0.004 C 
ATOM      5  C   LIG    1       -2.535  -1.933   2.386  0.00  0.00    +0.035 C 
ATOM      6  C   LIG    1       -4.068  -2.101   2.457  0.00  0.00    +0.118 C 
ATOM      7  C   LIG    1       -4.598  -2.816   1.176  0.00  0.00    +0.025 C 
ATOM      8  C   LIG    1       -6.151  -2.927   1.145  0.00  0.00    +0.001 C 
ATOM      9  C   LIG    1       -6.865  -3.539   2.349  0.00  0.00    +0.005 C 
ATOM     10  C   LIG    1       -8.242  -3.936   1.798  0.00  0.00    +0.004 C 
ATOM     11  C   LIG    1       -8.215  -3.728   0.256  0.00  0.00    -0.002 C 
ATOM     12  C   LIG    1       -6.684  -3.708  -0.085  0.00  0.00    -0.026 C 
ATOM     13  C   LIG    1       -6.125  -5.164  -0.192  0.00  0.00    +0.012 C 
ATOM     14  C   LIG    1       -6.278  -2.846  -1.314  0.00  0.00    +0.007 C 
ATOM     15  C   LIG    1       -4.745  -2.671  -1.425  0.00  0.00    +0.005 C 
ATOM     16  C   LIG    1       -4.087  -2.098  -0.127  0.00  0.00    +0.001 C 
ATOM     17  C   LIG    1       -2.511  -1.993  -0.185  0.00  0.00    -0.026 C 
ATOM     18  C   LIG    1       -1.849  -3.405  -0.266  0.00  0.00    +0.012 C 
ATOM     19  C   LIG    1       -2.065  -1.135  -1.412  0.00  0.00    +0.005 C 
ENDROOT
BRANCH   2  20
ATOM     20  N   LIG    1        1.414   0.050  -0.059  0.00  0.00    +0.381 N 
ATOM     21  H   LIG    1        1.798  -0.876  -0.186  0.00  0.00    -0.086 HD
ATOM     22  H   LIG    1        1.670   0.333   0.876  0.00  0.00    -0.086 HD
BRANCH  20  23
ATOM     23  C   LIG    1        2.052   0.998  -1.087  0.00  0.00    -0.084 C 
BRANCH  23  24
ATOM     24  C   LIG    1        3.557   1.120  -0.795  0.00  0.00    -0.038 C 
BRANCH  24  25
ATOM     25  C   LIG    1        4.321   1.987  -1.810  0.00  0.00    -0.084 C 
BRANCH  25  26
ATOM     26  N   LIG    1        3.874   3.455  -1.710  0.00  0.00    +0.379 N 
ATOM     27  H   LIG    1        4.020   3.778  -0.764  0.00  0.00    -0.086 HD
ATOM     28  H   LIG    1        2.886   3.509  -1.914  0.00  0.00    -0.086 HD
BRANCH  26  29
ATOM     29  C   LIG    1        4.625   4.389  -2.672  0.00  0.00    -0.083 C 
BRANCH  29  30
ATOM     30  C   LIG    1        4.062   5.815  -2.557  0.00  0.00    -0.021 C 
BRANCH  30  31
ATOM     31  C   LIG    1        4.763   6.797  -3.516  0.00  0.00    -0.021 C 
BRANCH  31  32
ATOM     32  C   LIG    1        4.146   8.207  -3.543  0.00  0.00    -0.083 C 
BRANCH  32  33
ATOM     33  N   LIG    1        4.394   8.926  -2.207  0.00  0.00    +0.379 N 
ATOM     34  H   LIG    1        5.390   8.974  -2.045  0.00  0.00    -0.086 HD
ATOM     35  H   LIG    1        3.978   8.382  -1.464  0.00  0.00    -0.086 HD
BRANCH  33  36
ATOM     36  C   LIG    1        3.815  10.349  -2.165  0.00  0.00    -0.084 C 
BRANCH  36  37
ATOM     37  C   LIG    1        4.096  10.982  -0.794  0.00  0.00    -0.039 C 
BRANCH  37  38
ATOM     38  C   LIG    1        3.542  12.413  -0.701  0.00  0.00    -0.088 C 
BRANCH  38  39
ATOM     39  N   LIG    1        3.833  13.006   0.681  0.00  0.00    +0.378 N 
ATOM     40  H   LIG    1        3.394  12.450   1.401  0.00  0.00    -0.090 HD
ATOM     41  H   LIG    1        4.829  13.031   0.850  0.00  0.00    -0.090 HD
ATOM     42  H   LIG    1        3.472  13.948   0.736  0.00  0.00    -0.090 HD
ENDBRANCH  38  39
ENDBRANCH  37  38
ENDBRANCH  36  37
ENDBRANCH  33  36
ENDBRANCH  32  33
ENDBRANCH  31  32
ENDBRANCH  30  31
ENDBRANCH  29  30
ENDBRANCH  26  29
ENDBRANCH  25  26
ENDBRANCH  24  25
ENDBRANCH  23  24
ENDBRANCH  20  23
ENDBRANCH   2  20
BRANCH  11  43
ATOM     43  C   LIG    1       -9.151  -4.724  -0.515  0.00  0.00    -0.010 C 
ATOM     44  C   LIG    1       -9.073  -4.564  -2.051  0.00  0.00    +0.008 C 
BRANCH  43  45
ATOM     45  C   LIG    1      -10.625  -4.612  -0.025  0.00  0.00    +0.006 C 
BRANCH  45  46
ATOM     46  C   LIG    1      -11.564  -5.747  -0.497  0.00  0.00    +0.034 C 
BRANCH  46  47
ATOM     47  C   LIG    1      -12.992  -5.698   0.101  0.00  0.00    +0.154 C 
BRANCH  47  48
ATOM     48  C   LIG    1      -13.088  -5.876   1.644  0.00  0.00    +0.014 C 
ATOM     49  C   LIG    1      -14.541  -5.742   2.141  0.00  0.00    +0.010 C 
ATOM     50  C   LIG    1      -12.456  -7.187   2.155  0.00  0.00    +0.010 C 
ENDBRANCH  47  48
BRANCH  47  51
ATOM     51  O   LIG    1      -13.747  -6.735  -0.521  0.00  0.00    -0.212 OA
BRANCH  51  52
ATOM     52  S   LIG    1      -14.897  -6.314  -1.659  0.00  0.00    +0.208 S 
ATOM     53  O   LIG    1      -14.137  -5.599  -2.692  0.00  0.00    -0.118 OA
ATOM     54  O   LIG    1      -15.845  -5.473  -0.919  0.00  0.00    -0.118 OA
BRANCH  52  55
ATOM     55  O   LIG    1      -15.441  -7.605  -2.091  0.00  0.00    -0.231 OA
ATOM     56  H   LIG    1      -15.927  -8.013  -1.357  0.00  0.00    +0.247 HD
ENDBRANCH  52  55
ENDBRANCH  51  52
ENDBRANCH  47  51
ENDBRANCH  46  47
ENDBRANCH  45  46
ENDBRANCH  43  45
ENDBRANCH  11  43
BRANCH   6  57
ATOM     57  O   LIG    1       -4.686  -0.844   2.673  0.00  0.00    -0.391 OA
ATOM     58  H   LIG    1       -5.631  -0.983   2.773  0.00  0.00    +0.210 HD
ENDBRANCH   6  57
TORSDOF 23
