REMARK  Name = DB06198
REMARK                            x       y       z     vdW  Elec       q    Type
REMARK                         _______ _______ _______ _____ _____    ______ ____
ROOT
ATOM      1  N   LIG    1        0.075  -0.110  -0.024  0.00  0.00    -0.274 N 
ATOM      2  C   LIG    1       -0.596  -1.296   0.212  0.00  0.00    +0.331 A 
ATOM      3  N   LIG    1       -1.955  -1.150   0.315  0.00  0.00    -0.275 N 
ATOM      4  H   LIG    1       -2.464  -2.005   0.489  0.00  0.00    +0.173 HD
ATOM      5  C   LIG    1       -2.731  -0.031   0.212  0.00  0.00    +0.257 A 
ATOM      6  C   LIG    1       -1.960   1.184  -0.047  0.00  0.00    +0.030 A 
ATOM      7  C   LIG    1       -2.715   2.501  -0.180  0.00  0.00    +0.051 C 
ATOM      8  O   LIG    1       -3.954  -0.083   0.332  0.00  0.00    -0.267 OA
ATOM      9  O   LIG    1       -0.093  -2.415   0.323  0.00  0.00    -0.246 OA
ATOM     10  C   LIG    1       -0.618   1.074  -0.150  0.00  0.00    +0.101 A 
ENDROOT
BRANCH   1  15
ATOM     11  F   LIG    1        4.211  -0.536  -1.049  0.00  0.00    -0.243 F 
ATOM     12  C   LIG    1        3.498   0.586  -1.188  0.00  0.00    +0.201 C 
ATOM     13  C   LIG    1        3.380   1.257   0.188  0.00  0.00    +0.180 C 
ATOM     14  O   LIG    1        2.117   0.815   0.686  0.00  0.00    -0.348 OA
ATOM     15  C   LIG    1        1.526  -0.117  -0.175  0.00  0.00    +0.227 C 
ATOM     16  C   LIG    1        2.075   0.202  -1.560  0.00  0.00    +0.094 C 
BRANCH  13  17
ATOM     17  C   LIG    1        3.387   2.802   0.192  0.00  0.00    +0.190 C 
BRANCH  17  18
ATOM     18  O   LIG    1        2.480   3.361  -0.739  0.00  0.00    -0.392 OA
ATOM     19  H   LIG    1        2.532   4.319  -0.680  0.00  0.00    +0.210 HD
ENDBRANCH  17  18
ENDBRANCH  13  17
ENDBRANCH   1  15
TORSDOF 3
