REMARK  Name = DB06707
REMARK                            x       y       z     vdW  Elec       q    Type
REMARK                         _______ _______ _______ _____ _____    ______ ____
ROOT
ATOM      1  C   LIG    1        2.033   0.706   1.298  0.00  0.00    -0.014 A 
ATOM      2  C   LIG    1        1.736   0.240   2.584  0.00  0.00    +0.010 A 
ATOM      3  C   LIG    1        2.215   0.914   3.708  0.00  0.00    +0.049 A 
ATOM      4  C   LIG    1        2.995   2.062   3.558  0.00  0.00    +0.158 A 
ATOM      5  C   LIG    1        3.296   2.537   2.275  0.00  0.00    +0.159 A 
ATOM      6  C   LIG    1        2.814   1.858   1.153  0.00  0.00    +0.055 A 
ENDROOT
BRANCH   4   7
ATOM      7  O   LIG    1        3.456   2.706   4.679  0.00  0.00    -0.503 OA
ATOM      8  H   LIG    1        3.179   2.284   5.495  0.00  0.00    +0.292 HD
ENDBRANCH   4   7
BRANCH   5   9
ATOM      9  O   LIG    1        4.059   3.663   2.098  0.00  0.00    -0.503 OA
ATOM     10  H   LIG    1        4.186   3.891   1.174  0.00  0.00    +0.292 HD
ENDBRANCH   5   9
BRANCH   1  11
ATOM     11  C   LIG    1        1.512  -0.033   0.062  0.00  0.00    +0.161 C 
BRANCH  11  13
ATOM     12  C   LIG    1       -0.568  -0.701  -1.341  0.00  0.00    +0.026 C 
ATOM     13  C   LIG    1       -0.041  -0.022  -0.060  0.00  0.00    +0.081 C 
BRANCH  13  14
ATOM     14  N   LIG    1       -0.556   1.340  -0.042  0.00  0.00    -0.325 NA
ATOM     15  H   LIG    1       -1.561   1.321  -0.143  0.00  0.00    +0.119 HD
ATOM     16  H   LIG    1       -0.200   1.848  -0.839  0.00  0.00    +0.119 HD
ENDBRANCH  13  14
ENDBRANCH  11  13
BRANCH  11  17
ATOM     17  O   LIG    1        1.969  -1.374   0.045  0.00  0.00    -0.386 OA
ATOM     18  H   LIG    1        2.928  -1.367  -0.005  0.00  0.00    +0.210 HD
ENDBRANCH  11  17
ENDBRANCH   1  11
TORSDOF 6
