REMARK  Name = DB06825
REMARK                            x       y       z     vdW  Elec       q    Type
REMARK                         _______ _______ _______ _____ _____    ______ ____
ROOT
ATOM      1  N   UNK    1        1.485  -0.233   0.550  0.00  0.00    -0.302 N 
ATOM      2  H   UNK    1        2.010  -0.619   1.322  0.00  0.00    +0.150 HD
ATOM      3  C   UNK    1        2.169   0.202  -0.524  0.00  0.00    +0.234 C 
ATOM      4  O   UNK    1        1.664   0.681  -1.539  0.00  0.00    -0.274 OA
ENDROOT
BRANCH   1   5
ATOM      5  C   UNK    1        0.029  -0.212   0.740  0.00  0.00    +0.163 C 
BRANCH   5   6
ATOM      6  C   UNK    1       -0.536   1.220   0.851  0.00  0.00    +0.234 C 
ATOM      7  O   UNK    1        0.217   2.156   1.133  0.00  0.00    -0.274 OA
ATOM      8  N   UNK    1       -1.861   1.359   0.671  0.00  0.00    -0.302 N 
ATOM      9  H   UNK    1       -2.418   0.545   0.456  0.00  0.00    +0.150 HD
BRANCH   8  10
ATOM     10  C   UNK    1       -2.596   2.616   0.807  0.00  0.00    +0.159 C 
BRANCH  10  11
ATOM     11  C   UNK    1       -2.703   3.007   2.289  0.00  0.00    +0.234 C 
ATOM     12  N   UNK    1       -2.073   4.139   2.636  0.00  0.00    -0.302 N 
ATOM     13  H   UNK    1       -1.597   4.674   1.925  0.00  0.00    +0.150 HD
ATOM     14  O   UNK    1       -3.316   2.278   3.070  0.00  0.00    -0.274 OA
BRANCH  12  15
ATOM     15  C   UNK    1       -1.965   4.662   3.998  0.00  0.00    +0.159 C 
BRANCH  15  16
ATOM     16  C   UNK    1       -3.294   5.333   4.415  0.00  0.00    +0.237 C 
ATOM     17  O   UNK    1       -3.692   6.291   3.749  0.00  0.00    -0.274 OA
ATOM     18  N   UNK    1       -3.982   4.811   5.461  0.00  0.00    -0.288 N 
ATOM     19  C   UNK    1       -5.312   5.309   5.859  0.00  0.00    +0.162 C 
ATOM     20  C   UNK    1       -5.824   4.229   6.829  0.00  0.00    +0.033 C 
ATOM     21  C   UNK    1       -4.570   3.638   7.450  0.00  0.00    +0.021 C 
ATOM     22  C   UNK    1       -3.559   3.693   6.311  0.00  0.00    +0.109 C 
BRANCH  19  23
ATOM     23  C   UNK    1       -5.256   6.709   6.501  0.00  0.00    +0.234 C 
ATOM     24  N   UNK    1       -5.837   7.696   5.799  0.00  0.00    -0.305 N 
ATOM     25  H   UNK    1       -6.259   7.477   4.908  0.00  0.00    +0.149 HD
ATOM     26  O   UNK    1       -4.695   6.863   7.586  0.00  0.00    -0.274 OA
BRANCH  24  27
ATOM     27  C   UNK    1       -5.928   9.088   6.238  0.00  0.00    +0.199 C 
BRANCH  27  28
ATOM     28  C   UNK    1       -7.170   9.258   7.126  0.00  0.00    +0.228 C 
ATOM     29  O   UNK    1       -7.181   8.841   8.283  0.00  0.00    -0.274 OA
ATOM     30  N   UNK    1       -8.211   9.909   6.602  0.00  0.00    -0.328 N 
ATOM     31  H   UNK    1       -8.175  10.259   5.656  0.00  0.00    +0.145 HD
ATOM     32  H   UNK    1       -9.043  10.057   7.155  0.00  0.00    +0.145 HD
ENDBRANCH  27  28
ENDBRANCH  24  27
ENDBRANCH  19  23
ENDBRANCH  15  16
BRANCH  15  33
ATOM     33  C   UNK    1       -0.798   5.673   4.028  0.00  0.00    +0.035 C 
BRANCH  33  34
ATOM     34  C   UNK    1        0.561   5.045   3.661  0.00  0.00    +0.039 C 
BRANCH  34  35
ATOM     35  C   UNK    1        1.724   6.038   3.759  0.00  0.00    +0.196 C 
BRANCH  35  36
ATOM     36  N   UNK    1        2.974   5.412   3.367  0.00  0.00    -0.276 N 
ATOM     37  H   UNK    1        2.905   4.464   3.029  0.00  0.00    +0.258 HD
BRANCH  36  38
ATOM     38  C   UNK    1        4.233   5.996   3.358  0.00  0.00    +0.376 C 
ATOM     39  N   UNK    1        4.483   7.178   3.722  0.00  0.00    -0.130 NA
ATOM     40  H   UNK    1        5.459   7.422   3.640  0.00  0.00    +0.306 HD
BRANCH  38  41
ATOM     41  N   UNK    1        5.196   5.114   2.896  0.00  0.00    -0.289 N 
ATOM     42  H   UNK    1        4.978   4.142   3.058  0.00  0.00    +0.255 HD
ATOM     43  H   UNK    1        6.128   5.309   3.232  0.00  0.00    +0.255 HD
ENDBRANCH  38  41
ENDBRANCH  36  38
ENDBRANCH  35  36
ENDBRANCH  34  35
ENDBRANCH  33  34
ENDBRANCH  15  33
ENDBRANCH  12  15
ENDBRANCH  10  11
BRANCH  10  44
ATOM     44  C   UNK    1       -3.995   2.474   0.163  0.00  0.00    +0.034 C 
BRANCH  44  45
ATOM     45  C   UNK    1       -3.983   2.205  -1.360  0.00  0.00    -0.015 C 
ATOM     46  C   UNK    1       -5.409   1.925  -1.881  0.00  0.00    +0.007 C 
ATOM     47  C   UNK    1       -3.284   3.327  -2.157  0.00  0.00    +0.007 C 
ENDBRANCH  44  45
ENDBRANCH  10  44
ENDBRANCH   8  10
ENDBRANCH   5   6
BRANCH   5  48
ATOM     48  C   UNK    1       -0.690  -1.088  -0.322  0.00  0.00    +0.069 C 
BRANCH  48  57
ATOM     49  C   UNK    1       -0.015  -3.255  -1.728  0.00  0.00    +0.003 A 
ATOM     50  C   UNK    1        0.419  -4.574  -1.392  0.00  0.00    +0.047 A 
ATOM     51  N   UNK    1        0.479  -4.574  -0.015  0.00  0.00    -0.360 N 
ATOM     52  H   UNK    1        0.751  -5.356   0.561  0.00  0.00    +0.165 HD
ATOM     53  C   UNK    1        0.107  -3.355   0.511  0.00  0.00    +0.087 A 
ATOM     54  C   UNK    1        0.680  -5.553  -2.368  0.00  0.00    +0.026 A 
ATOM     55  C   UNK    1        0.504  -5.232  -3.726  0.00  0.00    +0.002 A 
ATOM     56  C   UNK    1        0.080  -3.940  -4.092  0.00  0.00    +0.001 A 
ATOM     57  C   UNK    1       -0.196  -2.498  -0.491  0.00  0.00    -0.020 A 
ATOM     58  C   UNK    1       -0.174  -2.966  -3.104  0.00  0.00    +0.010 A 
ENDBRANCH  48  57
ENDBRANCH   5  48
ENDBRANCH   1   5
BRANCH   3  59
ATOM     59  C   UNK    1        3.695   0.067  -0.427  0.00  0.00    +0.163 C 
BRANCH  59  60
ATOM     60  N   UNK    1        4.221  -0.887  -1.402  0.00  0.00    -0.302 N 
ATOM     61  H   UNK    1        4.824  -0.501  -2.114  0.00  0.00    +0.150 HD
ATOM     62  C   UNK    1        3.995  -2.210  -1.383  0.00  0.00    +0.236 C 
ATOM     63  O   UNK    1        3.269  -2.782  -0.571  0.00  0.00    -0.274 OA
BRANCH  62  64
ATOM     64  C   UNK    1        4.706  -3.030  -2.469  0.00  0.00    +0.184 C 
BRANCH  64  65
ATOM     65  N   UNK    1        5.272  -4.253  -1.903  0.00  0.00    -0.301 N 
ATOM     66  H   UNK    1        4.732  -5.095  -2.045  0.00  0.00    +0.150 HD
ATOM     67  C   UNK    1        6.383  -4.302  -1.151  0.00  0.00    +0.234 C 
ATOM     68  O   UNK    1        7.118  -3.339  -0.924  0.00  0.00    -0.274 OA
BRANCH  67  69
ATOM     69  C   UNK    1        6.698  -5.664  -0.509  0.00  0.00    +0.163 C 
BRANCH  69  70
ATOM     70  N   UNK    1        8.049  -6.120  -0.836  0.00  0.00    -0.302 N 
ATOM     71  H   UNK    1        8.714  -6.095  -0.077  0.00  0.00    +0.150 HD
ATOM     72  C   UNK    1        8.454  -6.521  -2.052  0.00  0.00    +0.234 C 
ATOM     73  O   UNK    1        7.729  -6.575  -3.047  0.00  0.00    -0.274 OA
BRANCH  72  74
ATOM     74  C   UNK    1        9.941  -6.899  -2.164  0.00  0.00    +0.165 C 
BRANCH  74  75
ATOM     75  N   UNK    1       10.190  -7.936  -3.170  0.00  0.00    -0.302 N 
ATOM     76  H   UNK    1       10.710  -7.634  -3.981  0.00  0.00    +0.150 HD
ATOM     77  C   UNK    1        9.806  -9.225  -3.094  0.00  0.00    +0.234 C 
ATOM     78  O   UNK    1        9.178  -9.672  -2.133  0.00  0.00    -0.274 OA
BRANCH  77  79
ATOM     79  C   UNK    1       10.181 -10.176  -4.258  0.00  0.00    +0.159 C 
ATOM     80  N   UNK    1       10.949  -9.552  -5.338  0.00  0.00    -0.304 N 
ATOM     81  H   UNK    1       10.625  -8.711  -5.794  0.00  0.00    +0.149 HD
ATOM     82  C   UNK    1       11.936 -10.307  -5.851  0.00  0.00    +0.214 C 
ATOM     83  O   UNK    1       12.645 -10.056  -6.822  0.00  0.00    -0.276 OA
ATOM     84  C   UNK    1       12.006 -11.563  -4.983  0.00  0.00    +0.098 C 
ATOM     85  C   UNK    1       11.100 -11.303  -3.791  0.00  0.00    +0.041 C 
ENDBRANCH  77  79
ENDBRANCH  74  75
BRANCH  74  86
ATOM     86  C   UNK    1       10.787  -5.654  -2.500  0.00  0.00    +0.088 C 
BRANCH  86  87
ATOM     87  C   UNK    1       12.266  -5.918  -2.658  0.00  0.00    +0.061 A 
ATOM     88  C   UNK    1       13.259  -5.856  -1.702  0.00  0.00    +0.107 A 
ATOM     89  N   UNK    1       14.436  -6.202  -2.343  0.00  0.00    -0.351 N 
ATOM     90  H   UNK    1       15.354  -6.258  -1.926  0.00  0.00    +0.166 HD
ATOM     91  C   UNK    1       14.129  -6.448  -3.617  0.00  0.00    +0.196 A 
ATOM     92  N   UNK    1       12.838  -6.294  -3.879  0.00  0.00    -0.241 NA
ENDBRANCH  86  87
ENDBRANCH  74  86
ENDBRANCH  72  74
ENDBRANCH  69  70
BRANCH  69  93
ATOM     93  C   UNK    1        6.546  -5.627   1.028  0.00  0.00    +0.069 C 
BRANCH  93  94
ATOM     94  C   UNK    1        5.245  -5.106   1.571  0.00  0.00    -0.020 A 
ATOM     95  C   UNK    1        4.942  -3.776   2.099  0.00  0.00    +0.003 A 
ATOM     96  C   UNK    1        3.560  -3.737   2.460  0.00  0.00    +0.047 A 
ATOM     97  C   UNK    1        2.956  -2.589   3.002  0.00  0.00    +0.026 A 
ATOM     98  C   UNK    1        3.734  -1.435   3.205  0.00  0.00    +0.002 A 
ATOM     99  C   UNK    1        5.100  -1.440   2.861  0.00  0.00    +0.001 A 
ATOM    100  N   UNK    1        3.089  -4.993   2.141  0.00  0.00    -0.360 N 
ATOM    101  H   UNK    1        2.139  -5.312   2.261  0.00  0.00    +0.165 HD
ATOM    102  C   UNK    1        5.692  -2.594   2.309  0.00  0.00    +0.010 A 
ATOM    103  C   UNK    1        4.080  -5.791   1.608  0.00  0.00    +0.087 A 
ENDBRANCH  93  94
ENDBRANCH  69  93
ENDBRANCH  67  69
ENDBRANCH  64  65
BRANCH  64 104
ATOM    104  C   UNK    1        3.726  -3.396  -3.599  0.00  0.00    +0.187 C 
BRANCH 104 105
ATOM    105  O   UNK    1        4.425  -3.604  -4.808  0.00  0.00    -0.393 OA
ATOM    106  H   UNK    1        3.789  -3.823  -5.493  0.00  0.00    +0.209 HD
ENDBRANCH 104 105
ENDBRANCH  64 104
ENDBRANCH  62  64
ENDBRANCH  59  60
BRANCH  59 107
ATOM    107  C   UNK    1        4.404   1.424  -0.603  0.00  0.00    +0.067 C 
BRANCH 107 108
ATOM    108  C   UNK    1        5.897   1.368  -0.327  0.00  0.00    -0.045 A 
ATOM    109  C   UNK    1        6.808   1.162  -1.384  0.00  0.00    +0.007 A 
ATOM    110  C   UNK    1        8.188   1.066  -1.121  0.00  0.00    +0.045 A 
ATOM    111  C   UNK    1        8.662   1.178   0.201  0.00  0.00    +0.117 A 
ATOM    112  C   UNK    1        7.756   1.393   1.258  0.00  0.00    +0.045 A 
ATOM    113  C   UNK    1        6.376   1.490   0.994  0.00  0.00    +0.007 A 
BRANCH 111 114
ATOM    114  O   UNK    1        9.998   1.077   0.458  0.00  0.00    -0.507 OA
ATOM    115  H   UNK    1       10.522   0.920  -0.331  0.00  0.00    +0.292 HD
ENDBRANCH 111 114
ENDBRANCH 107 108
ENDBRANCH  59 107
ENDBRANCH   3  59
TORSDOF 37
