REMARK  Name = DB06575
REMARK                            x       y       z     vdW  Elec       q    Type
REMARK                         _______ _______ _______ _____ _____    ______ ____
ROOT
ATOM      1  C   LIG    1        1.988  -1.522  -0.081  0.00  0.00    +0.037 C 
ENDROOT
BRANCH   1   2
ATOM      2  C   LIG    1        1.325  -0.120  -0.157  0.00  0.00    +0.048 C 
BRANCH   2   3
ATOM      3  C   LIG    1       -0.212  -0.151  -0.131  0.00  0.00    +0.232 C 
BRANCH   3   4
ATOM      4  O   LIG    1       -0.703   1.182  -0.105  0.00  0.00    -0.466 OA
BRANCH   4   5
ATOM      5  C   LIG    1       -2.033   1.432   0.042  0.00  0.00    +0.293 C 
ATOM      6  O   LIG    1       -2.907   0.569   0.143  0.00  0.00    -0.253 OA
BRANCH   5   7
ATOM      7  C   LIG    1       -2.374   2.917   0.017  0.00  0.00    +0.039 C 
BRANCH   7   8
ATOM      8  N   LIG    1       -1.780   3.437   1.300  0.00  0.00    +0.387 N 
ATOM      9  H   LIG    1       -0.774   3.353   1.252  0.00  0.00    -0.089 HD
ATOM     10  H   LIG    1       -2.039   4.406   1.415  0.00  0.00    -0.089 HD
ATOM     11  H   LIG    1       -2.133   2.891   2.072  0.00  0.00    -0.089 HD
ENDBRANCH   7   8
BRANCH   7  13
ATOM     12  C   LIG    1       -2.603   5.069  -1.356  0.00  0.00    +0.006 C 
ATOM     13  C   LIG    1       -1.927   3.688  -1.269  0.00  0.00    -0.021 C 
ATOM     14  C   LIG    1       -2.157   2.926  -2.593  0.00  0.00    +0.006 C 
ENDBRANCH   7  13
ENDBRANCH   5   7
ENDBRANCH   4   5
ENDBRANCH   3   4
ENDBRANCH   2   3
ENDBRANCH   1   2
BRANCH   1  15
ATOM     15  C   LIG    1        1.611  -2.443  -1.268  0.00  0.00    +0.161 C 
BRANCH  15  16
ATOM     16  O   LIG    1        2.023  -1.895  -2.506  0.00  0.00    -0.395 OA
ATOM     17  H   LIG    1        1.784  -2.507  -3.206  0.00  0.00    +0.209 HD
ENDBRANCH  15  16
ENDBRANCH   1  15
BRANCH   1  18
ATOM     18  C   LIG    1        3.530  -1.441   0.090  0.00  0.00    +0.130 C 
BRANCH  18  19
ATOM     19  N   LIG    1        3.932  -0.724   1.314  0.00  0.00    -0.314 N 
ATOM     20  C   LIG    1        3.772  -1.133   2.607  0.00  0.00    +0.169 A 
ATOM     21  N   LIG    1        3.211  -2.299   3.042  0.00  0.00    -0.196 NA
ATOM     22  C   LIG    1        3.193  -2.401   4.330  0.00  0.00    +0.195 A 
ATOM     23  N   LIG    1        3.695  -1.417   5.169  0.00  0.00    -0.293 N 
ATOM     24  H   LIG    1        3.640  -1.582   6.164  0.00  0.00    +0.172 HD
ATOM     25  C   LIG    1        4.268  -0.221   4.813  0.00  0.00    +0.280 A 
ATOM     26  O   LIG    1        4.675   0.591   5.643  0.00  0.00    -0.265 OA
ATOM     27  C   LIG    1        4.288  -0.119   3.368  0.00  0.00    +0.172 A 
ATOM     28  N   LIG    1        4.761   0.880   2.605  0.00  0.00    -0.229 NA
ATOM     29  C   LIG    1        4.535   0.481   1.375  0.00  0.00    +0.201 A 
BRANCH  22  30
ATOM     30  N   LIG    1        2.679  -3.482   4.930  0.00  0.00    -0.329 N 
ATOM     31  H   LIG    1        2.671  -3.560   5.937  0.00  0.00    +0.145 HD
ATOM     32  H   LIG    1        2.299  -4.237   4.377  0.00  0.00    +0.145 HD
ENDBRANCH  22  30
ENDBRANCH  18  19
ENDBRANCH   1  18
TORSDOF 12
