REMARK  Name = DB06656
REMARK                            x       y       z     vdW  Elec       q    Type
REMARK                         _______ _______ _______ _____ _____    ______ ____
ROOT
ATOM      1  C   LIG    1        1.385  -0.153   0.107  0.00  0.00    +0.256 C 
ATOM      2  O   LIG    1        1.809  -1.384  -0.403  0.00  0.00    -0.344 OA
ATOM      3  C   LIG    1        3.069  -1.788   0.136  0.00  0.00    +0.193 C 
ATOM      4  C   LIG    1        3.403  -0.683   1.185  0.00  0.00    +0.184 C 
ATOM      5  C   LIG    1        2.015  -0.097   1.503  0.00  0.00    +0.210 C 
ENDROOT
BRANCH   1  10
ATOM      6  N   LIG    1       -2.018   1.400   0.085  0.00  0.00    -0.178 NA
ATOM      7  C   LIG    1       -2.782   0.369  -0.031  0.00  0.00    +0.123 A 
ATOM      8  C   LIG    1       -2.234  -0.950  -0.148  0.00  0.00    +0.061 A 
ATOM      9  C   LIG    1       -0.898  -1.057  -0.124  0.00  0.00    +0.096 A 
ATOM     10  N   LIG    1       -0.067   0.035   0.000  0.00  0.00    -0.270 N 
ATOM     11  C   LIG    1       -0.607   1.314   0.085  0.00  0.00    +0.352 A 
ATOM     12  O   LIG    1        0.145   2.289   0.131  0.00  0.00    -0.244 OA
BRANCH   7  13
ATOM     13  N   LIG    1       -4.116   0.493  -0.042  0.00  0.00    -0.343 N 
ATOM     14  H   LIG    1       -4.542   1.404   0.039  0.00  0.00    +0.144 HD
ATOM     15  H   LIG    1       -4.708  -0.320  -0.132  0.00  0.00    +0.144 HD
ENDBRANCH   7  13
ENDBRANCH   1  10
BRANCH   4  16
ATOM     16  O   LIG    1        4.276   0.286   0.619  0.00  0.00    -0.372 OA
ATOM     17  H   LIG    1        3.874   0.626  -0.184  0.00  0.00    +0.212 HD
ENDBRANCH   4  16
BRANCH   4  18
ATOM     18  C   LIG    1        4.073  -1.165   2.417  0.00  0.00    -0.065 C 
ATOM     19  C   LIG    1        4.611  -1.559   3.441  0.00  0.00    +0.007 C 
ENDBRANCH   4  18
BRANCH   5  20
ATOM     20  O   LIG    1        1.971   1.198   2.079  0.00  0.00    -0.383 OA
ATOM     21  H   LIG    1        2.470   1.800   1.521  0.00  0.00    +0.210 HD
ENDBRANCH   5  20
BRANCH   3  22
ATOM     22  C   LIG    1        2.882  -3.243   0.639  0.00  0.00    +0.191 C 
BRANCH  22  23
ATOM     23  O   LIG    1        2.542  -4.106  -0.428  0.00  0.00    -0.392 OA
ATOM     24  H   LIG    1        1.680  -3.850  -0.765  0.00  0.00    +0.210 HD
ENDBRANCH  22  23
ENDBRANCH   3  22
TORSDOF 7
