REMARK  Name = DB06699
REMARK                            x       y       z     vdW  Elec       q    Type
REMARK                         _______ _______ _______ _____ _____    ______ ____
ROOT
ATOM      1  C   LIG    1       -2.203   1.470  -0.524  0.00  0.00    +0.163 C 
ENDROOT
BRANCH   1   4
ATOM      2  N   LIG    1       -0.028   0.366  -0.726  0.00  0.00    -0.302 N 
ATOM      3  H   LIG    1       -0.511  -0.251  -1.362  0.00  0.00    +0.150 HD
ATOM      4  C   LIG    1       -0.716   1.346  -0.114  0.00  0.00    +0.234 C 
ATOM      5  O   LIG    1       -0.225   2.155   0.676  0.00  0.00    -0.274 OA
BRANCH   2   6
ATOM      6  C   LIG    1        1.413   0.154  -0.609  0.00  0.00    +0.163 C 
BRANCH   6   9
ATOM      7  N   LIG    1        2.856   0.127   1.354  0.00  0.00    -0.302 N 
ATOM      8  H   LIG    1        3.348   0.869   0.878  0.00  0.00    +0.150 HD
ATOM      9  C   LIG    1        1.780  -0.423   0.769  0.00  0.00    +0.234 C 
ATOM     10  O   LIG    1        1.111  -1.339   1.250  0.00  0.00    -0.274 OA
BRANCH   7  11
ATOM     11  C   LIG    1        3.371  -0.226   2.675  0.00  0.00    +0.159 C 
BRANCH  11  14
ATOM     12  N   LIG    1        1.954  -0.695   4.606  0.00  0.00    -0.302 N 
ATOM     13  H   LIG    1        2.283  -1.641   4.486  0.00  0.00    +0.150 HD
ATOM     14  C   LIG    1        2.407   0.255   3.772  0.00  0.00    +0.234 C 
ATOM     15  O   LIG    1        2.086   1.443   3.818  0.00  0.00    -0.274 OA
BRANCH  12  16
ATOM     16  C   LIG    1        0.958  -0.511   5.663  0.00  0.00    +0.159 C 
BRANCH  16  22
ATOM     17  N   LIG    1        0.809   1.550   7.067  0.00  0.00    -0.288 N 
ATOM     18  C   LIG    1       -0.228   2.166   6.244  0.00  0.00    +0.109 C 
ATOM     19  C   LIG    1       -0.240   3.622   6.678  0.00  0.00    +0.021 C 
ATOM     20  C   LIG    1        0.069   3.538   8.163  0.00  0.00    +0.033 C 
ATOM     21  C   LIG    1        1.000   2.313   8.318  0.00  0.00    +0.162 C 
ATOM     22  C   LIG    1        1.493   0.412   6.786  0.00  0.00    +0.237 C 
ATOM     23  O   LIG    1        2.492   0.047   7.409  0.00  0.00    -0.274 OA
BRANCH  21  24
ATOM     24  C   LIG    1        0.660   1.463   9.559  0.00  0.00    +0.234 C 
ATOM     25  O   LIG    1       -0.511   1.150   9.773  0.00  0.00    -0.274 OA
ATOM     26  N   LIG    1        1.709   1.065  10.302  0.00  0.00    -0.303 N 
ATOM     27  H   LIG    1        2.628   1.375  10.022  0.00  0.00    +0.149 HD
BRANCH  26  28
ATOM     28  C   LIG    1        1.697   0.156  11.456  0.00  0.00    +0.156 C 
ATOM     29  C   LIG    1        1.188  -1.242  11.039  0.00  0.00    +0.038 C 
BRANCH  28  30
ATOM     30  C   LIG    1        0.922   0.720  12.668  0.00  0.00    +0.231 C 
ATOM     31  N   LIG    1        1.653   1.189  13.683  0.00  0.00    -0.328 N 
ATOM     32  H   LIG    1        2.662   1.177  13.639  0.00  0.00    +0.145 HD
ATOM     33  H   LIG    1        1.196   1.559  14.504  0.00  0.00    +0.145 HD
ATOM     34  O   LIG    1       -0.308   0.705  12.691  0.00  0.00    -0.274 OA
ENDBRANCH  28  30
ENDBRANCH  26  28
ENDBRANCH  21  24
ENDBRANCH  16  22
BRANCH  16  35
ATOM     35  C   LIG    1        0.578  -1.891   6.249  0.00  0.00    +0.032 C 
BRANCH  35  36
ATOM     36  C   LIG    1       -0.571  -1.851   7.281  0.00  0.00    +0.003 C 
BRANCH  36  37
ATOM     37  C   LIG    1       -0.712  -3.158   8.078  0.00  0.00    +0.015 C 
BRANCH  37  38
ATOM     38  C   LIG    1       -1.874  -3.094   9.080  0.00  0.00    +0.081 C 
BRANCH  38  39
ATOM     39  N   LIG    1       -1.830  -4.238   9.985  0.00  0.00    -0.314 NA
ATOM     40  H   LIG    1       -0.914  -4.301  10.407  0.00  0.00    +0.122 HD
BRANCH  39  41
ATOM     41  C   LIG    1       -2.855  -4.240  11.030  0.00  0.00    +0.047 C 
ATOM     42  C   LIG    1       -2.688  -3.067  12.018  0.00  0.00    +0.023 C 
ATOM     43  C   LIG    1       -4.281  -4.341  10.453  0.00  0.00    +0.023 C 
ENDBRANCH  39  41
ENDBRANCH  38  39
ENDBRANCH  37  38
ENDBRANCH  36  37
ENDBRANCH  35  36
ENDBRANCH  16  35
ENDBRANCH  12  16
ENDBRANCH  11  14
BRANCH  11  44
ATOM     44  C   LIG    1        4.778   0.390   2.848  0.00  0.00    +0.034 C 
BRANCH  44  45
ATOM     45  C   LIG    1        5.836  -0.144   1.852  0.00  0.00    -0.015 C 
ATOM     46  C   LIG    1        7.143   0.673   1.932  0.00  0.00    +0.007 C 
ATOM     47  C   LIG    1        6.083  -1.659   2.013  0.00  0.00    +0.007 C 
ENDBRANCH  44  45
ENDBRANCH  11  44
ENDBRANCH   7  11
ENDBRANCH   6   9
BRANCH   6  48
ATOM     48  C   LIG    1        1.941  -0.728  -1.771  0.00  0.00    +0.067 C 
BRANCH  48  49
ATOM     49  C   LIG    1        3.464  -0.746  -1.862  0.00  0.00    -0.045 A 
ATOM     50  C   LIG    1        4.153   0.420  -2.200  0.00  0.00    +0.005 A 
ATOM     51  C   LIG    1        5.542   0.416  -2.269  0.00  0.00    +0.023 A 
ATOM     52  C   LIG    1        6.253  -0.764  -2.001  0.00  0.00    +0.035 A 
ATOM     53  C   LIG    1        5.558  -1.934  -1.685  0.00  0.00    +0.023 A 
ATOM     54  C   LIG    1        4.168  -1.924  -1.608  0.00  0.00    +0.005 A 
BRANCH  52  55
ATOM     55  N   LIG    1        7.654  -0.873  -2.064  0.00  0.00    -0.270 N 
ATOM     56  H   LIG    1        8.002  -1.820  -2.092  0.00  0.00    +0.156 HD
ATOM     57  C   LIG    1        8.577   0.107  -2.019  0.00  0.00    +0.301 C 
ATOM     58  N   LIG    1        9.812  -0.374  -2.156  0.00  0.00    -0.313 N 
ATOM     59  H   LIG    1        9.967  -1.360  -2.306  0.00  0.00    +0.146 HD
ATOM     60  H   LIG    1       10.602   0.255  -2.130  0.00  0.00    +0.146 HD
ATOM     61  O   LIG    1        8.361   1.307  -1.859  0.00  0.00    -0.253 OA
ENDBRANCH  52  55
ENDBRANCH  48  49
ENDBRANCH   6  48
ENDBRANCH   2   6
ENDBRANCH   1   4
BRANCH   1  62
ATOM     62  N   LIG    1       -3.012   1.926   0.609  0.00  0.00    -0.302 N 
ATOM     63  H   LIG    1       -3.316   2.888   0.568  0.00  0.00    +0.150 HD
ATOM     64  C   LIG    1       -3.241   1.217   1.728  0.00  0.00    +0.236 C 
ATOM     65  O   LIG    1       -2.912   0.040   1.887  0.00  0.00    -0.274 OA
BRANCH  64  66
ATOM     66  CA  LIG    1       -3.891   1.993   2.888  0.00  0.00    +0.184 C 
BRANCH  66  67
ATOM     67  N   LIG    1       -4.759   1.135   3.691  0.00  0.00    -0.301 N 
ATOM     68  H   LIG    1       -4.368   0.818   4.566  0.00  0.00    +0.150 HD
ATOM     69  C   LIG    1       -6.000   0.749   3.357  0.00  0.00    +0.234 C 
ATOM     70  O   LIG    1       -6.561   1.076   2.310  0.00  0.00    -0.274 OA
BRANCH  69  71
ATOM     71  CA  LIG    1       -6.704  -0.164   4.386  0.00  0.00    +0.163 C 
BRANCH  71  72
ATOM     72  N   LIG    1       -7.928  -0.783   3.866  0.00  0.00    -0.302 N 
ATOM     73  H   LIG    1       -7.863  -1.778   3.712  0.00  0.00    +0.150 HD
ATOM     74  C   LIG    1       -9.119  -0.190   3.666  0.00  0.00    +0.234 C 
ATOM     75  O   LIG    1       -9.332   1.014   3.815  0.00  0.00    -0.274 OA
BRANCH  74  76
ATOM     76  CA  LIG    1      -10.266  -1.155   3.292  0.00  0.00    +0.163 C 
BRANCH  76  77
ATOM     77  N   LIG    1      -11.197  -0.579   2.314  0.00  0.00    -0.302 N 
ATOM     78  H   LIG    1      -11.106  -0.957   1.382  0.00  0.00    +0.150 HD
ATOM     79  C   LIG    1      -12.145   0.355   2.518  0.00  0.00    +0.234 C 
ATOM     80  O   LIG    1      -12.370   0.895   3.601  0.00  0.00    -0.274 OA
BRANCH  79  81
ATOM     81  CA  LIG    1      -12.992   0.708   1.275  0.00  0.00    +0.163 C 
BRANCH  81  82
ATOM     82  N   LIG    1      -13.404   2.119   1.255  0.00  0.00    -0.304 N 
ATOM     83  H   LIG    1      -12.874   2.700   0.621  0.00  0.00    +0.149 HD
ATOM     84  C   LIG    1      -14.371   2.706   1.984  0.00  0.00    +0.211 C 
ATOM     85  C   LIG    1      -14.570   4.202   1.766  0.00  0.00    +0.109 C 
ATOM     86  O   LIG    1      -15.082   2.113   2.795  0.00  0.00    -0.276 OA
ENDBRANCH  81  82
BRANCH  81  87
ATOM     87  C   LIG    1      -14.176  -0.281   1.054  0.00  0.00    +0.067 C 
BRANCH  87  88
ATOM     88  C   LIG    1      -13.719  -1.692   0.691  0.00  0.00    -0.045 A 
ATOM     89  C   LIG    1      -13.726  -2.698   1.656  0.00  0.00    +0.004 A 
ATOM     90  C   LIG    1      -13.285  -3.983   1.352  0.00  0.00    +0.009 A 
ATOM     91  C   LIG    1      -12.825  -4.291   0.049  0.00  0.00    -0.018 A 
ATOM     92  C   LIG    1      -12.366  -5.588  -0.293  0.00  0.00    +0.008 A 
ATOM     93  C   LIG    1      -11.918  -5.857  -1.584  0.00  0.00    +0.001 A 
ATOM     94  C   LIG    1      -11.916  -4.860  -2.554  0.00  0.00    +0.001 A 
ATOM     95  C   LIG    1      -12.360  -3.576  -2.251  0.00  0.00    +0.008 A 
ATOM     96  C   LIG    1      -12.822  -3.267  -0.947  0.00  0.00    -0.018 A 
ATOM     97  C   LIG    1      -13.278  -1.970  -0.604  0.00  0.00    +0.012 A 
ENDBRANCH  87  88
ENDBRANCH  81  87
ENDBRANCH  79  81
ENDBRANCH  76  77
BRANCH  76  98
ATOM     98  C   LIG    1      -10.976  -1.740   4.552  0.00  0.00    +0.067 C 
BRANCH  98  99
ATOM     99  C   LIG    1      -10.049  -2.530   5.478  0.00  0.00    -0.045 A 
ATOM    100  C   LIG    1       -9.886  -2.123   6.806  0.00  0.00    +0.005 A 
ATOM    101  C   LIG    1       -8.997  -2.797   7.638  0.00  0.00    +0.020 A 
ATOM    102  C   LIG    1       -8.278  -3.885   7.146  0.00  0.00    +0.041 A 
ATOM    103  C   LIG    1       -8.451  -4.309   5.829  0.00  0.00    +0.020 A 
ATOM    104 CL   LIG    1       -7.161  -4.707   8.172  0.00  0.00    -0.084 Cl
ATOM    105  C   LIG    1       -9.339  -3.635   4.996  0.00  0.00    +0.005 A 
ENDBRANCH  98  99
ENDBRANCH  76  98
ENDBRANCH  74  76
ENDBRANCH  71  72
BRANCH  71 106
ATOM    106  C   LIG    1       -6.937   0.536   5.761  0.00  0.00    +0.068 C 
BRANCH 106 107
ATOM    107  C   LIG    1       -5.731   0.446   6.689  0.00  0.00    -0.027 A 
ATOM    108  C   LIG    1       -4.909   1.554   6.928  0.00  0.00    +0.006 A 
ATOM    109  C   LIG    1       -3.816   1.430   7.788  0.00  0.00    +0.020 A 
ATOM    110  C   LIG    1       -3.583   0.194   8.393  0.00  0.00    +0.111 A 
ATOM    111  N   LIG    1       -4.370  -0.891   8.182  0.00  0.00    -0.263 NA
ATOM    112  C   LIG    1       -5.425  -0.754   7.340  0.00  0.00    +0.114 A 
ENDBRANCH 106 107
ENDBRANCH  71 106
ENDBRANCH  69  71
ENDBRANCH  66  67
BRANCH  66 113
ATOM    113  C   LIG    1       -2.827   2.589   3.833  0.00  0.00    +0.187 C 
BRANCH 113 114
ATOM    114  O   LIG    1       -1.951   3.484   3.176  0.00  0.00    -0.393 OA
ATOM    115  H   LIG    1       -1.365   2.978   2.607  0.00  0.00    +0.209 HD
ENDBRANCH 113 114
ENDBRANCH  66 113
ENDBRANCH  64  66
ENDBRANCH   1  62
BRANCH   1 116
ATOM    116  C   LIG    1       -2.410   2.398  -1.762  0.00  0.00    +0.067 C 
BRANCH 116 117
ATOM    117  C   LIG    1       -1.465   2.081  -2.923  0.00  0.00    -0.045 A 
ATOM    118  C   LIG    1       -1.651   0.925  -3.682  0.00  0.00    +0.005 A 
ATOM    119  C   LIG    1       -0.690   0.546  -4.615  0.00  0.00    +0.023 A 
ATOM    120  C   LIG    1        0.462   1.317  -4.793  0.00  0.00    +0.033 A 
ATOM    121  C   LIG    1        0.605   2.522  -4.087  0.00  0.00    +0.023 A 
ATOM    122  C   LIG    1       -0.355   2.898  -3.154  0.00  0.00    +0.005 A 
BRANCH 120 123
ATOM    123  N   LIG    1        1.428   0.791  -5.672  0.00  0.00    -0.284 N 
ATOM    124  H   LIG    1        1.092   0.039  -6.255  0.00  0.00    +0.155 HD
ATOM    125  C   LIG    1        2.752   1.062  -5.742  0.00  0.00    +0.238 C 
ATOM    126  O   LIG    1        3.317   1.920  -5.060  0.00  0.00    -0.273 OA
BRANCH 125 127
ATOM    127  C   LIG    1        3.570   0.201  -6.747  0.00  0.00    +0.169 C 
ATOM    128  C   LIG    1        3.304  -1.335  -6.593  0.00  0.00    +0.128 C 
ATOM    129  C   LIG    1        4.191  -1.995  -5.515  0.00  0.00    +0.223 C 
ATOM    130  O   LIG    1        3.885  -3.023  -4.915  0.00  0.00    -0.275 OA
ATOM    131  N   LIG    1        5.368  -1.357  -5.326  0.00  0.00    -0.240 N 
ATOM    132  H   LIG    1        5.982  -1.810  -4.666  0.00  0.00    +0.159 HD
ATOM    133  C   LIG    1        5.867  -0.209  -5.848  0.00  0.00    +0.306 C 
ATOM    134  O   LIG    1        6.989   0.203  -5.566  0.00  0.00    -0.252 OA
ATOM    135  N   LIG    1        5.022   0.480  -6.655  0.00  0.00    -0.287 N 
ATOM    136  H   LIG    1        5.351   1.366  -7.012  0.00  0.00    +0.151 HD
ENDBRANCH 125 127
ENDBRANCH 120 123
ENDBRANCH 116 117
ENDBRANCH   1 116
TORSDOF 42
