REMARK  Name = DB06193
REMARK                            x       y       z     vdW  Elec       q    Type
REMARK                         _______ _______ _______ _____ _____    ______ ____
ROOT
ATOM      1  C   LIG    1       -0.707   1.199  -0.263  0.00  0.00    +0.056 A 
ATOM      2  C   LIG    1        0.040  -0.001  -0.085  0.00  0.00    +0.039 A 
ATOM      3  C   LIG    1       -0.636  -1.214   0.054  0.00  0.00    +0.025 A 
ATOM      4  C   LIG    1       -2.013  -1.274   0.034  0.00  0.00    +0.025 A 
ATOM      5  C   LIG    1       -2.788  -0.125  -0.129  0.00  0.00    +0.039 A 
ATOM      6  C   LIG    1       -0.007   2.548  -0.410  0.00  0.00    +0.198 C 
ATOM      7  O   LIG    1        1.205   2.668  -0.606  0.00  0.00    -0.286 OA
ATOM      8  C   LIG    1       -0.835   3.761  -0.135  0.00  0.00    +0.051 A 
ATOM      9  C   LIG    1       -0.232   4.996   0.158  0.00  0.00    +0.123 A 
ATOM     10  N   LIG    1       -0.929   6.129   0.419  0.00  0.00    -0.263 NA
ATOM     11  C   LIG    1       -2.280   6.055   0.393  0.00  0.00    +0.111 A 
ATOM     12  C   LIG    1       -2.968   4.875   0.113  0.00  0.00    +0.032 A 
ATOM     13  C   LIG    1       -2.240   3.703  -0.156  0.00  0.00    +0.036 A 
ATOM     14  C   LIG    1       -2.949   2.422  -0.455  0.00  0.00    +0.196 C 
ATOM     15  O   LIG    1       -4.160   2.436  -0.690  0.00  0.00    -0.287 OA
ATOM     16  C   LIG    1       -2.141   1.137  -0.285  0.00  0.00    +0.056 A 
ENDROOT
BRANCH   2  17
ATOM     17  N   LIG    1        1.454  -0.002  -0.028  0.00  0.00    -0.342 N 
ATOM     18  H   LIG    1        1.914   0.847  -0.325  0.00  0.00    +0.146 HD
BRANCH  17  19
ATOM     19  C   LIG    1        2.265  -1.217  -0.039  0.00  0.00    +0.116 C 
BRANCH  19  20
ATOM     20  C   LIG    1        3.778  -0.948   0.044  0.00  0.00    +0.096 C 
BRANCH  20  21
ATOM     21  N   LIG    1        4.270  -0.286  -1.152  0.00  0.00    -0.329 NA
ATOM     22  H   LIG    1        4.103  -0.871  -1.958  0.00  0.00    +0.118 HD
ATOM     23  H   LIG    1        5.271  -0.166  -1.087  0.00  0.00    +0.118 HD
ENDBRANCH  20  21
ENDBRANCH  19  20
ENDBRANCH  17  19
ENDBRANCH   2  17
BRANCH   5  24
ATOM     24  N   LIG    1       -4.198  -0.241  -0.110  0.00  0.00    -0.342 N 
ATOM     25  H   LIG    1       -4.719   0.616   0.018  0.00  0.00    +0.146 HD
BRANCH  24  26
ATOM     26  C   LIG    1       -4.943  -1.486   0.074  0.00  0.00    +0.116 C 
BRANCH  26  27
ATOM     27  C   LIG    1       -5.216  -1.837   1.549  0.00  0.00    +0.096 C 
BRANCH  27  28
ATOM     28  N   LIG    1       -6.096  -0.866   2.175  0.00  0.00    -0.329 NA
ATOM     29  H   LIG    1       -6.274  -1.134   3.132  0.00  0.00    +0.118 HD
ATOM     30  H   LIG    1       -6.991  -0.865   1.706  0.00  0.00    +0.118 HD
ENDBRANCH  27  28
ENDBRANCH  26  27
ENDBRANCH  24  26
ENDBRANCH   5  24
TORSDOF 8
