REMARK  Name = DB06494
REMARK                            x       y       z     vdW  Elec       q    Type
REMARK                         _______ _______ _______ _____ _____    ______ ____
ROOT
ATOM      1  C   LIG    1        1.318  -0.206  -0.166  0.00  0.00    -0.035 A 
ATOM      2  C   LIG    1        1.995   0.270  -1.301  0.00  0.00    +0.023 A 
ATOM      3  S   LIG    1        3.701  -0.030  -1.258  0.00  0.00    -0.070 S 
ATOM      4  C   LIG    1        3.542  -0.736   0.316  0.00  0.00    +0.098 A 
ATOM      5  N   LIG    1        4.591  -1.226   1.087  0.00  0.00    -0.282 N 
ATOM      6  C   LIG    1        4.344  -2.002   2.192  0.00  0.00    +0.338 A 
ATOM      7  O   LIG    1        5.238  -2.657   2.743  0.00  0.00    -0.246 OA
ATOM      8  N   LIG    1        3.031  -1.951   2.652  0.00  0.00    -0.228 N 
ATOM      9  C   LIG    1        1.914  -1.349   2.079  0.00  0.00    +0.270 A 
ATOM     10  O   LIG    1        0.814  -1.297   2.638  0.00  0.00    -0.266 OA
ATOM     11  C   LIG    1        2.223  -0.796   0.761  0.00  0.00    +0.073 A 
ENDROOT
BRANCH   2  12
ATOM     12  C   LIG    1        1.441   0.990  -2.479  0.00  0.00    -0.011 A 
ATOM     13  C   LIG    1        0.550   0.350  -3.341  0.00  0.00    +0.011 A 
ATOM     14  C   LIG    1        0.000   1.042  -4.418  0.00  0.00    +0.024 A 
ATOM     15  C   LIG    1        0.341   2.387  -4.637  0.00  0.00    +0.035 A 
ATOM     16  C   LIG    1        1.230   3.021  -3.766  0.00  0.00    +0.024 A 
ATOM     17  C   LIG    1        1.779   2.328  -2.692  0.00  0.00    +0.011 A 
BRANCH  15  18
ATOM     18  N   LIG    1       -0.155   3.184  -5.687  0.00  0.00    -0.268 N 
ATOM     19  H   LIG    1        0.154   4.145  -5.656  0.00  0.00    +0.156 HD
ATOM     20  C   LIG    1       -0.945   2.851  -6.727  0.00  0.00    +0.327 C 
ATOM     21  N   LIG    1       -1.171   3.926  -7.502  0.00  0.00    -0.178 N 
ATOM     22  H   LIG    1       -0.956   4.873  -7.226  0.00  0.00    +0.184 HD
ATOM     23  O   LIG    1       -1.396   1.728  -6.960  0.00  0.00    -0.250 OA
BRANCH  21  24
ATOM     24  O   LIG    1       -2.193   3.874  -8.450  0.00  0.00    -0.282 OA
ATOM     25  C   LIG    1       -1.636   3.766  -9.752  0.00  0.00    +0.226 C 
ENDBRANCH  21  24
ENDBRANCH  15  18
ENDBRANCH   2  12
BRANCH   8  26
ATOM     26  C   LIG    1        2.815  -2.551   3.922  0.00  0.00    +0.054 A 
ATOM     27  C   LIG    1        2.353  -3.871   3.999  0.00  0.00    +0.026 A 
ATOM     28  C   LIG    1        2.140  -4.456   5.244  0.00  0.00    +0.002 A 
ATOM     29  C   LIG    1        2.390  -3.724   6.404  0.00  0.00    +0.000 A 
ATOM     30  C   LIG    1        2.852  -2.412   6.333  0.00  0.00    +0.002 A 
ATOM     31  C   LIG    1        3.065  -1.821   5.091  0.00  0.00    +0.026 A 
ENDBRANCH   8  26
BRANCH   1  32
ATOM     32  C   LIG    1       -0.195  -0.074  -0.008  0.00  0.00    -0.041 C 
BRANCH  32  34
ATOM     33  C   LIG    1       -0.071   1.944   1.586  0.00  0.00    -0.095 C 
ATOM     34  N   LIG    1       -0.560   1.412   0.221  0.00  0.00    +0.383 N 
ATOM     35  H   LIG    1       -0.070   1.931  -0.493  0.00  0.00    -0.081 HD
BRANCH  34  36
ATOM     36  C   LIG    1       -2.061   1.696  -0.014  0.00  0.00    -0.043 C 
BRANCH  36  37
ATOM     37  C   LIG    1       -2.364   3.165  -0.264  0.00  0.00    -0.064 A 
ATOM     38  C   LIG    1       -2.087   3.723  -1.515  0.00  0.00    +0.002 A 
ATOM     39  C   LIG    1       -2.369   5.065  -1.755  0.00  0.00    +0.000 A 
ATOM     40  C   LIG    1       -2.933   5.842  -0.745  0.00  0.00    +0.000 A 
ATOM     41  C   LIG    1       -3.220   5.288   0.502  0.00  0.00    +0.000 A 
ATOM     42  C   LIG    1       -2.938   3.946   0.743  0.00  0.00    +0.002 A 
ENDBRANCH  36  37
ENDBRANCH  34  36
ENDBRANCH  32  34
ENDBRANCH   1  32
BRANCH   5  43
ATOM     43  C   LIG    1        5.991  -0.870   0.757  0.00  0.00    +0.168 C 
BRANCH  43  44
ATOM     44  C   LIG    1        6.344   0.605   0.964  0.00  0.00    +0.043 A 
ATOM     45  C   LIG    1        6.160   1.224   2.210  0.00  0.00    +0.131 A 
ATOM     46  F   LIG    1        5.674   0.528   3.263  0.00  0.00    -0.205 F 
ATOM     47  C   LIG    1        6.482   2.570   2.381  0.00  0.00    +0.039 A 
ATOM     48  C   LIG    1        6.996   3.309   1.316  0.00  0.00    +0.006 A 
ATOM     49  C   LIG    1        7.192   2.699   0.078  0.00  0.00    +0.039 A 
ATOM     50  C   LIG    1        6.872   1.353  -0.098  0.00  0.00    +0.131 A 
ATOM     51  F   LIG    1        7.071   0.783  -1.309  0.00  0.00    -0.205 F 
ENDBRANCH  43  44
ENDBRANCH   5  43
TORSDOF 10
