REMARK  Name = DB06083
REMARK                            x       y       z     vdW  Elec       q    Type
REMARK                         _______ _______ _______ _____ _____    ______ ____
ROOT
ATOM      1  C   LIG    1       -0.666   1.178  -0.033  0.00  0.00    +0.124 A 
ATOM      2  C   LIG    1        0.039  -0.042  -0.026  0.00  0.00    +0.038 A 
ATOM      3  C   LIG    1       -0.702  -1.239  -0.084  0.00  0.00    +0.124 A 
ATOM      4  C   LIG    1       -2.096  -1.210  -0.150  0.00  0.00    +0.053 A 
ATOM      5  C   LIG    1       -2.792   0.004  -0.157  0.00  0.00    -0.018 A 
ATOM      6  C   LIG    1       -2.060   1.191  -0.098  0.00  0.00    +0.053 A 
ENDROOT
BRANCH   2   7
ATOM      7  C   LIG    1        1.582  -0.056   0.043  0.00  0.00    +0.020 C 
ATOM      8  C   LIG    1        2.118  -0.700   1.337  0.00  0.00    +0.012 C 
ATOM      9  C   LIG    1        2.231  -0.645  -1.225  0.00  0.00    +0.012 C 
ENDBRANCH   2   7
BRANCH   1  10
ATOM     10  O   LIG    1       -0.023   2.389   0.022  0.00  0.00    -0.506 OA
ATOM     11  H   LIG    1       -0.628   3.134   0.017  0.00  0.00    +0.292 HD
ENDBRANCH   1  10
BRANCH   3  12
ATOM     12  O   LIG    1       -0.094  -2.468  -0.078  0.00  0.00    -0.506 OA
ATOM     13  H   LIG    1       -0.719  -3.195  -0.120  0.00  0.00    +0.292 HD
ENDBRANCH   3  12
BRANCH   5  14
ATOM     14  C   LIG    1       -4.266   0.081  -0.237  0.00  0.00    +0.009 C 
ATOM     15  C   LIG    1       -5.104  -0.913  -0.601  0.00  0.00    +0.008 C 
BRANCH  15  16
ATOM     16  C   LIG    1       -6.579  -0.837  -0.683  0.00  0.00    -0.025 A 
ATOM     17  C   LIG    1       -7.272   0.382  -0.640  0.00  0.00    +0.008 A 
ATOM     18  C   LIG    1       -8.662   0.404  -0.716  0.00  0.00    +0.001 A 
ATOM     19  C   LIG    1       -9.367  -0.791  -0.833  0.00  0.00    +0.000 A 
ATOM     20  C   LIG    1       -8.692  -2.008  -0.874  0.00  0.00    +0.001 A 
ATOM     21  C   LIG    1       -7.302  -2.029  -0.799  0.00  0.00    +0.008 A 
ENDBRANCH  15  16
ENDBRANCH   5  14
TORSDOF 5
