REMARK  Name = DB06405
REMARK                            x       y       z     vdW  Elec       q    Type
REMARK                         _______ _______ _______ _____ _____    ______ ____
ROOT
ATOM      1  C   LIG    1        0.027   0.038   0.000  0.00  0.00    +0.050 C 
ENDROOT
BRANCH   1   2
ATOM      2  C   LIG    1       -0.524   1.474   0.000  0.00  0.00    +0.199 C 
BRANCH   2   3
ATOM      3  S   LIG    1       -2.419   1.473   0.000  0.00  0.00    +0.080 S 
ATOM      4  O   LIG    1       -2.773   0.765   1.235  0.00  0.00    -0.147 OA
ATOM      5  O   LIG    1       -2.773   0.765  -1.235  0.00  0.00    -0.147 OA
BRANCH   3   6
ATOM      6  O   LIG    1       -2.760   2.900   0.000  0.00  0.00    -0.254 OA
ATOM      7  H   LIG    1       -2.496   3.296  -0.845  0.00  0.00    +0.244 HD
ENDBRANCH   3   6
ENDBRANCH   2   3
ENDBRANCH   1   2
BRANCH   1   8
ATOM      8  C   LIG    1        1.565  -0.002   0.000  0.00  0.00    +0.199 C 
BRANCH   8   9
ATOM      9  S   LIG    1        2.195  -1.789   0.000  0.00  0.00    +0.080 S 
ATOM     10  O   LIG    1        1.646  -2.360  -1.235  0.00  0.00    -0.147 OA
ATOM     11  O   LIG    1        1.646  -2.360   1.235  0.00  0.00    -0.147 OA
BRANCH   9  12
ATOM     12  O   LIG    1        3.654  -1.635   0.000  0.00  0.00    -0.254 OA
ATOM     13  H   LIG    1        3.939  -1.254   0.845  0.00  0.00    +0.244 HD
ENDBRANCH   9  12
ENDBRANCH   8   9
ENDBRANCH   1   8
TORSDOF 6
