REMARK  Name = DB06807
REMARK                            x       y       z     vdW  Elec       q    Type
REMARK                         _______ _______ _______ _____ _____    ______ ____
ROOT
ATOM      1  C   LIG    1       -0.029  -0.147   0.000  0.00  0.00    +0.101 A 
ATOM      2  C   LIG    1       -0.827  -1.316   0.000  0.00  0.00    +0.133 A 
ATOM      3  C   LIG    1       -2.221  -1.223   0.000  0.00  0.00    +0.069 A 
ATOM      4  C   LIG    1       -2.849   0.019   0.000  0.00  0.00    +0.028 A 
ATOM      5  C   LIG    1       -2.081   1.180   0.000  0.00  0.00    +0.024 A 
ATOM      6  C   LIG    1       -0.690   1.096   0.000  0.00  0.00    +0.020 A 
ENDROOT
BRANCH   4   7
ATOM      7  N   LIG    1       -4.240   0.100   0.000  0.00  0.00    -0.358 N 
ATOM      8  H   LIG    1       -4.687   1.005   0.000  0.00  0.00    +0.142 HD
ATOM      9  H   LIG    1       -4.786  -0.750   0.000  0.00  0.00    +0.142 HD
ENDBRANCH   4   7
BRANCH   1  10
ATOM     10  C   LIG    1        1.483  -0.202   0.000  0.00  0.00    +0.348 C 
ATOM     11  O   LIG    1        2.131  -1.254   0.000  0.00  0.00    -0.244 OA
BRANCH  10  12
ATOM     12  O   LIG    1        2.066   1.040   0.000  0.00  0.00    -0.422 OA
BRANCH  12  16
ATOM     13  C   LIG    1        6.200   1.453   0.000  0.00  0.00    +0.000 A 
ATOM     14  C   LIG    1        5.514   1.384   1.211  0.00  0.00    +0.004 A 
ATOM     15  C   LIG    1        4.129   1.241   1.212  0.00  0.00    +0.046 A 
ATOM     16  C   LIG    1        3.437   1.159   0.000  0.00  0.00    +0.132 A 
ATOM     17  C   LIG    1        4.129   1.241  -1.212  0.00  0.00    +0.046 A 
ATOM     18  C   LIG    1        5.514   1.384  -1.211  0.00  0.00    +0.004 A 
ENDBRANCH  12  16
ENDBRANCH  10  12
ENDBRANCH   1  10
BRANCH   2  19
ATOM     19  O   LIG    1       -0.296  -2.583   0.000  0.00  0.00    -0.506 OA
ATOM     20  H   LIG    1       -0.967  -3.269   0.000  0.00  0.00    +0.292 HD
ENDBRANCH   2  19
TORSDOF 5
