REMARK  Name = DB06134
REMARK                            x       y       z     vdW  Elec       q    Type
REMARK                         _______ _______ _______ _____ _____    ______ ____
ROOT
ATOM      1  C   LIG    1       -2.531   0.187  -0.344  0.00  0.00    +0.166 A 
ATOM      2  S   LIG    1       -1.221   0.989   0.449  0.00  0.00    -0.057 S 
ATOM      3  C   LIG    1       -0.115  -0.195  -0.210  0.00  0.00    +0.013 A 
ATOM      4  C   LIG    1       -0.884  -1.079  -0.972  0.00  0.00    +0.124 A 
ATOM      5  N   LIG    1       -2.182  -0.868  -1.040  0.00  0.00    -0.233 NA
ENDROOT
BRANCH   1   9
ATOM      6  N   LIG    1       -5.981   1.033  -0.333  0.00  0.00    -0.269 N 
ATOM      7  H   LIG    1       -5.753   1.812   0.266  0.00  0.00    +0.156 HD
ATOM      8  C   LIG    1       -4.947   0.260  -0.723  0.00  0.00    +0.310 C 
ATOM      9  N   LIG    1       -3.802   0.719  -0.175  0.00  0.00    -0.248 N 
ATOM     10  H   LIG    1       -3.861   1.533   0.419  0.00  0.00    +0.158 HD
ATOM     11  O   LIG    1       -5.026  -0.717  -1.469  0.00  0.00    -0.252 OA
BRANCH   6  17
ATOM     12  C   LIG    1       -9.543   1.941  -0.372  0.00  0.00    +0.003 A 
ATOM     13  C   LIG    1      -10.115   0.923  -1.133  0.00  0.00    +0.020 A 
ATOM     14  C   LIG    1       -9.313  -0.095  -1.649  0.00  0.00    +0.043 A 
ATOM     15 CL   LIG    1      -10.022  -1.358  -2.587  0.00  0.00    -0.083 Cl
ATOM     16  C   LIG    1       -7.937  -0.094  -1.407  0.00  0.00    +0.043 A 
ATOM     17  C   LIG    1       -7.352   0.932  -0.643  0.00  0.00    +0.036 A 
ATOM     18  C   LIG    1       -8.170   1.944  -0.129  0.00  0.00    +0.023 A 
ENDBRANCH   6  17
ENDBRANCH   1   9
BRANCH   3  19
ATOM     19  C   LIG    1        1.377  -0.190   0.056  0.00  0.00    +0.062 C 
BRANCH  19  20
ATOM     20  C   LIG    1        1.763  -0.124   1.544  0.00  0.00    +0.108 C 
BRANCH  20  21
ATOM     21  N   LIG    1        1.521  -1.370   2.265  0.00  0.00    -0.328 N 
ATOM     22  H   LIG    1        0.560  -1.615   2.458  0.00  0.00    +0.147 HD
BRANCH  21  23
ATOM     23  C   LIG    1        2.474  -2.400   2.336  0.00  0.00    +0.136 A 
ATOM     24  N   LIG    1        3.729  -2.213   1.845  0.00  0.00    -0.220 NA
ATOM     25  C   LIG    1        4.599  -3.247   1.949  0.00  0.00    +0.223 A 
ATOM     26  N   LIG    1        4.365  -4.467   2.495  0.00  0.00    -0.235 NA
ATOM     27  C   LIG    1        3.130  -4.654   2.979  0.00  0.00    +0.083 A 
ATOM     28  C   LIG    1        2.661  -5.847   3.592  0.00  0.00    +0.036 A 
ATOM     29  C   LIG    1        1.344  -5.741   3.987  0.00  0.00    +0.048 A 
ATOM     30  S   LIG    1        0.620  -4.188   3.636  0.00  0.00    -0.092 S 
ATOM     31  C   LIG    1        2.134  -3.634   2.922  0.00  0.00    +0.077 A 
ENDBRANCH  21  23
ENDBRANCH  20  21
ENDBRANCH  19  20
ENDBRANCH   3  19
TORSDOF 6
