REMARK  Name = DB06447
REMARK                            x       y       z     vdW  Elec       q    Type
REMARK                         _______ _______ _______ _____ _____    ______ ____
ROOT
ATOM      1  C   LIG    1        4.467   0.566  -0.489  0.00  0.00    +0.192 C 
ATOM      2  C   LIG    1        3.694   1.646  -1.285  0.00  0.00    +0.179 C 
ATOM      3  O   LIG    1        2.284   1.425  -1.154  0.00  0.00    -0.341 OA
ATOM      4  C   LIG    1        1.827   1.568   0.167  0.00  0.00    +0.273 C 
ATOM      5  C   LIG    1        2.416   0.444   1.034  0.00  0.00    +0.160 C 
ATOM      6  C   LIG    1        3.961   0.485   0.962  0.00  0.00    +0.175 C 
ENDROOT
BRANCH   5   7
ATOM      7  N   LIG    1        1.898   0.444   2.407  0.00  0.00    -0.305 N 
ATOM      8  H   LIG    1        1.917   1.338   2.875  0.00  0.00    +0.149 HD
ATOM      9  C   LIG    1        1.420  -0.611   3.095  0.00  0.00    +0.221 C 
ATOM     10  O   LIG    1        1.305  -1.740   2.616  0.00  0.00    -0.275 OA
BRANCH   9  11
ATOM     11  C   LIG    1        0.994  -0.356   4.551  0.00  0.00    +0.170 C 
BRANCH  11  12
ATOM     12  C   LIG    1        2.076   0.288   5.428  0.00  0.00    +0.142 C 
ATOM     13  O   LIG    1        2.916  -0.408   5.999  0.00  0.00    -0.297 OA
BRANCH  12  14
ATOM     14  C   LIG    1        2.120   1.825   5.476  0.00  0.00    +0.075 C 
BRANCH  14  15
ATOM     15  C   LIG    1        3.538   2.440   5.519  0.00  0.00    +0.007 C 
BRANCH  15  16
ATOM     16  C   LIG    1        4.226   2.399   6.898  0.00  0.00    +0.000 C 
BRANCH  16  17
ATOM     17  C   LIG    1        5.715   2.778   6.824  0.00  0.00    +0.000 C 
BRANCH  17  18
ATOM     18  C   LIG    1        6.386   2.875   8.207  0.00  0.00    +0.000 C 
BRANCH  18  19
ATOM     19  C   LIG    1        7.925   2.931   8.157  0.00  0.00    +0.000 C 
BRANCH  19  20
ATOM     20  C   LIG    1        8.509   4.146   7.411  0.00  0.00    -0.000 C 
BRANCH  20  21
ATOM     21  C   LIG    1       10.047   4.126   7.365  0.00  0.00    -0.000 C 
BRANCH  21  22
ATOM     22  C   LIG    1       10.648   5.311   6.587  0.00  0.00    -0.000 C 
BRANCH  22  23
ATOM     23  C   LIG    1       12.177   5.235   6.404  0.00  0.00    -0.003 C 
ATOM     24  C   LIG    1       12.976   5.319   7.713  0.00  0.00    +0.004 C 
ENDBRANCH  22  23
ENDBRANCH  21  22
ENDBRANCH  20  21
ENDBRANCH  19  20
ENDBRANCH  18  19
ENDBRANCH  17  18
ENDBRANCH  16  17
ENDBRANCH  15  16
ENDBRANCH  14  15
ENDBRANCH  12  14
ENDBRANCH  11  12
ENDBRANCH   9  11
ENDBRANCH   5   7
BRANCH   1  25
ATOM     25  O   LIG    1        5.850   0.878  -0.472  0.00  0.00    -0.278 OA
BRANCH  25  26
ATOM     26  P   LIG    1        7.080  -0.286  -0.953  0.00  0.00    +0.473 P 
ATOM     27  O   LIG    1        8.416   0.471  -0.855  0.00  0.00    -0.228 OA
BRANCH  26  28
ATOM     28  O   LIG    1        6.731  -0.700  -2.395  0.00  0.00    -0.303 OA
ATOM     29  H   LIG    1        5.883  -1.171  -2.400  0.00  0.00    +0.222 HD
ENDBRANCH  26  28
BRANCH  26  30
ATOM     30  O   LIG    1        6.980  -1.453   0.047  0.00  0.00    -0.303 OA
ATOM     31  H   LIG    1        6.123  -1.894  -0.056  0.00  0.00    +0.222 HD
ENDBRANCH  26  30
ENDBRANCH  25  26
ENDBRANCH   1  25
BRANCH   2  32
ATOM     32  C   LIG    1        4.043   1.658  -2.785  0.00  0.00    +0.193 C 
BRANCH  32  33
ATOM     33  O   LIG    1        5.372   2.127  -2.969  0.00  0.00    -0.380 OA
ATOM     34  C   LIG    1        5.813   2.073  -4.316  0.00  0.00    +0.194 C 
ENDBRANCH  32  33
ENDBRANCH   2  32
BRANCH   4  35
ATOM     35  O   LIG    1        0.441   1.425   0.210  0.00  0.00    -0.347 OA
BRANCH  35  36
ATOM     36  C   LIG    1       -0.306   2.537  -0.264  0.00  0.00    +0.197 C 
BRANCH  36  37
ATOM     37  C   LIG    1       -1.801   2.164  -0.315  0.00  0.00    +0.178 C 
ATOM     38  C   LIG    1       -2.143   1.160  -1.451  0.00  0.00    +0.176 C 
ATOM     39  C   LIG    1       -3.673   0.970  -1.589  0.00  0.00    +0.174 C 
ATOM     40  C   LIG    1       -4.397   2.341  -1.687  0.00  0.00    +0.161 C 
ATOM     41  C   LIG    1       -3.955   3.238  -0.504  0.00  0.00    +0.285 C 
ATOM     42  O   LIG    1       -2.534   3.377  -0.499  0.00  0.00    -0.341 OA
BRANCH  40  43
ATOM     43  N   LIG    1       -5.852   2.229  -1.825  0.00  0.00    -0.305 N 
ATOM     44  H   LIG    1       -6.264   1.408  -1.406  0.00  0.00    +0.149 HD
ATOM     45  C   LIG    1       -6.687   3.201  -2.233  0.00  0.00    +0.221 C 
ATOM     46  O   LIG    1       -6.309   4.310  -2.614  0.00  0.00    -0.275 OA
BRANCH  45  47
ATOM     47  C   LIG    1       -8.183   2.868  -2.196  0.00  0.00    +0.170 C 
BRANCH  47  48
ATOM     48  C   LIG    1       -8.712   2.096  -3.413  0.00  0.00    +0.142 C 
ATOM     49  O   LIG    1       -9.586   2.581  -4.134  0.00  0.00    -0.297 OA
BRANCH  48  50
ATOM     50  C   LIG    1       -8.131   0.697  -3.673  0.00  0.00    +0.075 C 
BRANCH  50  51
ATOM     51  C   LIG    1       -8.846  -0.117  -4.771  0.00  0.00    +0.007 C 
BRANCH  51  52
ATOM     52  C   LIG    1       -8.135  -1.448  -5.075  0.00  0.00    +0.000 C 
BRANCH  52  53
ATOM     53  C   LIG    1       -8.876  -2.293  -6.131  0.00  0.00    +0.000 C 
BRANCH  53  54
ATOM     54  C   LIG    1       -8.089  -3.515  -6.645  0.00  0.00    +0.000 C 
BRANCH  54  55
ATOM     55  C   LIG    1       -7.776  -4.578  -5.574  0.00  0.00    +0.000 C 
BRANCH  55  56
ATOM     56  C   LIG    1       -7.114  -5.837  -6.164  0.00  0.00    -0.000 C 
BRANCH  56  57
ATOM     57  C   LIG    1       -6.734  -6.877  -5.096  0.00  0.00    -0.000 C 
BRANCH  57  58
ATOM     58  C   LIG    1       -6.145  -8.166  -5.694  0.00  0.00    -0.000 C 
BRANCH  58  59
ATOM     59  C   LIG    1       -5.783  -9.209  -4.622  0.00  0.00    -0.003 C 
ATOM     60  C   LIG    1       -5.197 -10.499  -5.210  0.00  0.00    +0.004 C 
ENDBRANCH  58  59
ENDBRANCH  57  58
ENDBRANCH  56  57
ENDBRANCH  55  56
ENDBRANCH  54  55
ENDBRANCH  53  54
ENDBRANCH  52  53
ENDBRANCH  51  52
ENDBRANCH  50  51
ENDBRANCH  48  50
ENDBRANCH  47  48
ENDBRANCH  45  47
ENDBRANCH  40  43
BRANCH  38  61
ATOM     61  O   LIG    1       -1.520  -0.094  -1.229  0.00  0.00    -0.387 OA
ATOM     62  H   LIG    1       -0.568   0.030  -1.256  0.00  0.00    +0.210 HD
ENDBRANCH  38  61
BRANCH  41  63
ATOM     63  O   LIG    1       -4.347   2.707   0.753  0.00  0.00    -0.255 OA
BRANCH  63  64
ATOM     64  P   LIG    1       -5.481   3.535   1.810  0.00  0.00    +0.475 P 
ATOM     65  O   LIG    1       -5.554   2.674   3.084  0.00  0.00    -0.227 OA
BRANCH  64  66
ATOM     66  O   LIG    1       -6.816   3.584   1.044  0.00  0.00    -0.303 OA
ATOM     67  H   LIG    1       -6.715   4.136   0.253  0.00  0.00    +0.222 HD
ENDBRANCH  64  66
BRANCH  64  68
ATOM     68  O   LIG    1       -4.878   4.929   2.061  0.00  0.00    -0.303 OA
ATOM     69  H   LIG    1       -4.856   5.426   1.229  0.00  0.00    +0.222 HD
ENDBRANCH  64  68
ENDBRANCH  63  64
ENDBRANCH  41  63
BRANCH  39  70
ATOM     70  O   LIG    1       -3.924   0.182  -2.759  0.00  0.00    -0.372 OA
BRANCH  70  71
ATOM     71  C   LIG    1       -4.998  -0.752  -2.690  0.00  0.00    +0.163 C 
BRANCH  71  72
ATOM     72  C   LIG    1       -4.576  -2.063  -2.000  0.00  0.00    +0.059 C 
BRANCH  72  73
ATOM     73  C   LIG    1       -5.711  -3.108  -1.938  0.00  0.00    +0.117 C 
BRANCH  73  74
ATOM     74  O   LIG    1       -6.752  -2.632  -1.103  0.00  0.00    -0.392 OA
ATOM     75  H   LIG    1       -6.395  -2.483  -0.225  0.00  0.00    +0.210 HD
ENDBRANCH  73  74
BRANCH  73  76
ATOM     76  C   LIG    1       -5.223  -4.489  -1.450  0.00  0.00    +0.031 C 
BRANCH  76  77
ATOM     77  C   LIG    1       -6.321  -5.571  -1.421  0.00  0.00    +0.002 C 
BRANCH  77  78
ATOM     78  C   LIG    1       -5.767  -6.979  -1.142  0.00  0.00    +0.000 C 
BRANCH  78  79
ATOM     79  C   LIG    1       -6.856  -8.066  -1.154  0.00  0.00    -0.000 C 
BRANCH  79  80
ATOM     80  C   LIG    1       -6.296  -9.479  -0.913  0.00  0.00    -0.000 C 
BRANCH  80  81
ATOM     81  C   LIG    1       -7.374 -10.574  -1.000  0.00  0.00    -0.003 C 
ATOM     82  C   LIG    1       -6.809 -11.986  -0.797  0.00  0.00    +0.004 C 
ENDBRANCH  80  81
ENDBRANCH  79  80
ENDBRANCH  78  79
ENDBRANCH  77  78
ENDBRANCH  76  77
ENDBRANCH  73  76
ENDBRANCH  72  73
ENDBRANCH  71  72
ENDBRANCH  70  71
ENDBRANCH  39  70
ENDBRANCH  36  37
ENDBRANCH  35  36
ENDBRANCH   4  35
BRANCH   6  83
ATOM     83  O   LIG    1        4.497  -0.685   1.580  0.00  0.00    -0.372 OA
BRANCH  83  84
ATOM     84  C   LIG    1        5.136  -0.483   2.832  0.00  0.00    +0.164 C 
BRANCH  84  85
ATOM     85  C   LIG    1        5.479  -1.854   3.430  0.00  0.00    +0.072 C 
BRANCH  85  86
ATOM     86  C   LIG    1        6.179  -1.766   4.803  0.00  0.00    +0.179 C 
BRANCH  86  87
ATOM     87  C   LIG    1        6.299  -3.147   5.502  0.00  0.00    +0.045 C 
BRANCH  87  88
ATOM     88  C   LIG    1        7.186  -4.178   4.772  0.00  0.00    +0.004 C 
BRANCH  88  89
ATOM     89  C   LIG    1        7.299  -5.512   5.530  0.00  0.00    +0.000 C 
BRANCH  89  90
ATOM     90  C   LIG    1        8.168  -6.549   4.797  0.00  0.00    -0.000 C 
BRANCH  90  91
ATOM     91  C   LIG    1        8.265  -7.888   5.549  0.00  0.00    -0.000 C 
BRANCH  91  92
ATOM     92  C   LIG    1        9.128  -8.930   4.814  0.00  0.00    -0.003 C 
ATOM     93  C   LIG    1        9.210 -10.271   5.556  0.00  0.00    +0.004 C 
ENDBRANCH  91  92
ENDBRANCH  90  91
ENDBRANCH  89  90
ENDBRANCH  88  89
ENDBRANCH  87  88
ENDBRANCH  86  87
BRANCH  86  94
ATOM     94  O   LIG    1        7.455  -1.147   4.617  0.00  0.00    -0.461 OA
BRANCH  94  95
ATOM     95  C   LIG    1        8.143  -0.587   5.637  0.00  0.00    +0.307 C 
ATOM     96  O   LIG    1        7.780  -0.538   6.814  0.00  0.00    -0.251 OA
BRANCH  95  97
ATOM     97  C   LIG    1        9.484  -0.012   5.165  0.00  0.00    +0.121 C 
BRANCH  97  98
ATOM     98  C   LIG    1       10.530   0.186   6.282  0.00  0.00    +0.015 C 
BRANCH  98  99
ATOM     99  C   LIG    1       11.833   0.810   5.758  0.00  0.00    +0.027 C 
BRANCH  99 100
ATOM    100  C   LIG    1       12.835   1.113   6.860  0.00  0.00    -0.031 C 
ATOM    101  C   LIG    1       13.942   0.409   7.161  0.00  0.00    -0.031 C 
BRANCH 101 102
ATOM    102  C   LIG    1       14.414  -0.875   6.498  0.00  0.00    +0.027 C 
BRANCH 102 103
ATOM    103  C   LIG    1       15.650  -0.707   5.596  0.00  0.00    +0.004 C 
BRANCH 103 104
ATOM    104  C   LIG    1       15.379   0.118   4.323  0.00  0.00    +0.000 C 
BRANCH 104 105
ATOM    105  C   LIG    1       16.612   0.235   3.409  0.00  0.00    -0.000 C 
BRANCH 105 106
ATOM    106  C   LIG    1       16.339   1.053   2.135  0.00  0.00    -0.003 C 
ATOM    107  C   LIG    1       17.564   1.156   1.216  0.00  0.00    +0.004 C 
ENDBRANCH 105 106
ENDBRANCH 104 105
ENDBRANCH 103 104
ENDBRANCH 102 103
ENDBRANCH 101 102
ENDBRANCH  99 100
ENDBRANCH  98  99
ENDBRANCH  97  98
ENDBRANCH  95  97
ENDBRANCH  94  95
ENDBRANCH  86  94
ENDBRANCH  85  86
ENDBRANCH  84  85
ENDBRANCH  83  84
ENDBRANCH   6  83
TORSDOF 72
