REMARK  Name = DB06730
REMARK                            x       y       z     vdW  Elec       q    Type
REMARK                         _______ _______ _______ _____ _____    ______ ____
ROOT
ATOM      1  C   LIG    1       -0.517  -0.534   1.419  0.00  0.00    +0.151 C 
ATOM      2  C   LIG    1       -0.496   0.764   2.227  0.00  0.00    +0.017 C 
ATOM      3  C   LIG    1       -0.454   1.852   1.429  0.00  0.00    -0.023 C 
ATOM      4  C   LIG    1       -0.466   1.406  -0.017  0.00  0.00    +0.025 C 
ATOM      5  C   LIG    1        0.175   2.235  -1.160  0.00  0.00    +0.000 C 
ATOM      6  C   LIG    1       -0.283   3.710  -1.158  0.00  0.00    +0.009 C 
ATOM      7  C   LIG    1        0.365   4.502  -2.310  0.00  0.00    +0.031 C 
ATOM      8  C   LIG    1       -0.020   3.826  -3.622  0.00  0.00    -0.063 C 
ATOM      9  C   LIG    1       -0.759   4.445  -4.570  0.00  0.00    +0.045 C 
ATOM     10  C   LIG    1       -1.231   3.805  -5.790  0.00  0.00    +0.156 C 
ATOM     11  C   LIG    1       -1.129   2.275  -5.816  0.00  0.00    +0.079 C 
ATOM     12  C   LIG    1        0.173   1.791  -5.150  0.00  0.00    +0.016 C 
ATOM     13  O   LIG    1       -1.782   4.443  -6.684  0.00  0.00    -0.293 OA
ATOM     14  C   LIG    1        0.430   2.350  -3.718  0.00  0.00    +0.019 C 
ATOM     15  C   LIG    1       -0.209   1.563  -2.528  0.00  0.00    -0.000 C 
ATOM     16  C   LIG    1        0.090   0.028  -2.542  0.00  0.00    +0.005 C 
ATOM     17  C   LIG    1       -0.394  -0.709  -1.260  0.00  0.00    +0.012 C 
ATOM     18  C   LIG    1        0.107  -0.032   0.060  0.00  0.00    +0.021 C 
ENDROOT
BRANCH   1  19
ATOM     19  O   LIG    1        0.227  -1.557   2.055  0.00  0.00    -0.372 OA
ATOM     20  H   LIG    1       -0.152  -1.709   2.923  0.00  0.00    +0.212 HD
ENDBRANCH   1  19
BRANCH   1  21
ATOM     21  C   LIG    1       -1.909  -1.046   1.355  0.00  0.00    -0.066 C 
ATOM     22  C   LIG    1       -3.059  -1.454   1.292  0.00  0.00    +0.007 C 
ENDBRANCH   1  21
BRANCH  18  23
ATOM     23  C   LIG    1        1.694  -0.127   0.089  0.00  0.00    +0.008 C 
ATOM     24  C   LIG    1        2.470   0.605   1.203  0.00  0.00    +0.004 C 
ENDBRANCH  18  23
TORSDOF 3
