REMARK  Name = DB06677
REMARK                            x       y       z     vdW  Elec       q    Type
REMARK                         _______ _______ _______ _____ _____    ______ ____
ROOT
ATOM      1  C   LIG    1        1.402   0.577  -0.082  0.00  0.00    +0.188 A 
ATOM      2  N   LIG    1        2.192   1.691  -0.038  0.00  0.00    -0.207 NA
ATOM      3  C   LIG    1        3.543   1.544   0.006  0.00  0.00    +0.166 A 
ATOM      4  N   LIG    1        4.178   0.342   0.015  0.00  0.00    -0.190 NA
ATOM      5  C   LIG    1        3.400  -0.774  -0.023  0.00  0.00    +0.264 A 
ATOM      6  C   LIG    1        2.002  -0.700  -0.064  0.00  0.00    +0.231 A 
ENDROOT
BRANCH   3   7
ATOM      7  C   LIG    1        4.388   2.786   0.040  0.00  0.00    +0.023 A 
ATOM      8  C   LIG    1        5.795   2.721   0.027  0.00  0.00    +0.043 A 
ATOM      9  C   LIG    1        6.567   3.894   0.053  0.00  0.00    +0.110 A 
ATOM     10  N   LIG    1        5.980   5.124   0.092  0.00  0.00    -0.252 NA
ATOM     11  C   LIG    1        4.628   5.196   0.105  0.00  0.00    +0.112 A 
ATOM     12  C   LIG    1        3.811   4.067   0.081  0.00  0.00    +0.031 A 
BRANCH   9  13
ATOM     13  C   LIG    1        8.079   3.862   0.039  0.00  0.00    +0.198 A 
ATOM     14  N   LIG    1        8.839   4.940   0.036  0.00  0.00    -0.107 NA
ATOM     15  N   LIG    1       10.135   4.483   0.023  0.00  0.00    -0.023 NA
ATOM     16  N   LIG    1       10.093   3.115   0.018  0.00  0.00    -0.046 NA
ATOM     17  N   LIG    1        8.770   2.741   0.028  0.00  0.00    -0.238 N 
ATOM     18  H   LIG    1        8.413   1.823   0.027  0.00  0.00    +0.192 HD
ENDBRANCH   9  13
ENDBRANCH   3   7
BRANCH   1  19
ATOM     19  N   LIG    1        0.032   0.671  -0.153  0.00  0.00    -0.195 N 
ATOM     20  H   LIG    1       -0.491  -0.158  -0.234  0.00  0.00    +0.175 HD
BRANCH  19  21
ATOM     21  S   LIG    1       -0.735   2.037  -0.110  0.00  0.00    +0.091 S 
ATOM     22  O   LIG    1       -0.557   2.778   1.145  0.00  0.00    -0.148 OA
ATOM     23  O   LIG    1       -0.659   2.797  -1.364  0.00  0.00    -0.148 OA
BRANCH  21  28
ATOM     24  C   LIG    1       -6.388  -0.160  -0.090  0.00  0.00    +0.045 C 
ATOM     25  C   LIG    1       -4.976   0.393  -0.049  0.00  0.00    -0.032 A 
ATOM     26  C   LIG    1       -4.284   0.692  -1.227  0.00  0.00    +0.116 A 
ATOM     27  N   LIG    1       -3.020   1.186  -1.238  0.00  0.00    -0.235 NA
ATOM     28  C   LIG    1       -2.412   1.401  -0.039  0.00  0.00    +0.197 A 
ATOM     29  C   LIG    1       -3.031   1.123   1.185  0.00  0.00    +0.049 A 
ATOM     30  C   LIG    1       -4.332   0.616   1.172  0.00  0.00    +0.008 A 
ENDBRANCH  21  28
ENDBRANCH  19  21
ENDBRANCH   1  19
BRANCH   5  31
ATOM     31  O   LIG    1        4.004  -2.019  -0.009  0.00  0.00    -0.471 OA
BRANCH  31  32
ATOM     32  C   LIG    1        5.430  -2.116   0.019  0.00  0.00    +0.258 C 
BRANCH  32  33
ATOM     33  C   LIG    1        5.846  -3.594   0.026  0.00  0.00    +0.196 C 
BRANCH  33  34
ATOM     34  O   LIG    1        5.531  -4.209  -1.206  0.00  0.00    -0.392 OA
ATOM     35  H   LIG    1        5.754  -5.141  -1.149  0.00  0.00    +0.210 HD
ENDBRANCH  33  34
ENDBRANCH  32  33
ENDBRANCH  31  32
ENDBRANCH   5  31
BRANCH   6  36
ATOM     36  O   LIG    1        1.269  -1.868  -0.104  0.00  0.00    -0.443 OA
BRANCH  36  37
ATOM     37  C   LIG    1        0.562  -2.245   1.017  0.00  0.00    +0.170 A 
ATOM     38  C   LIG    1       -0.804  -2.541   0.893  0.00  0.00    +0.162 A 
ATOM     39  C   LIG    1       -1.521  -2.936   2.037  0.00  0.00    +0.049 A 
ATOM     40  C   LIG    1       -0.886  -3.036   3.274  0.00  0.00    +0.004 A 
ATOM     41  C   LIG    1        0.472  -2.748   3.387  0.00  0.00    +0.004 A 
ATOM     42  C   LIG    1        1.194  -2.357   2.262  0.00  0.00    +0.050 A 
BRANCH  38  43
ATOM     43  O   LIG    1       -1.366  -2.412  -0.365  0.00  0.00    -0.491 OA
ATOM     44  C   LIG    1       -2.755  -2.666  -0.536  0.00  0.00    +0.277 C 
ENDBRANCH  38  43
ENDBRANCH  36  37
ENDBRANCH   6  36
TORSDOF 12
