REMARK  Name = DB06792
REMARK                            x       y       z     vdW  Elec       q    Type
REMARK                         _______ _______ _______ _____ _____    ______ ____
ROOT
ATOM      1  C   LIG    1        0.600  -0.080   0.631  0.00  0.00    +0.505 C 
ATOM      2  O   LIG    1       -0.128   0.575  -0.145  0.00  0.00    -0.203 OA
ENDROOT
BRANCH   1   3
ATOM      3  O   LIG    1        1.463  -0.859   0.172  0.00  0.00    -0.450 OA
ATOM      4  H   LIG    1        2.009  -1.349   0.754  0.00  0.00    +0.299 HD
ENDBRANCH   1   3
BRANCH   1   5
ATOM      5  O   LIG    1        0.466   0.045   1.868  0.00  0.00    -0.450 OA
ATOM      6  H   LIG    1        1.013  -0.445   2.450  0.00  0.00    +0.299 HD
ENDBRANCH   1   5
TORSDOF 2
