REMARK  Name = DB06185
REMARK                            x       y       z     vdW  Elec       q    Type
REMARK                         _______ _______ _______ _____ _____    ______ ____
ROOT
ATOM      1  C   UNK    1       -0.466  -0.815  -1.145  0.00  0.00    +0.164 C 
ATOM      2  C   UNK    1       -0.180  -0.054   0.173  0.00  0.00    +0.111 C 
ATOM      3  N   UNK    1       -1.122   1.062   0.228  0.00  0.00    -0.300 NA
ATOM      4  H   UNK    1       -1.491   1.257   1.148  0.00  0.00    +0.123 HD
ATOM      5  C   UNK    1       -2.140   0.849  -0.788  0.00  0.00    +0.119 C 
ATOM      6  C   UNK    1       -1.382   0.145  -1.921  0.00  0.00    +0.166 C 
ENDROOT
BRANCH   5   7
ATOM      7  C   UNK    1       -2.789   2.178  -1.160  0.00  0.00    +0.016 A 
ATOM      8  C   UNK    1       -2.751   2.845  -2.390  0.00  0.00    +0.090 A 
ATOM      9  N   UNK    1       -3.466   4.012  -2.319  0.00  0.00    -0.355 N 
ATOM     10  H   UNK    1       -3.593   4.677  -3.068  0.00  0.00    +0.166 HD
ATOM     11  C   UNK    1       -3.983   4.119  -1.060  0.00  0.00    +0.130 A 
ATOM     12  C   UNK    1       -4.815   5.163  -0.474  0.00  0.00    +0.275 A 
ATOM     13  O   UNK    1       -5.238   6.190  -0.999  0.00  0.00    -0.266 OA
ATOM     14  N   UNK    1       -5.090   4.837   0.833  0.00  0.00    -0.312 N 
ATOM     15  H   UNK    1       -5.662   5.507   1.323  0.00  0.00    +0.170 HD
ATOM     16  C   UNK    1       -4.679   3.716   1.535  0.00  0.00    +0.199 A 
ATOM     17  N   UNK    1       -3.944   2.808   0.984  0.00  0.00    -0.235 NA
ATOM     18  C   UNK    1       -3.582   2.997  -0.324  0.00  0.00    +0.100 A 
ENDBRANCH   5   7
BRANCH   1  19
ATOM     19  O   UNK    1       -1.046  -2.086  -0.895  0.00  0.00    -0.388 OA
ATOM     20  H   UNK    1       -0.739  -2.699  -1.568  0.00  0.00    +0.210 HD
ENDBRANCH   1  19
BRANCH   6  21
ATOM     21  O   UNK    1       -2.191  -0.464  -2.912  0.00  0.00    -0.387 OA
ATOM     22  H   UNK    1       -2.898   0.143  -3.143  0.00  0.00    +0.210 HD
ENDBRANCH   6  21
BRANCH   2  23
ATOM     23  C   UNK    1        1.290   0.396   0.323  0.00  0.00    +0.177 C 
BRANCH  23  24
ATOM     24  O   UNK    1        1.540   0.942   1.603  0.00  0.00    -0.393 OA
ATOM     25  H   UNK    1        2.461   1.210   1.647  0.00  0.00    +0.209 HD
ENDBRANCH  23  24
ENDBRANCH   2  23
TORSDOF 5
