REMARK  Name = DB06249
REMARK                            x       y       z     vdW  Elec       q    Type
REMARK                         _______ _______ _______ _____ _____    ______ ____
ROOT
ATOM      1  C   LIG    1       -0.861   1.280  -0.220  0.00  0.00    +0.063 A 
ATOM      2  S   LIG    1       -2.587   0.987  -0.314  0.00  0.00    -0.084 S 
ATOM      3  C   LIG    1       -2.354  -0.710   0.063  0.00  0.00    +0.027 A 
ATOM      4  C   LIG    1       -3.353  -1.690   0.167  0.00  0.00    +0.061 A 
ATOM      5  C   LIG    1       -2.971  -2.996   0.463  0.00  0.00    +0.118 A 
ATOM      6  C   LIG    1       -1.631  -3.322   0.651  0.00  0.00    +0.046 A 
ATOM      7  C   LIG    1       -0.632  -2.354   0.550  0.00  0.00    +0.016 A 
ATOM      8  C   LIG    1       -0.975  -1.019   0.259  0.00  0.00    +0.032 A 
ATOM      9  C   LIG    1       -0.145   0.140   0.113  0.00  0.00    +0.151 A 
ENDROOT
BRANCH   1  13
ATOM     10  C   LIG    1        0.674   5.216  -1.016  0.00  0.00    +0.120 A 
ATOM     11  C   LIG    1        1.297   4.082  -1.559  0.00  0.00    +0.046 A 
ATOM     12  C   LIG    1        0.792   2.812  -1.297  0.00  0.00    +0.013 A 
ATOM     13  C   LIG    1       -0.341   2.653  -0.495  0.00  0.00    -0.007 A 
ATOM     14  C   LIG    1       -0.959   3.782   0.051  0.00  0.00    +0.013 A 
ATOM     15  C   LIG    1       -0.453   5.053  -0.210  0.00  0.00    +0.046 A 
BRANCH  10  17
ATOM     16  C   LIG    1        2.238   6.748  -2.045  0.00  0.00    +0.277 C 
ATOM     17  O   LIG    1        1.101   6.514  -1.222  0.00  0.00    -0.495 OA
ENDBRANCH  10  17
ENDBRANCH   1  13
BRANCH   5  18
ATOM     18  O   LIG    1       -3.925  -3.973   0.569  0.00  0.00    -0.507 OA
ATOM     19  H   LIG    1       -4.816  -3.649   0.420  0.00  0.00    +0.292 HD
ENDBRANCH   5  18
BRANCH   9  20
ATOM     20  O   LIG    1        1.223   0.123   0.242  0.00  0.00    -0.454 OA
BRANCH  20  21
ATOM     21  C   LIG    1        1.816  -0.339   1.399  0.00  0.00    +0.129 A 
ATOM     22  C   LIG    1        3.082  -0.913   1.292  0.00  0.00    +0.050 A 
ATOM     23  C   LIG    1        3.746  -1.370   2.427  0.00  0.00    +0.049 A 
ATOM     24  C   LIG    1        3.149  -1.248   3.692  0.00  0.00    +0.121 A 
ATOM     25  C   LIG    1        1.886  -0.665   3.796  0.00  0.00    +0.049 A 
ATOM     26  C   LIG    1        1.223  -0.206   2.661  0.00  0.00    +0.050 A 
BRANCH  24  27
ATOM     27  O   LIG    1        3.732  -1.665   4.873  0.00  0.00    -0.491 OA
BRANCH  27  28
ATOM     28  C   LIG    1        5.037  -2.240   4.848  0.00  0.00    +0.244 C 
BRANCH  28  29
ATOM     29  C   LIG    1        5.502  -2.554   6.286  0.00  0.00    +0.125 C 
BRANCH  29  30
ATOM     30  N   LIG    1        4.596  -3.437   7.032  0.00  0.00    -0.299 NA
ATOM     31  C   LIG    1        4.500  -4.787   6.452  0.00  0.00    +0.084 C 
ATOM     32  C   LIG    1        3.538  -5.697   7.246  0.00  0.00    +0.015 C 
ATOM     33  C   LIG    1        3.890  -5.751   8.739  0.00  0.00    +0.002 C 
ATOM     34  C   LIG    1        4.014  -4.327   9.297  0.00  0.00    +0.015 C 
ATOM     35  C   LIG    1        4.971  -3.458   8.454  0.00  0.00    +0.084 C 
ENDBRANCH  29  30
ENDBRANCH  28  29
ENDBRANCH  27  28
ENDBRANCH  24  27
ENDBRANCH  20  21
ENDBRANCH   9  20
TORSDOF 9
