REMARK  Name = DB06460
REMARK                            x       y       z     vdW  Elec       q    Type
REMARK                         _______ _______ _______ _____ _____    ______ ____
ROOT
ATOM      1  C   LIG    1       -1.143  -2.253  -2.745  0.00  0.00    +0.121 A 
ATOM      2  C   LIG    1       -0.506  -1.827  -1.567  0.00  0.00    +0.050 A 
ATOM      3  C   LIG    1       -0.347  -0.465  -1.304  0.00  0.00    -0.032 A 
ATOM      4  C   LIG    1        0.288   0.217  -0.103  0.00  0.00    +0.067 C 
ATOM      5  C   LIG    1       -0.239   1.677  -0.189  0.00  0.00    +0.121 C 
ATOM      6  C   LIG    1       -0.574   1.889  -1.690  0.00  0.00    +0.064 C 
ATOM      7  C   LIG    1       -0.833   0.483  -2.205  0.00  0.00    -0.035 A 
ATOM      8  C   LIG    1       -1.477   0.071  -3.371  0.00  0.00    +0.008 A 
ATOM      9  C   LIG    1       -1.623  -1.291  -3.638  0.00  0.00    +0.046 A 
ENDROOT
BRANCH   6  10
ATOM     10  C   LIG    1        0.458   2.721  -2.463  0.00  0.00    -0.035 A 
ATOM     11  C   LIG    1        1.418   2.119  -3.300  0.00  0.00    +0.053 A 
ATOM     12  C   LIG    1        2.319   2.945  -3.962  0.00  0.00    +0.167 A 
ATOM     13  O   LIG    1        3.343   2.600  -4.786  0.00  0.00    -0.453 OA
ATOM     14  C   LIG    1        3.830   3.806  -5.312  0.00  0.00    +0.466 C 
ATOM     15  O   LIG    1        3.301   4.853  -4.542  0.00  0.00    -0.453 OA
ATOM     16  C   LIG    1        2.294   4.303  -3.815  0.00  0.00    +0.166 A 
ATOM     17  C   LIG    1        1.365   4.933  -2.996  0.00  0.00    +0.050 A 
ATOM     18  C   LIG    1        0.440   4.124  -2.323  0.00  0.00    +0.008 A 
ENDBRANCH   6  10
BRANCH   4  19
ATOM     19  C   LIG    1        1.817   0.091   0.047  0.00  0.00    +0.003 A 
ATOM     20  C   LIG    1        2.428   0.447   1.262  0.00  0.00    +0.128 A 
ATOM     21  C   LIG    1        3.823   0.329   1.391  0.00  0.00    +0.091 A 
ATOM     22  C   LIG    1        4.615  -0.135   0.329  0.00  0.00    +0.124 A 
ATOM     23  C   LIG    1        3.991  -0.484  -0.866  0.00  0.00    +0.046 A 
ATOM     24  C   LIG    1        2.612  -0.375  -1.008  0.00  0.00    +0.011 A 
BRANCH  22  25
ATOM     25  O   LIG    1        5.989  -0.274   0.377  0.00  0.00    -0.495 OA
ATOM     26  C   LIG    1        6.683   0.083   1.567  0.00  0.00    +0.277 C 
ENDBRANCH  22  25
BRANCH  20  27
ATOM     27  O   LIG    1        1.604   0.906   2.276  0.00  0.00    -0.489 OA
BRANCH  27  28
ATOM     28  C   LIG    1        2.162   1.316   3.521  0.00  0.00    +0.256 C 
BRANCH  28  29
ATOM     29  C   LIG    1        1.025   1.851   4.403  0.00  0.00    +0.196 C 
BRANCH  29  30
ATOM     30  O   LIG    1        1.513   2.239   5.670  0.00  0.00    -0.392 OA
ATOM     31  H   LIG    1        0.777   2.575   6.189  0.00  0.00    +0.210 HD
ENDBRANCH  29  30
ENDBRANCH  28  29
ENDBRANCH  27  28
ENDBRANCH  20  27
ENDBRANCH   4  19
BRANCH   5  32
ATOM     32  C   LIG    1       -1.356   2.071   0.817  0.00  0.00    +0.310 C 
ATOM     33  O   LIG    1       -2.405   1.387   0.822  0.00  0.00    -0.251 OA
BRANCH  32  34
ATOM     34  O   LIG    1       -1.160   3.061   1.560  0.00  0.00    -0.480 OA
ATOM     35  H   LIG    1       -0.351   3.532   1.508  0.00  0.00    +0.295 HD
ENDBRANCH  32  34
ENDBRANCH   5  32
BRANCH   1  36
ATOM     36  O   LIG    1       -1.337  -3.576  -3.095  0.00  0.00    -0.492 OA
BRANCH  36  37
ATOM     37  C   LIG    1       -0.877  -4.602  -2.221  0.00  0.00    +0.229 C 
BRANCH  37  39
ATOM     38  C   LIG    1       -0.762  -7.146  -1.970  0.00  0.00    +0.007 C 
ATOM     39  C   LIG    1       -1.201  -5.966  -2.848  0.00  0.00    +0.038 C 
ENDBRANCH  37  39
ENDBRANCH  36  37
ENDBRANCH   1  36
TORSDOF 12
