REMARK  Name = DB06789
REMARK                            x       y       z     vdW  Elec       q    Type
REMARK                         _______ _______ _______ _____ _____    ______ ____
ROOT
ATOM      1  C   LIG    1        0.233  -5.019  -6.244  0.00  0.00    +0.080 C 
ATOM      2  C   LIG    1        0.166  -3.785  -5.323  0.00  0.00    +0.019 C 
ATOM      3  C   LIG    1       -0.884  -3.871  -4.163  0.00  0.00    -0.007 C 
ATOM      4  C   LIG    1       -2.302  -3.622  -4.744  0.00  0.00    +0.016 C 
ATOM      5  C   LIG    1       -0.500  -2.834  -3.035  0.00  0.00    +0.002 C 
ATOM      6  C   LIG    1       -0.537  -1.345  -3.510  0.00  0.00    +0.005 C 
ATOM      7  C   LIG    1       -0.141  -0.347  -2.394  0.00  0.00    +0.011 C 
ATOM      8  C   LIG    1       -1.024  -0.519  -1.120  0.00  0.00    +0.018 C 
ATOM      9  C   LIG    1       -0.541   0.221   0.188  0.00  0.00    +0.176 C 
ATOM     10  C   LIG    1       -1.228  -0.615   1.322  0.00  0.00    +0.057 C 
ATOM     11  C   LIG    1       -1.402  -2.045   0.771  0.00  0.00    +0.009 C 
ATOM     12  C   LIG    1       -2.517  -0.175  -1.455  0.00  0.00    +0.016 C 
ATOM     13  C   LIG    1       -0.838  -1.990  -0.656  0.00  0.00    +0.003 C 
ATOM     14  C   LIG    1       -1.311  -3.029  -1.711  0.00  0.00    -0.003 C 
ATOM     15  C   LIG    1       -1.119  -4.474  -1.212  0.00  0.00    +0.008 C 
ATOM     16  C   LIG    1       -1.629  -5.486  -2.245  0.00  0.00    +0.032 C 
ATOM     17  C   LIG    1       -0.865  -5.309  -3.560  0.00  0.00    -0.060 C 
ATOM     18  C   LIG    1       -0.257  -6.359  -4.159  0.00  0.00    +0.046 C 
ATOM     19  C   LIG    1        0.442  -6.299  -5.433  0.00  0.00    +0.156 C 
ATOM     20  O   LIG    1        1.069  -7.261  -5.872  0.00  0.00    -0.293 OA
ENDROOT
BRANCH   9  21
ATOM     21  C   LIG    1       -0.896   1.747   0.219  0.00  0.00    +0.174 C 
ATOM     22  C   LIG    1       -0.224   2.677  -0.791  0.00  0.00    +0.090 C 
ATOM     23  O   LIG    1       -1.697   2.212   1.030  0.00  0.00    -0.293 OA
ENDBRANCH   9  21
BRANCH   9  24
ATOM     24  O   LIG    1        0.908   0.128   0.266  0.00  0.00    -0.450 OA
BRANCH  24  25
ATOM     25  C   LIG    1        1.698   0.513   1.317  0.00  0.00    +0.308 C 
ATOM     26  O   LIG    1        1.313   1.021   2.371  0.00  0.00    -0.251 OA
BRANCH  25  27
ATOM     27  C   LIG    1        3.178   0.221   1.062  0.00  0.00    +0.120 C 
BRANCH  27  28
ATOM     28  C   LIG    1        3.830  -0.623   2.177  0.00  0.00    +0.011 C 
BRANCH  28  29
ATOM     29  C   LIG    1        5.300  -0.990   1.895  0.00  0.00    +0.000 C 
BRANCH  29  30
ATOM     30  C   LIG    1        6.262   0.213   1.896  0.00  0.00    -0.003 C 
ATOM     31  C   LIG    1        7.724  -0.193   1.668  0.00  0.00    +0.004 C 
ENDBRANCH  29  30
ENDBRANCH  28  29
ENDBRANCH  27  28
ENDBRANCH  25  27
ENDBRANCH  24  25
ENDBRANCH   9  24
TORSDOF 7
