REMARK  Name = DB06795
REMARK                            x       y       z     vdW  Elec       q    Type
REMARK                         _______ _______ _______ _____ _____    ______ ____
ROOT
ATOM      1  C   LIG    1       -2.181   1.181  -0.034  0.00  0.00    +0.029 A 
ATOM      2  C   LIG    1       -2.842  -0.049  -0.051  0.00  0.00    +0.105 A 
ATOM      3  C   LIG    1       -2.114  -1.241  -0.043  0.00  0.00    +0.029 A 
ATOM      4  C   LIG    1       -0.722  -1.201  -0.019  0.00  0.00    +0.007 A 
ATOM      5  C   LIG    1       -0.059   0.028  -0.004  0.00  0.00    -0.034 A 
ATOM      6  C   LIG    1       -0.790   1.219  -0.010  0.00  0.00    +0.007 A 
ENDROOT
BRANCH   2   7
ATOM      7  S   LIG    1       -4.632  -0.104  -0.082  0.00  0.00    +0.056 S 
ATOM      8  O   LIG    1       -5.023  -1.360  -0.731  0.00  0.00    -0.153 OA
ATOM      9  O   LIG    1       -5.108   1.187  -0.590  0.00  0.00    -0.153 OA
BRANCH   7  10
ATOM     10  N   LIG    1       -5.093  -0.214   1.606  0.00  0.00    -0.204 NA
ATOM     11  H   LIG    1       -4.875   0.618   2.160  0.00  0.00    +0.144 HD
ATOM     12  H   LIG    1       -4.823  -1.088   2.064  0.00  0.00    +0.144 HD
ENDBRANCH   7  10
ENDBRANCH   2   7
BRANCH   5  13
ATOM     13  C   LIG    1        1.460   0.071   0.024  0.00  0.00    +0.113 C 
BRANCH  13  14
ATOM     14  N   LIG    1        2.006   0.002  -1.318  0.00  0.00    -0.326 NA
ATOM     15  H   LIG    1        3.010  -0.101  -1.265  0.00  0.00    +0.119 HD
ATOM     16  H   LIG    1        1.845   0.881  -1.789  0.00  0.00    +0.119 HD
ENDBRANCH  13  14
ENDBRANCH   5  13
TORSDOF 4
