REMARK  Name = DB06140
REMARK                            x       y       z     vdW  Elec       q    Type
REMARK                         _______ _______ _______ _____ _____    ______ ____
ROOT
ATOM      1  C   LIG    1        1.494  -0.517   0.154  0.00  0.00    -0.037 A 
ATOM      2  C   LIG    1        2.515  -0.243   1.122  0.00  0.00    +0.006 A 
ATOM      3  C   LIG    1        2.485   0.113   2.479  0.00  0.00    +0.056 A 
ATOM      4  C   LIG    1        3.675   0.312   3.177  0.00  0.00    +0.121 A 
ATOM      5  C   LIG    1        4.900   0.150   2.516  0.00  0.00    +0.048 A 
ATOM      6  C   LIG    1        4.981  -0.198   1.168  0.00  0.00    +0.032 A 
ATOM      7  C   LIG    1        3.780  -0.378   0.471  0.00  0.00    +0.073 A 
ATOM      8  N   LIG    1        3.531  -0.696  -0.857  0.00  0.00    -0.218 N 
ATOM      9  C   LIG    1        2.172  -0.847  -0.999  0.00  0.00    +0.114 A 
ENDROOT
BRANCH   8  10
ATOM     10  S   LIG    1        4.481  -0.237  -2.223  0.00  0.00    +0.085 S 
ATOM     11  O   LIG    1        3.989  -1.056  -3.339  0.00  0.00    -0.148 OA
ATOM     12  O   LIG    1        5.888  -0.309  -1.817  0.00  0.00    -0.148 OA
BRANCH  10  13
ATOM     13  C   LIG    1        4.004   1.478  -2.537  0.00  0.00    +0.125 A 
ATOM     14  C   LIG    1        4.606   2.592  -1.917  0.00  0.00    +0.045 A 
ATOM     15 BR   LIG    1        6.043   2.454  -0.670  0.00  0.00    -0.048 Br
ATOM     16  C   LIG    1        4.143   3.878  -2.202  0.00  0.00    +0.017 A 
ATOM     17  C   LIG    1        3.087   4.074  -3.090  0.00  0.00    +0.001 A 
ATOM     18  C   LIG    1        2.486   2.979  -3.702  0.00  0.00    +0.002 A 
ATOM     19  C   LIG    1        2.942   1.691  -3.426  0.00  0.00    +0.030 A 
ENDBRANCH  10  13
ENDBRANCH   8  10
BRANCH   4  20
ATOM     20  O   LIG    1        3.549   0.662   4.507  0.00  0.00    -0.495 OA
ATOM     21  C   LIG    1        4.721   0.895   5.281  0.00  0.00    +0.277 C 
ENDBRANCH   4  20
BRANCH   1  22
ATOM     22  C   LIG    1       -0.005  -0.452   0.359  0.00  0.00    -0.041 C 
BRANCH  22  27
ATOM     23  C   LIG    1       -2.994   2.981  -1.486  0.00  0.00    +0.104 C 
ATOM     24  N   LIG    1       -2.104   3.336  -0.382  0.00  0.00    -0.309 NA
ATOM     25  C   LIG    1       -0.678   3.257  -0.723  0.00  0.00    +0.065 C 
ATOM     26  C   LIG    1       -0.181   1.799  -0.882  0.00  0.00    -0.063 C 
ATOM     27  N   LIG    1       -0.454   1.027   0.435  0.00  0.00    +0.384 N 
ATOM     28  H   LIG    1        0.056   1.485   1.177  0.00  0.00    -0.081 HD
ATOM     29  C   LIG    1       -1.960   1.111   0.780  0.00  0.00    -0.063 C 
ATOM     30  C   LIG    1       -2.378   2.601   0.859  0.00  0.00    +0.065 C 
ENDBRANCH  22  27
ENDBRANCH   1  22
TORSDOF 5
