REMARK  Name = DB06766
REMARK                            x       y       z     vdW  Elec       q    Type
REMARK                         _______ _______ _______ _____ _____    ______ ____
ROOT
ATOM      1  C   LIG    1        0.005  -0.105   0.186  0.00  0.00    +0.104 C 
ATOM      2  N   LIG    1        1.457  -0.038   0.069  0.00  0.00    -0.305 NA
ATOM      3  C   LIG    1        2.035   0.764   1.154  0.00  0.00    +0.088 C 
ATOM      4  C   LIG    1        3.576   0.827   1.088  0.00  0.00    +0.047 C 
ATOM      5  C   LIG    1        4.145  -0.595   1.098  0.00  0.00    -0.056 C 
ATOM      6  C   LIG    1        5.021  -1.093   2.017  0.00  0.00    +0.024 C 
ATOM      7  C   LIG    1        5.519  -0.312   3.151  0.00  0.00    +0.142 A 
ATOM      8  N   LIG    1        4.697   0.258   4.008  0.00  0.00    -0.235 NA
ATOM      9  C   LIG    1        5.472   0.836   4.900  0.00  0.00    +0.142 A 
ATOM     10  C   LIG    1        6.809   0.608   4.627  0.00  0.00    +0.101 A 
ATOM     11  N   LIG    1        6.862  -0.165   3.481  0.00  0.00    -0.321 N 
ATOM     12  C   LIG    1        8.052  -0.699   2.792  0.00  0.00    +0.128 C 
ATOM     13  C   LIG    1        7.839  -1.558   1.525  0.00  0.00    +0.057 C 
ATOM     14  C   LIG    1        6.879  -2.735   1.671  0.00  0.00    -0.038 A 
ATOM     15  C   LIG    1        7.325  -4.059   1.593  0.00  0.00    +0.004 A 
ATOM     16  C   LIG    1        6.440  -5.123   1.755  0.00  0.00    +0.000 A 
ATOM     17  C   LIG    1        5.094  -4.874   2.008  0.00  0.00    +0.001 A 
ATOM     18  C   LIG    1        4.637  -3.561   2.094  0.00  0.00    +0.009 A 
ATOM     19  C   LIG    1        5.518  -2.484   1.921  0.00  0.00    -0.011 A 
ATOM     20  C   LIG    1        3.582  -1.362  -0.102  0.00  0.00    +0.047 C 
ATOM     21  C   LIG    1        2.039  -1.382  -0.025  0.00  0.00    +0.088 C 
ENDROOT
BRANCH  10  22
ATOM     22  C   LIG    1        8.023   1.026   5.318  0.00  0.00    +0.278 C 
ATOM     23  O   LIG    1        8.004   1.717   6.335  0.00  0.00    -0.294 OA
ENDBRANCH  10  22
TORSDOF 1
