REMARK  Name = DB06274
REMARK                            x       y       z     vdW  Elec       q    Type
REMARK                         _______ _______ _______ _____ _____    ______ ____
ROOT
ATOM      1  C   LIG    1        0.098   0.180   0.564  0.00  0.00    +0.097 C 
ENDROOT
BRANCH   1   6
ATOM      2  C   LIG    1       -2.944   3.392   0.505  0.00  0.00    -0.002 C 
ATOM      3  C   LIG    1       -3.360   4.850   0.843  0.00  0.00    +0.016 C 
ATOM      4  C   LIG    1       -1.629   3.488  -0.348  0.00  0.00    +0.027 C 
ATOM      5  C   LIG    1       -0.854   2.154  -0.539  0.00  0.00    +0.085 C 
ATOM      6  N   LIG    1       -0.598   1.464   0.733  0.00  0.00    -0.301 NA
ATOM      7  C   LIG    1       -1.851   1.277   1.469  0.00  0.00    +0.088 C 
ATOM      8  C   LIG    1       -2.503   2.637   1.813  0.00  0.00    +0.010 C 
ATOM      9  C   LIG    1       -3.486   2.512   2.997  0.00  0.00    +0.009 C 
BRANCH   2  14
ATOM     10  C   LIG    1       -6.456   1.939  -0.197  0.00  0.00    +0.117 A 
ATOM     11  C   LIG    1       -6.310   1.398  -1.472  0.00  0.00    +0.045 A 
ATOM     12  C   LIG    1       -5.091   1.509  -2.133  0.00  0.00    +0.004 A 
ATOM     13  C   LIG    1       -4.015   2.147  -1.515  0.00  0.00    +0.004 A 
ATOM     14  C   LIG    1       -4.125   2.674  -0.215  0.00  0.00    -0.038 A 
ATOM     15  C   LIG    1       -5.377   2.575   0.417  0.00  0.00    +0.049 A 
BRANCH  10  16
ATOM     16  O   LIG    1       -7.660   1.851   0.451  0.00  0.00    -0.507 OA
ATOM     17  H   LIG    1       -8.328   1.395  -0.066  0.00  0.00    +0.292 HD
ENDBRANCH  10  16
ENDBRANCH   2  14
ENDBRANCH   1   6
BRANCH   1  18
ATOM     18  C   LIG    1        1.551   0.280   0.010  0.00  0.00    +0.093 C 
BRANCH  18  19
ATOM     19  C   LIG    1        2.446   1.165   0.905  0.00  0.00    +0.218 C 
ATOM     20  N   LIG    1        2.922   2.298   0.353  0.00  0.00    -0.305 N 
ATOM     21  H   LIG    1        2.664   2.511  -0.600  0.00  0.00    +0.149 HD
ATOM     22  O   LIG    1        2.691   0.825   2.064  0.00  0.00    -0.275 OA
BRANCH  20  23
ATOM     23  C   LIG    1        3.786   3.279   1.024  0.00  0.00    +0.224 C 
BRANCH  23  24
ATOM     24  C   LIG    1        5.267   2.859   0.939  0.00  0.00    +0.322 C 
ATOM     25  O   LIG    1        5.684   1.868   0.372  0.00  0.00    -0.249 OA
BRANCH  24  26
ATOM     26  O   LIG    1        6.035   3.776   1.594  0.00  0.00    -0.480 OA
ATOM     27  H   LIG    1        6.968   3.553   1.570  0.00  0.00    +0.295 HD
ENDBRANCH  24  26
ENDBRANCH  23  24
ENDBRANCH  20  23
ENDBRANCH  18  19
BRANCH  18  28
ATOM     28  C   LIG    1        2.200  -1.120  -0.170  0.00  0.00    +0.049 C 
BRANCH  28  29
ATOM     29  C   LIG    1        1.424  -2.048  -1.098  0.00  0.00    -0.047 A 
ATOM     30  C   LIG    1        1.484  -1.858  -2.482  0.00  0.00    +0.003 A 
ATOM     31  C   LIG    1        0.770  -2.699  -3.331  0.00  0.00    +0.000 A 
ATOM     32  C   LIG    1       -0.002  -3.727  -2.795  0.00  0.00    +0.000 A 
ATOM     33  C   LIG    1       -0.066  -3.923  -1.417  0.00  0.00    +0.000 A 
ATOM     34  C   LIG    1        0.648  -3.083  -0.567  0.00  0.00    +0.003 A 
ENDBRANCH  28  29
ENDBRANCH  18  28
ENDBRANCH   1  18
TORSDOF 10
