REMARK  Name = DB06276
REMARK                            x       y       z     vdW  Elec       q    Type
REMARK                         _______ _______ _______ _____ _____    ______ ____
ROOT
ATOM      1  C   LIG    1        2.158  -0.100   1.050  0.00  0.00    +0.164 C 
ATOM      2  O   LIG    1        1.392  -0.312   1.993  0.00  0.00    -0.292 OA
ENDROOT
BRANCH   1   3
ATOM      3  C   LIG    1        3.613   0.214   1.242  0.00  0.00    +0.017 A 
ATOM      4  C   LIG    1        4.114   0.393   2.537  0.00  0.00    +0.012 A 
ATOM      5  C   LIG    1        5.461   0.680   2.741  0.00  0.00    +0.009 A 
ATOM      6  C   LIG    1        6.345   0.795   1.661  0.00  0.00    -0.018 A 
ATOM      7  C   LIG    1        5.839   0.610   0.368  0.00  0.00    +0.009 A 
ATOM      8  C   LIG    1        4.494   0.321   0.158  0.00  0.00    +0.012 A 
BRANCH   6   9
ATOM      9  C   LIG    1        7.791   1.107   1.881  0.00  0.00    -0.018 A 
ATOM     10  C   LIG    1        8.505   1.886   0.958  0.00  0.00    +0.010 A 
ATOM     11  C   LIG    1        9.851   2.177   1.159  0.00  0.00    +0.020 A 
ATOM     12  C   LIG    1       10.501   1.690   2.289  0.00  0.00    +0.041 A 
ATOM     13 CL   LIG    1       12.171   2.048   2.539  0.00  0.00    -0.084 Cl
ATOM     14  C   LIG    1        9.812   0.916   3.218  0.00  0.00    +0.020 A 
ATOM     15  C   LIG    1        8.465   0.628   3.014  0.00  0.00    +0.010 A 
ENDBRANCH   6   9
ENDBRANCH   1   3
BRANCH   1  16
ATOM     16  C   LIG    1        1.612  -0.110  -0.397  0.00  0.00    +0.095 C 
BRANCH  16  17
ATOM     17  C   LIG    1        0.063  -0.209  -0.567  0.00  0.00    +0.115 C 
BRANCH  17  18
ATOM     18  C   LIG    1       -0.653   1.099  -0.117  0.00  0.00    +0.309 C 
ATOM     19  O   LIG    1       -0.313   2.183  -0.649  0.00  0.00    -0.251 OA
BRANCH  18  20
ATOM     20  O   LIG    1       -1.542   0.996   0.759  0.00  0.00    -0.480 OA
ATOM     21  H   LIG    1       -1.750   0.156   1.119  0.00  0.00    +0.295 HD
ENDBRANCH  18  20
ENDBRANCH  17  18
BRANCH  17  22
ATOM     22  C   LIG    1       -0.302  -0.557  -2.036  0.00  0.00    +0.089 C 
BRANCH  22  23
ATOM     23  S   LIG    1       -2.049  -0.927  -2.396  0.00  0.00    -0.124 S 
BRANCH  23  27
ATOM     24  C   LIG    1       -2.840  -4.833  -0.232  0.00  0.00    +0.000 A 
ATOM     25  C   LIG    1       -2.332  -4.855  -1.530  0.00  0.00    +0.001 A 
ATOM     26  C   LIG    1       -2.093  -3.656  -2.198  0.00  0.00    +0.015 A 
ATOM     27  C   LIG    1       -2.367  -2.446  -1.559  0.00  0.00    +0.008 A 
ATOM     28  C   LIG    1       -2.877  -2.424  -0.261  0.00  0.00    +0.015 A 
ATOM     29  C   LIG    1       -3.113  -3.623   0.406  0.00  0.00    +0.001 A 
ENDBRANCH  23  27
ENDBRANCH  22  23
ENDBRANCH  17  22
ENDBRANCH  16  17
ENDBRANCH   1  16
TORSDOF 9
