REMARK  Name = DB06166
REMARK                            x       y       z     vdW  Elec       q    Type
REMARK                         _______ _______ _______ _____ _____    ______ ____
ROOT
ATOM      1  C   LIG    1        2.254   1.514   1.114  0.00  0.00    +0.079 A 
ATOM      2  C   LIG    1        1.759   1.712   2.412  0.00  0.00    +0.116 A 
ATOM      3  N   LIG    1        2.405   2.813   2.934  0.00  0.00    -0.350 N 
ATOM      4  H   LIG    1        2.228   3.136   3.875  0.00  0.00    +0.166 HD
ATOM      5  C   LIG    1        3.284   3.363   2.032  0.00  0.00    +0.048 A 
ATOM      6  C   LIG    1        4.125   4.476   2.134  0.00  0.00    +0.027 A 
ATOM      7  C   LIG    1        4.914   4.777   1.025  0.00  0.00    +0.022 A 
ATOM      8  C   LIG    1        4.874   4.007  -0.135  0.00  0.00    +0.042 A 
ATOM      9 CL   LIG    1        5.878   4.430  -1.473  0.00  0.00    -0.084 Cl
ATOM     10  C   LIG    1        4.034   2.899  -0.231  0.00  0.00    +0.030 A 
ATOM     11  C   LIG    1        3.216   2.556   0.861  0.00  0.00    +0.015 A 
ENDROOT
BRANCH   2  12
ATOM     12  C   LIG    1        0.840   0.913   3.197  0.00  0.00    +0.259 C 
ATOM     13  N   LIG    1        0.157   1.578   4.136  0.00  0.00    -0.324 N 
ATOM     14  H   LIG    1       -0.495   1.084   4.728  0.00  0.00    +0.145 HD
ATOM     15  H   LIG    1        0.264   2.576   4.241  0.00  0.00    +0.145 HD
ATOM     16  O   LIG    1        0.699  -0.294   3.022  0.00  0.00    -0.269 OA
ENDBRANCH   2  12
BRANCH   1  17
ATOM     17  P   LIG    1        1.743   0.208  -0.060  0.00  0.00    +0.265 P 
ATOM     18  O   LIG    1        2.341   0.409  -1.408  0.00  0.00    -0.281 OA
BRANCH  17  22
ATOM     19  C   LIG    1       -2.744  -2.616   0.400  0.00  0.00    +0.044 C 
ATOM     20  C   LIG    1       -2.068  -1.269   0.222  0.00  0.00    -0.049 A 
ATOM     21  C   LIG    1       -0.676  -1.178   0.165  0.00  0.00    +0.017 A 
ATOM     22  C   LIG    1       -0.063   0.065   0.002  0.00  0.00    +0.042 A 
ATOM     23  C   LIG    1       -0.843   1.216  -0.118  0.00  0.00    +0.021 A 
ATOM     24  C   LIG    1       -2.239   1.144  -0.063  0.00  0.00    -0.023 A 
ATOM     25  C   LIG    1       -2.843  -0.111   0.108  0.00  0.00    +0.011 A 
BRANCH  24  26
ATOM     26  C   LIG    1       -3.018   2.395  -0.179  0.00  0.00    +0.019 C 
ATOM     27  C   LIG    1       -4.343   2.544  -0.001  0.00  0.00    +0.089 C 
BRANCH  27  28
ATOM     28  C   LIG    1       -5.006   3.797  -0.142  0.00  0.00    +0.091 C 
ATOM     29  N   LIG    1       -5.542   4.818  -0.238  0.00  0.00    -0.191 NA
ENDBRANCH  27  28
ENDBRANCH  24  26
ENDBRANCH  17  22
BRANCH  17  30
ATOM     30  O   LIG    1        2.265  -1.117   0.737  0.00  0.00    -0.325 OA
ATOM     31  C   LIG    1        3.650  -1.394   0.854  0.00  0.00    +0.203 C 
ENDBRANCH  17  30
ENDBRANCH   1  17
TORSDOF 6
