REMARK  Name = DB06614
REMARK                            x       y       z     vdW  Elec       q    Type
REMARK                         _______ _______ _______ _____ _____    ______ ____
ROOT
ATOM      1  C   LIG    1       -2.200  -0.769   0.771  0.00  0.00    +0.130 C 
ATOM      2  C   LIG    1       -2.148  -1.329  -0.670  0.00  0.00    +0.058 C 
ATOM      3  C   LIG    1       -0.756  -0.964  -1.239  0.00  0.00    +0.153 C 
ATOM      4  C   LIG    1       -0.051  -0.094  -0.159  0.00  0.00    +0.076 C 
ATOM      5  C   LIG    1       -0.719  -0.558   1.164  0.00  0.00    +0.136 C 
ENDROOT
BRANCH   1   6
ATOM      6  C   LIG    1       -2.981   0.565   0.857  0.00  0.00    +0.310 C 
ATOM      7  O   LIG    1       -3.047   1.386  -0.057  0.00  0.00    -0.251 OA
BRANCH   6   8
ATOM      8  O   LIG    1       -3.572   0.722   2.078  0.00  0.00    -0.480 OA
ATOM      9  H   LIG    1       -4.055   1.548   2.145  0.00  0.00    +0.295 HD
ENDBRANCH   6   8
ENDBRANCH   1   6
BRANCH   3  10
ATOM     10  N   LIG    1       -0.816  -0.291  -2.539  0.00  0.00    -0.273 N 
ATOM     11  H   LIG    1       -1.115   0.673  -2.521  0.00  0.00    +0.258 HD
BRANCH  10  12
ATOM     12  C   LIG    1       -0.922  -1.011  -3.761  0.00  0.00    +0.376 C 
ATOM     13  N   LIG    1       -0.861  -2.266  -3.886  0.00  0.00    -0.130 NA
ATOM     14  H   LIG    1       -0.961  -2.570  -4.843  0.00  0.00    +0.306 HD
BRANCH  12  15
ATOM     15  N   LIG    1       -1.111  -0.153  -4.865  0.00  0.00    -0.289 N 
ATOM     16  H   LIG    1       -1.272   0.837  -4.752  0.00  0.00    +0.255 HD
ATOM     17  H   LIG    1       -1.272  -0.508  -5.796  0.00  0.00    +0.255 HD
ENDBRANCH  12  15
ENDBRANCH  10  12
ENDBRANCH   3  10
BRANCH   5  18
ATOM     18  O   LIG    1       -0.195  -1.789   1.637  0.00  0.00    -0.391 OA
ATOM     19  H   LIG    1        0.696  -1.640   1.961  0.00  0.00    +0.210 HD
ENDBRANCH   5  18
BRANCH   4  20
ATOM     20  C   LIG    1        1.527  -0.030  -0.155  0.00  0.00    +0.085 C 
BRANCH  20  21
ATOM     21  N   LIG    1        2.107  -0.501  -1.425  0.00  0.00    -0.312 N 
ATOM     22  H   LIG    1        2.163   0.187  -2.161  0.00  0.00    +0.149 HD
ATOM     23  C   LIG    1        2.579  -1.735  -1.678  0.00  0.00    +0.210 C 
ATOM     24  C   LIG    1        3.119  -1.977  -3.083  0.00  0.00    +0.109 C 
ATOM     25  O   LIG    1        2.586  -2.651  -0.856  0.00  0.00    -0.276 OA
ENDBRANCH  20  21
BRANCH  20  26
ATOM     26  C   LIG    1        2.114   1.381   0.215  0.00  0.00    +0.009 C 
BRANCH  26  27
ATOM     27  C   LIG    1        1.551   1.988   1.533  0.00  0.00    +0.002 C 
ATOM     28  C   LIG    1        1.951   1.253   2.824  0.00  0.00    +0.004 C 
ENDBRANCH  26  27
BRANCH  26  29
ATOM     29  C   LIG    1        3.674   1.409   0.180  0.00  0.00    +0.002 C 
ATOM     30  C   LIG    1        4.312   2.792   0.397  0.00  0.00    +0.004 C 
ENDBRANCH  26  29
ENDBRANCH  20  26
ENDBRANCH   4  20
TORSDOF 11
