REMARK  Name = DB06794
REMARK                            x       y       z     vdW  Elec       q    Type
REMARK                         _______ _______ _______ _____ _____    ______ ____
ROOT
ATOM      1 CL   LIG    1        1.296  -1.661  -2.116  0.00  0.00    -0.080 Cl
ATOM      2  C   LIG    1        2.171  -0.684  -0.969  0.00  0.00    +0.083 A 
ATOM      3  C   LIG    1        3.579  -0.680  -0.980  0.00  0.00    +0.055 A 
ATOM      4  C   LIG    1        4.273   0.104  -0.044  0.00  0.00    +0.043 A 
ATOM      5  C   LIG    1        3.580   0.879   0.885  0.00  0.00    +0.055 A 
ATOM      6  C   LIG    1        2.186   0.883   0.885  0.00  0.00    +0.043 A 
ATOM      7  C   LIG    1        1.469   0.108  -0.041  0.00  0.00    +0.055 A 
ENDROOT
BRANCH   3   8
ATOM      8  N   LIG    1        4.239  -1.480  -1.937  0.00  0.00    -0.275 N 
ATOM      9  H   LIG    1        3.691  -2.248  -2.297  0.00  0.00    +0.155 HD
ATOM     10  C   LIG    1        5.471  -1.319  -2.475  0.00  0.00    +0.325 C 
ATOM     11  O   LIG    1        6.245  -0.393  -2.219  0.00  0.00    -0.263 OA
BRANCH  10  12
ATOM     12  C   LIG    1        5.809  -2.380  -3.455  0.00  0.00    +0.393 C 
ATOM     13  O   LIG    1        5.087  -3.345  -3.717  0.00  0.00    -0.240 OA
BRANCH  12  14
ATOM     14  O   LIG    1        7.024  -2.169  -4.046  0.00  0.00    -0.474 OA
ATOM     15  H   LIG    1        7.247  -2.853  -4.681  0.00  0.00    +0.296 HD
ENDBRANCH  12  14
ENDBRANCH  10  12
ENDBRANCH   3   8
BRANCH   7  16
ATOM     16  N   LIG    1        0.058   0.080  -0.075  0.00  0.00    -0.275 N 
ATOM     17  H   LIG    1       -0.338  -0.744  -0.506  0.00  0.00    +0.155 HD
ATOM     18  C   LIG    1       -0.821   1.028   0.326  0.00  0.00    +0.325 C 
ATOM     19  O   LIG    1       -0.517   2.129   0.794  0.00  0.00    -0.263 OA
BRANCH  18  20
ATOM     20  C   LIG    1       -2.233   0.621   0.124  0.00  0.00    +0.393 C 
ATOM     21  O   LIG    1       -2.588  -0.481  -0.299  0.00  0.00    -0.240 OA
BRANCH  20  22
ATOM     22  O   LIG    1       -3.110   1.615   0.460  0.00  0.00    -0.474 OA
ATOM     23  H   LIG    1       -4.025   1.357   0.331  0.00  0.00    +0.296 HD
ENDBRANCH  20  22
ENDBRANCH  18  20
ENDBRANCH   7  16
BRANCH   5  24
ATOM     24  C   LIG    1        4.312   1.678   1.858  0.00  0.00    +0.099 C 
ATOM     25  N   LIG    1        4.894   2.312   2.631  0.00  0.00    -0.191 NA
ENDBRANCH   5  24
TORSDOF 7
