REMARK  Name = DB06163
REMARK                            x       y       z     vdW  Elec       q    Type
REMARK                         _______ _______ _______ _____ _____    ______ ____
ROOT
ATOM      1  C   LIG    1        2.119   0.598  -1.760  0.00  0.00    +0.033 A 
ATOM      2  C   LIG    1        2.612   1.877  -2.080  0.00  0.00    +0.062 A 
ATOM      3  C   LIG    1        3.948   2.226  -1.883  0.00  0.00    +0.137 A 
ATOM      4  F   LIG    1        4.335   3.486  -2.197  0.00  0.00    -0.205 F 
ATOM      5  C   LIG    1        4.857   1.292  -1.362  0.00  0.00    +0.072 A 
ATOM      6  C   LIG    1        4.382   0.013  -1.044  0.00  0.00    +0.018 A 
ATOM      7  C   LIG    1        3.045  -0.325  -1.242  0.00  0.00    +0.024 A 
ENDROOT
BRANCH   5   8
ATOM      8  C   LIG    1        6.309   1.653  -1.142  0.00  0.00    +0.247 C 
ATOM      9  N   LIG    1        6.912   1.042  -0.103  0.00  0.00    -0.298 N 
ATOM     10  H   LIG    1        6.399   0.328   0.393  0.00  0.00    +0.150 HD
ATOM     11  O   LIG    1        6.882   2.458  -1.878  0.00  0.00    -0.270 OA
BRANCH   9  12
ATOM     12  CA  LIG    1        8.318   1.193   0.330  0.00  0.00    +0.182 C 
BRANCH  12  13
ATOM     13  C   LIG    1        8.879  -0.159   0.931  0.00  0.00    +0.325 C 
ATOM     14  O   LIG    1       10.127  -0.179   1.056  0.00  0.00    -0.249 OA
BRANCH  13  15
ATOM     15  OXT LIG    1        8.061  -1.067   1.219  0.00  0.00    -0.479 OA
ATOM     16  HXT LIG    1        7.144  -0.933   1.080  0.00  0.00    +0.295 HD
ENDBRANCH  13  15
ENDBRANCH  12  13
BRANCH  12  17
ATOM     17  C   LIG    1        8.516   2.370   1.335  0.00  0.00    +0.041 C 
BRANCH  17  18
ATOM     18  C   LIG    1        8.137   3.770   0.803  0.00  0.00    +0.080 C 
BRANCH  18  19
ATOM     19  C   LIG    1        8.469   4.877   1.791  0.00  0.00    +0.149 A 
ATOM     20  N   LIG    1        9.609   5.528   1.770  0.00  0.00    -0.114 NA
ATOM     21  N   LIG    1        9.525   6.422   2.811  0.00  0.00    -0.023 NA
ATOM     22  N   LIG    1        8.308   6.246   3.417  0.00  0.00    -0.047 NA
ATOM     23  N   LIG    1        7.647   5.244   2.746  0.00  0.00    -0.243 N 
ATOM     24  H   LIG    1        6.752   4.882   2.939  0.00  0.00    +0.192 HD
ENDBRANCH  18  19
ENDBRANCH  17  18
ENDBRANCH  12  17
ENDBRANCH   9  12
ENDBRANCH   5   8
BRANCH   1  25
ATOM     25  N   LIG    1        0.751   0.248  -1.975  0.00  0.00    -0.314 N 
BRANCH  25  26
ATOM     26  C   LIG    1        0.122  -0.824  -1.178  0.00  0.00    +0.141 C 
BRANCH  26  29
ATOM     27  C   LIG    1        1.203  -2.882  -3.104  0.00  0.00    +0.044 C 
ATOM     28  C   LIG    1       -0.293  -2.677  -2.914  0.00  0.00    -0.044 A 
ATOM     29  C   LIG    1       -0.798  -1.718  -2.012  0.00  0.00    -0.026 A 
ATOM     30  C   LIG    1       -2.182  -1.575  -1.852  0.00  0.00    +0.020 A 
ATOM     31  C   LIG    1       -3.054  -2.372  -2.596  0.00  0.00    +0.065 A 
ATOM     32  C   LIG    1       -4.558  -2.234  -2.452  0.00  0.00    +0.259 A 
ATOM     33  N   LIG    1       -5.233  -3.098  -3.262  0.00  0.00    -0.311 N 
ATOM     34  H   LIG    1       -6.238  -3.044  -3.200  0.00  0.00    +0.170 HD
ATOM     35  C   LIG    1       -4.689  -4.012  -4.131  0.00  0.00    +0.107 A 
ATOM     36  C   LIG    1       -5.643  -4.871  -4.935  0.00  0.00    +0.086 C 
ATOM     37  N   LIG    1       -3.415  -4.136  -4.263  0.00  0.00    -0.234 NA
ATOM     38  O   LIG    1       -5.144  -1.451  -1.707  0.00  0.00    -0.267 OA
ATOM     39  C   LIG    1       -2.556  -3.321  -3.500  0.00  0.00    +0.078 A 
ATOM     40  C   LIG    1       -1.179  -3.471  -3.654  0.00  0.00    +0.032 A 
ENDBRANCH  26  29
ENDBRANCH  25  26
BRANCH  25  41
ATOM     41  C   LIG    1       -0.152   1.191  -2.659  0.00  0.00    +0.194 C 
BRANCH  41  42
ATOM     42  C   LIG    1       -0.804   2.167  -1.762  0.00  0.00    -0.086 C 
ATOM     43  C   LIG    1       -1.356   2.963  -1.019  0.00  0.00    +0.005 C 
ENDBRANCH  41  42
ENDBRANCH  25  41
ENDBRANCH   1  25
TORSDOF 12
