REMARK  Name = DB06827
REMARK                            x       y       z     vdW  Elec       q    Type
REMARK                         _______ _______ _______ _____ _____    ______ ____
ROOT
ATOM      1  C   UNK A  3        1.382  -0.087   4.021  0.00  0.00    +0.194 C 
ATOM      2  C   UNK A  3        0.993  -0.963   2.793  0.00  0.00    +0.237 C 
ATOM      3  O   UNK A  3        1.791  -1.795   2.364  0.00  0.00    -0.274 OA
ATOM      4  N   UNK A  3       -0.187  -0.720   2.191  0.00  0.00    -0.311 N 
ATOM      5  H   UNK A  3       -0.827  -0.074   2.631  0.00  0.00    +0.149 HD
ATOM      6  C   UNK A  3       -0.656  -1.352   0.954  0.00  0.00    +0.136 C 
ATOM      7  C   UNK A  1       -0.232  -0.604  -0.342  0.00  0.00    +0.176 C 
ATOM      8  C   UNK A  1       -0.724   0.862  -0.350  0.00  0.00    +0.236 C 
ATOM      9  O   UNK A  1       -1.935   1.067  -0.286  0.00  0.00    -0.274 OA
ATOM     10  N   SER A  2        0.208   1.838  -0.394  0.00  0.00    -0.301 N 
ATOM     11  H   SER A  2        1.177   1.568  -0.474  0.00  0.00    +0.150 HD
ATOM     12  CA  SER A  2       -0.004   3.277  -0.203  0.00  0.00    +0.184 C 
ATOM     13  C   SER A  2       -0.466   3.552   1.242  0.00  0.00    +0.236 C 
ATOM     14  O   SER A  2        0.378   3.555   2.139  0.00  0.00    -0.274 OA
ATOM     15  N   UNK A  3       -1.785   3.723   1.447  0.00  0.00    -0.300 N 
ATOM     16  H   UNK A  3       -2.409   3.704   0.653  0.00  0.00    +0.150 HD
ATOM     17  C   UNK A  3       -2.436   3.759   2.760  0.00  0.00    +0.185 C 
ATOM     18  C   UNK A  3       -2.278   2.414   3.503  0.00  0.00    +0.240 C 
ATOM     19  O   UNK A  3       -2.501   1.363   2.896  0.00  0.00    -0.273 OA
ATOM     20  N   UNK A  3       -1.909   2.492   4.803  0.00  0.00    -0.279 N 
ATOM     21  H   UNK A  3       -2.015   3.395   5.241  0.00  0.00    +0.155 HD
ATOM     22  C   UNK A  3       -1.710   1.420   5.648  0.00  0.00    +0.110 C 
ATOM     23  C   UNK A  3       -2.327   1.355   6.853  0.00  0.00    +0.104 C 
ATOM     24  C   UNK A  3       -0.767   0.352   5.302  0.00  0.00    +0.260 C 
ATOM     25  O   UNK A  3       -0.882  -0.801   5.722  0.00  0.00    -0.269 OA
ATOM     26  N   UNK A  3        0.270   0.741   4.528  0.00  0.00    -0.296 N 
ATOM     27  H   UNK A  3        0.290   1.702   4.218  0.00  0.00    +0.150 HD
ENDROOT
BRANCH   1  28
ATOM     28  C   UNK A  3        2.200  -0.844   5.134  0.00  0.00    +0.170 C 
ATOM     29  N   UNK A  3        2.214  -0.202   6.456  0.00  0.00    -0.233 N 
ATOM     30  H   UNK A  3        1.284  -0.096   6.834  0.00  0.00    +0.245 HD
ATOM     31  C   UNK A  3        3.071   0.906   6.718  0.00  0.00    +0.364 C 
ATOM     32  N   UNK A  3        4.366   0.807   6.128  0.00  0.00    -0.213 N 
ATOM     33  H   UNK A  3        4.903   1.660   6.183  0.00  0.00    +0.247 HD
ATOM     34  C   UNK A  3        4.570   0.114   4.857  0.00  0.00    +0.269 C 
ATOM     35  N   UNK A  3        2.705   1.902   7.396  0.00  0.00    -0.133 NA
ATOM     36  H   UNK A  3        3.426   2.603   7.484  0.00  0.00    +0.306 HD
ATOM     37  C   UNK A  3        3.680  -1.149   4.761  0.00  0.00    +0.109 C 
BRANCH  34  38
ATOM     38  O   UNK A  3        5.916  -0.218   4.598  0.00  0.00    -0.362 OA
ATOM     39  H   UNK A  3        6.162  -0.948   5.171  0.00  0.00    +0.213 HD
ENDBRANCH  34  38
ENDBRANCH   1  28
BRANCH  23  40
ATOM     40  N   UNK A  3       -3.208   2.274   7.345  0.00  0.00    -0.274 N 
ATOM     41  H   UNK A  3       -3.419   3.061   6.750  0.00  0.00    +0.156 HD
ATOM     42  C   UNK A  3       -3.805   2.211   8.550  0.00  0.00    +0.301 C 
ATOM     43  O   UNK A  3       -3.650   1.318   9.382  0.00  0.00    -0.253 OA
ATOM     44  N   UNK A  3       -4.612   3.250   8.764  0.00  0.00    -0.313 N 
ATOM     45  H   UNK A  3       -4.727   3.967   8.063  0.00  0.00    +0.146 HD
ATOM     46  H   UNK A  3       -5.116   3.323   9.636  0.00  0.00    +0.146 HD
ENDBRANCH  23  40
BRANCH   7  47
ATOM     47  N   UNK A  1        1.211  -0.690  -0.576  0.00  0.00    -0.303 N 
ATOM     48  H   UNK A  1        1.755   0.062  -0.180  0.00  0.00    +0.149 HD
ATOM     49  C   UNK A  0        1.855  -1.667  -1.234  0.00  0.00    +0.215 C 
ATOM     50  O   UNK A  0        1.278  -2.645  -1.708  0.00  0.00    -0.276 OA
BRANCH  49  51
ATOM     51  C   UNK A  0        3.386  -1.552  -1.367  0.00  0.00    +0.114 C 
BRANCH  51  52
ATOM     52  C   UNK A  0        4.010  -0.175  -0.997  0.00  0.00    +0.059 C 
BRANCH  52  53
ATOM     53  N   UNK A  0        5.457  -0.311  -0.976  0.00  0.00    -0.327 NA
ATOM     54  H   UNK A  0        5.728  -1.018  -0.308  0.00  0.00    +0.118 HD
ATOM     55  H   UNK A  0        5.880   0.555  -0.674  0.00  0.00    +0.118 HD
ENDBRANCH  52  53
BRANCH  52  56
ATOM     56  C   UNK A  0        3.616   0.982  -1.953  0.00  0.00    +0.020 C 
BRANCH  56  57
ATOM     57  C   UNK A  0        3.904   2.385  -1.387  0.00  0.00    +0.016 C 
BRANCH  57  58
ATOM     58  C   UNK A  0        3.396   3.504  -2.311  0.00  0.00    +0.078 C 
BRANCH  58  59
ATOM     59  N   UNK A  0        3.644   4.803  -1.715  0.00  0.00    -0.330 NA
ATOM     60  H   UNK A  0        3.306   5.529  -2.330  0.00  0.00    +0.118 HD
ATOM     61  H   UNK A  0        4.639   4.948  -1.619  0.00  0.00    +0.118 HD
ENDBRANCH  58  59
ENDBRANCH  57  58
ENDBRANCH  56  57
ENDBRANCH  52  56
ENDBRANCH  51  52
ENDBRANCH  49  51
ENDBRANCH   7  47
BRANCH  17  62
ATOM     62  C   UNK A  3       -3.927   4.096   2.561  0.00  0.00    +0.187 C 
BRANCH  62  63
ATOM     63  O   UNK A  3       -4.087   5.480   2.328  0.00  0.00    -0.393 OA
ATOM     64  H   UNK A  3       -5.020   5.662   2.189  0.00  0.00    +0.209 HD
ENDBRANCH  62  63
ENDBRANCH  17  62
BRANCH  12  65
ATOM     65  CB  SER A  2       -0.900   3.872  -1.320  0.00  0.00    +0.187 C 
BRANCH  65  66
ATOM     66  OG  SER A  2       -0.999   5.278  -1.211  0.00  0.00    -0.393 OA
ATOM     67  H   SER A  2       -1.525   5.490  -0.435  0.00  0.00    +0.209 HD
ENDBRANCH  65  66
ENDBRANCH  12  65
TORSDOF 15
