REMARK  Name = DB06673
REMARK                            x       y       z     vdW  Elec       q    Type
REMARK                         _______ _______ _______ _____ _____    ______ ____
ROOT
ATOM      1  N   LIG    1        1.318   0.030  -0.064  0.00  0.00    -0.281 NA
ATOM      2  C   LIG    1        1.958   0.686   1.103  0.00  0.00    +0.089 C 
ATOM      3  C   LIG    1        1.742   2.209   1.143  0.00  0.00    -0.023 A 
ATOM      4  C   LIG    1        1.882   2.919   2.340  0.00  0.00    +0.054 A 
ATOM      5  C   LIG    1        1.770   4.317   2.392  0.00  0.00    +0.162 A 
ATOM      6  C   LIG    1        1.526   5.025   1.210  0.00  0.00    +0.162 A 
ATOM      7  C   LIG    1        1.398   4.317   0.006  0.00  0.00    +0.053 A 
ATOM      8  C   LIG    1        1.502   2.925  -0.045  0.00  0.00    -0.038 A 
ATOM      9  C   LIG    1        1.340   2.182  -1.369  0.00  0.00    +0.051 C 
ATOM     10  C   LIG    1        1.806   0.711  -1.282  0.00  0.00    +0.091 C 
ENDROOT
BRANCH   5  11
ATOM     11  O   LIG    1        1.895   5.055   3.556  0.00  0.00    -0.491 OA
ATOM     12  C   LIG    1        2.142   4.387   4.789  0.00  0.00    +0.277 C 
ENDBRANCH   5  11
BRANCH   6  13
ATOM     13  O   LIG    1        1.428   6.402   1.307  0.00  0.00    -0.491 OA
ATOM     14  C   LIG    1        1.186   7.173   0.135  0.00  0.00    +0.277 C 
ENDBRANCH   6  13
BRANCH   1  15
ATOM     15  C   LIG    1       -0.167  -0.078   0.063  0.00  0.00    +0.174 C 
BRANCH  15  16
ATOM     16  C   LIG    1       -0.608  -0.863   1.313  0.00  0.00    -0.021 A 
ATOM     17  C   LIG    1       -0.035  -2.104   1.625  0.00  0.00    +0.005 A 
ATOM     18  C   LIG    1       -0.447  -2.802   2.757  0.00  0.00    +0.000 A 
ATOM     19  C   LIG    1       -1.437  -2.265   3.575  0.00  0.00    +0.000 A 
ATOM     20  C   LIG    1       -2.021  -1.038   3.271  0.00  0.00    +0.000 A 
ATOM     21  C   LIG    1       -1.609  -0.339   2.139  0.00  0.00    +0.005 A 
ENDBRANCH  15  16
BRANCH  15  25
ATOM     22  C   LIG    1       -2.690  -0.709  -2.792  0.00  0.00    +0.128 C 
ATOM     23  N   LIG    1       -1.929  -0.215  -1.651  0.00  0.00    -0.317 N 
ATOM     24  H   LIG    1       -2.284   0.618  -1.203  0.00  0.00    +0.148 HD
ATOM     25  C   LIG    1       -0.801  -0.771  -1.175  0.00  0.00    +0.235 C 
ATOM     26  O   LIG    1       -0.289  -1.784  -1.661  0.00  0.00    -0.274 OA
ENDBRANCH  15  25
ENDBRANCH   1  15
BRANCH   2  27
ATOM     27  C   LIG    1        3.448   0.325   1.326  0.00  0.00    +0.028 C 
BRANCH  27  28
ATOM     28  C   LIG    1        3.715  -1.191   1.417  0.00  0.00    +0.037 C 
BRANCH  28  29
ATOM     29  C   LIG    1        5.178  -1.512   1.678  0.00  0.00    -0.047 A 
ATOM     30  C   LIG    1        6.061  -1.660   0.607  0.00  0.00    +0.004 A 
ATOM     31  C   LIG    1        7.403  -1.943   0.846  0.00  0.00    +0.012 A 
ATOM     32  C   LIG    1        7.872  -2.080   2.157  0.00  0.00    +0.055 A 
ATOM     33  C   LIG    1        6.982  -1.930   3.227  0.00  0.00    +0.012 A 
ATOM     34  C   LIG    1        5.640  -1.646   2.989  0.00  0.00    +0.004 A 
BRANCH  32  35
ATOM     35  C   LIG    1        9.345  -2.392   2.415  0.00  0.00    +0.417 C 
ATOM     36  F   LIG    1        9.520  -3.026   3.576  0.00  0.00    -0.166 F 
ATOM     37  F   LIG    1       10.029  -1.248   2.453  0.00  0.00    -0.166 F 
ATOM     38  F   LIG    1        9.854  -3.158   1.448  0.00  0.00    -0.166 F 
ENDBRANCH  32  35
ENDBRANCH  28  29
ENDBRANCH  27  28
ENDBRANCH   2  27
TORSDOF 9
