REMARK  Name = DB06307
REMARK                            x       y       z     vdW  Elec       q    Type
REMARK                         _______ _______ _______ _____ _____    ______ ____
ROOT
ATOM      1  C   LIG    1       -0.254  -0.055   0.075  0.00  0.00    +0.012 C 
ATOM      2  C   LIG    1        1.305  -0.015   0.015  0.00  0.00    -0.026 C 
ATOM      3  C   LIG    1        1.813   0.786  -1.249  0.00  0.00    -0.001 C 
ATOM      4  C   LIG    1        1.487   0.114  -2.624  0.00  0.00    +0.005 C 
ATOM      5  C   LIG    1        1.940   0.964  -3.836  0.00  0.00    +0.011 C 
ATOM      6  C   LIG    1        1.365   2.414  -3.788  0.00  0.00    +0.011 C 
ATOM      7  C   LIG    1       -0.201   2.365  -3.851  0.00  0.00    +0.015 C 
ATOM      8  C   LIG    1        1.908   3.451  -4.849  0.00  0.00    +0.132 C 
ATOM      9  C   LIG    1        1.682   4.817  -4.134  0.00  0.00    +0.049 C 
ATOM     10  C   LIG    1        1.658   4.549  -2.614  0.00  0.00    +0.008 C 
ATOM     11  C   LIG    1        1.901   3.040  -2.472  0.00  0.00    +0.002 C 
ATOM     12  C   LIG    1        1.398   2.303  -1.200  0.00  0.00    -0.004 C 
ATOM     13  C   LIG    1        1.950   2.955   0.092  0.00  0.00    +0.004 C 
ATOM     14  C   LIG    1        1.515   2.187   1.352  0.00  0.00    +0.004 C 
ATOM     15  C   LIG    1        1.931   0.697   1.272  0.00  0.00    -0.002 C 
ATOM     16  C   LIG    1        1.617  -0.072   2.584  0.00  0.00    +0.035 C 
ATOM     17  C   LIG    1        2.128  -1.529   2.556  0.00  0.00    +0.115 C 
ATOM     18  C   LIG    1        1.601  -2.265   1.303  0.00  0.00    +0.032 C 
ATOM     19  C   LIG    1        1.870  -1.473  -0.000  0.00  0.00    +0.010 C 
ENDROOT
BRANCH   8  20
ATOM     20  O   LIG    1        1.213   3.414  -6.085  0.00  0.00    -0.376 OA
ATOM     21  H   LIG    1        1.278   2.525  -6.441  0.00  0.00    +0.211 HD
ENDBRANCH   8  20
BRANCH   8  22
ATOM     22  C   LIG    1        3.341   3.292  -5.211  0.00  0.00    -0.070 C 
ATOM     23  C   LIG    1        4.524   3.172  -5.494  0.00  0.00    +0.007 C 
ENDBRANCH   8  22
BRANCH  17  24
ATOM     24  O   LIG    1        3.544  -1.560   2.589  0.00  0.00    -0.392 OA
ATOM     25  H   LIG    1        3.821  -2.015   3.388  0.00  0.00    +0.210 HD
ENDBRANCH  17  24
TORSDOF 3
