REMARK  Name = DB06573
REMARK                            x       y       z     vdW  Elec       q    Type
REMARK                         _______ _______ _______ _____ _____    ______ ____
ROOT
ATOM      1  C   LIG    1       -0.157  -0.162   0.103  0.00  0.00    +0.159 C 
ENDROOT
BRANCH   1   2
ATOM      2  N   LIG    1        1.295  -0.330   0.081  0.00  0.00    -0.303 N 
ATOM      3  H   LIG    1        1.756  -0.285   0.978  0.00  0.00    +0.149 HD
ATOM      4  C   LIG    1        2.037  -0.460  -1.034  0.00  0.00    +0.226 C 
ATOM      5  O   LIG    1        1.545  -0.522  -2.162  0.00  0.00    -0.275 OA
BRANCH   4   6
ATOM      6  C   LIG    1        3.565  -0.503  -0.842  0.00  0.00    +0.130 C 
BRANCH   6   7
ATOM      7  S   LIG    1        4.068  -2.249  -0.886  0.00  0.00    -0.165 S 
ATOM      8  H   LIG    1        3.524  -2.584   0.287  0.00  0.00    +0.102 HD
ENDBRANCH   6   7
BRANCH   6   9
ATOM      9  C   LIG    1        4.355   0.261  -1.935  0.00  0.00    +0.043 C 
BRANCH   9  10
ATOM     10  C   LIG    1        4.023   1.768  -1.992  0.00  0.00    +0.119 C 
BRANCH  10  11
ATOM     11  N   LIG    1        4.702   2.491  -3.073  0.00  0.00    -0.224 N 
ATOM     12  C   LIG    1        4.225   2.514  -4.345  0.00  0.00    +0.312 C 
ATOM     13  O   LIG    1        3.487   1.687  -4.884  0.00  0.00    -0.252 OA
ATOM     14  N   LIG    1        4.843   3.557  -4.929  0.00  0.00    -0.274 N 
ATOM     15  C   LIG    1        4.308   4.223  -6.117  0.00  0.00    +0.134 C 
ATOM     16  C   LIG    1        5.980   4.019  -4.170  0.00  0.00    +0.109 C 
ATOM     17  C   LIG    1        7.331   3.622  -4.811  0.00  0.00    +0.041 C 
ATOM     18  C   LIG    1        5.975   5.556  -3.949  0.00  0.00    +0.041 C 
ATOM     19  C   LIG    1        5.741   3.321  -2.845  0.00  0.00    +0.246 C 
ATOM     20  O   LIG    1        6.374   3.493  -1.801  0.00  0.00    -0.273 OA
ENDBRANCH  10  11
ENDBRANCH   9  10
ENDBRANCH   6   9
ENDBRANCH   4   6
ENDBRANCH   1   2
BRANCH   1  21
ATOM     21  C   LIG    1       -0.500   1.326  -0.088  0.00  0.00    +0.234 C 
ATOM     22  N   LIG    1       -0.827   1.693  -1.337  0.00  0.00    -0.302 N 
ATOM     23  H   LIG    1       -0.833   0.996  -2.068  0.00  0.00    +0.150 HD
ATOM     24  O   LIG    1       -0.444   2.093   0.874  0.00  0.00    -0.274 OA
BRANCH  22  25
ATOM     25  C   LIG    1       -1.209   3.046  -1.760  0.00  0.00    +0.164 C 
BRANCH  25  26
ATOM     26  C   LIG    1       -2.453   2.904  -2.664  0.00  0.00    +0.234 C 
ATOM     27  N   LIG    1       -3.419   3.817  -2.477  0.00  0.00    -0.317 N 
ATOM     28  H   LIG    1       -3.293   4.525  -1.769  0.00  0.00    +0.148 HD
ATOM     29  C   LIG    1       -4.665   3.861  -3.231  0.00  0.00    +0.128 C 
ATOM     30  O   LIG    1       -2.506   1.997  -3.497  0.00  0.00    -0.274 OA
ENDBRANCH  25  26
BRANCH  25  31
ATOM     31  C   LIG    1       -0.021   3.865  -2.401  0.00  0.00    -0.011 C 
ATOM     32  C   LIG    1        0.596   3.130  -3.620  0.00  0.00    +0.013 C 
ATOM     33  C   LIG    1       -0.477   5.275  -2.862  0.00  0.00    +0.013 C 
ATOM     34  C   LIG    1        1.106   4.080  -1.357  0.00  0.00    +0.013 C 
ENDBRANCH  25  31
ENDBRANCH  22  25
ENDBRANCH   1  21
BRANCH   1  35
ATOM     35  C   LIG    1       -0.706  -0.752   1.426  0.00  0.00    +0.034 C 
BRANCH  35  37
ATOM     36  C   LIG    1       -2.652  -1.174   3.013  0.00  0.00    +0.007 C 
ATOM     37  C   LIG    1       -2.241  -0.668   1.613  0.00  0.00    -0.015 C 
ATOM     38  C   LIG    1       -3.015  -1.383   0.485  0.00  0.00    +0.007 C 
ENDBRANCH  35  37
ENDBRANCH   1  35
TORSDOF 12
