REMARK  Name = DB06533
REMARK                            x       y       z     vdW  Elec       q    Type
REMARK                         _______ _______ _______ _____ _____    ______ ____
ROOT
ATOM      1  O   LIG    1        3.494   2.617  -4.708  0.00  0.00    -0.490 OA
ENDROOT
BRANCH   1   5
ATOM      2  C   LIG    1        1.934   0.844  -1.262  0.00  0.00    -0.044 A 
ATOM      3  C   LIG    1        1.903   0.125  -2.457  0.00  0.00    +0.007 A 
ATOM      4  C   LIG    1        2.416   0.687  -3.623  0.00  0.00    +0.046 A 
ATOM      5  C   LIG    1        2.969   1.977  -3.602  0.00  0.00    +0.121 A 
ATOM      6  C   LIG    1        3.002   2.685  -2.400  0.00  0.00    +0.046 A 
ATOM      7  C   LIG    1        2.487   2.125  -1.234  0.00  0.00    +0.007 A 
BRANCH   2   8
ATOM      8  C   LIG    1        1.355   0.228   0.009  0.00  0.00    +0.078 C 
BRANCH   8   9
ATOM      9  C   LIG    1       -0.195   0.159   0.051  0.00  0.00    +0.230 C 
BRANCH   9  10
ATOM     10  C   LIG    1       -0.833   1.581   0.053  0.00  0.00    +0.334 C 
ATOM     11  O   LIG    1       -1.217   2.036  -1.048  0.00  0.00    -0.248 OA
BRANCH  10  12
ATOM     12  O   LIG    1       -0.919   2.200   1.140  0.00  0.00    -0.479 OA
ATOM     13  H   LIG    1       -0.612   1.803   1.931  0.00  0.00    +0.295 HD
ENDBRANCH  10  12
ENDBRANCH   9  10
BRANCH   9  14
ATOM     14  O   LIG    1       -0.549  -0.562   1.240  0.00  0.00    -0.365 OA
BRANCH  14  16
ATOM     15  C   LIG    1       -2.073  -1.814   2.616  0.00  0.00    +0.034 C 
ATOM     16  C   LIG    1       -1.893  -1.034   1.311  0.00  0.00    +0.157 C 
ENDBRANCH  14  16
ENDBRANCH   9  14
ENDBRANCH   8   9
ENDBRANCH   2   8
ENDBRANCH   1   5
BRANCH   1  17
ATOM     17  C   LIG    1        3.474   1.960  -5.972  0.00  0.00    +0.248 C 
BRANCH  17  18
ATOM     18  C   LIG    1        4.061   2.882  -7.068  0.00  0.00    +0.152 C 
BRANCH  18  19
ATOM     19  N   LIG    1        5.392   2.479  -7.555  0.00  0.00    -0.291 N 
ATOM     20  C   LIG    1        6.554   2.893  -6.877  0.00  0.00    +0.077 A 
ATOM     21  C   LIG    1        6.574   3.393  -5.564  0.00  0.00    +0.027 A 
ATOM     22  C   LIG    1        7.782   3.663  -4.919  0.00  0.00    +0.002 A 
ATOM     23  C   LIG    1        8.994   3.399  -5.555  0.00  0.00    +0.004 A 
ATOM     24  C   LIG    1        9.002   2.853  -6.837  0.00  0.00    +0.048 A 
ATOM     25  C   LIG    1        7.793   2.603  -7.484  0.00  0.00    +0.150 A 
ATOM     26  O   LIG    1        7.844   1.981  -8.712  0.00  0.00    -0.452 OA
ATOM     27  C   LIG    1        6.777   1.167  -9.020  0.00  0.00    +0.150 A 
ATOM     28  C   LIG    1        7.024   0.056  -9.826  0.00  0.00    +0.048 A 
ATOM     29  C   LIG    1        5.994  -0.845 -10.087  0.00  0.00    +0.004 A 
ATOM     30  C   LIG    1        4.736  -0.648  -9.519  0.00  0.00    +0.002 A 
ATOM     31  C   LIG    1        4.500   0.455  -8.697  0.00  0.00    +0.027 A 
ATOM     32  C   LIG    1        5.504   1.410  -8.464  0.00  0.00    +0.077 A 
ENDBRANCH  18  19
ENDBRANCH  17  18
ENDBRANCH   1  17
TORSDOF 10
