REMARK  Name = DB06368
REMARK                            x       y       z     vdW  Elec       q    Type
REMARK                         _______ _______ _______ _____ _____    ______ ____
ROOT
ATOM      1  C   LIG    1       -0.218   2.134  -4.979  0.00  0.00    +0.134 A 
ATOM      2  N   LIG    1       -0.814   0.968  -5.346  0.00  0.00    -0.206 NA
ATOM      3  C   LIG    1       -1.254   0.151  -4.354  0.00  0.00    +0.216 A 
ATOM      4  N   LIG    1       -1.172   0.363  -3.012  0.00  0.00    -0.195 NA
ATOM      5  C   LIG    1       -0.580   1.523  -2.695  0.00  0.00    +0.167 A 
ATOM      6  N   LIG    1       -0.316   2.069  -1.454  0.00  0.00    -0.313 N 
ATOM      7  C   LIG    1        0.314   3.271  -1.709  0.00  0.00    +0.201 A 
ATOM      8  N   LIG    1        0.475   3.545  -2.981  0.00  0.00    -0.231 NA
ATOM      9  C   LIG    1       -0.075   2.467  -3.622  0.00  0.00    +0.140 A 
ENDROOT
BRANCH   3  10
ATOM     10  N   LIG    1       -1.854  -1.038  -4.755  0.00  0.00    -0.327 N 
ATOM     11  H   LIG    1       -2.191  -1.683  -4.056  0.00  0.00    +0.145 HD
ATOM     12  H   LIG    1       -1.939  -1.239  -5.741  0.00  0.00    +0.145 HD
ENDBRANCH   3  10
BRANCH   1  13
ATOM     13  S   LIG    1        0.370   3.202  -6.259  0.00  0.00    -0.068 S 
BRANCH  13  17
ATOM     14  C   LIG    1        4.128   1.192  -7.928  0.00  0.00    +0.120 A 
ATOM     15  C   LIG    1        3.624   0.790  -6.681  0.00  0.00    +0.047 A 
ATOM     16  C   LIG    1        2.482   1.390  -6.158  0.00  0.00    +0.018 A 
ATOM     17  C   LIG    1        1.828   2.395  -6.878  0.00  0.00    +0.014 A 
ATOM     18  C   LIG    1        2.330   2.802  -8.114  0.00  0.00    +0.018 A 
ATOM     19  C   LIG    1        3.472   2.201  -8.634  0.00  0.00    +0.047 A 
BRANCH  14  21
ATOM     20  C   LIG    1        5.967  -0.379  -7.853  0.00  0.00    +0.277 C 
ATOM     21  O   LIG    1        5.252   0.654  -8.524  0.00  0.00    -0.495 OA
ENDBRANCH  14  21
ENDBRANCH  13  17
ENDBRANCH   1  13
BRANCH   6  22
ATOM     22  C   LIG    1       -0.608   1.504  -0.141  0.00  0.00    +0.153 C 
BRANCH  22  23
ATOM     23  C   LIG    1        0.215   0.229   0.118  0.00  0.00    +0.182 C 
BRANCH  23  24
ATOM     24  O   LIG    1        1.604   0.527   0.016  0.00  0.00    -0.366 OA
BRANCH  24  25
ATOM     25  C   LIG    1        2.475  -0.592   0.138  0.00  0.00    +0.286 C 
BRANCH  25  26
ATOM     26  P   LIG    1        2.640  -1.032   1.929  0.00  0.00    +0.359 P 
ATOM     27  O   LIG    1        1.602  -1.924   2.515  0.00  0.00    -0.256 OA
BRANCH  26  28
ATOM     28  O   LIG    1        2.750   0.430   2.643  0.00  0.00    -0.297 OA
BRANCH  28  29
ATOM     29  C   LIG    1        2.938   0.525   4.045  0.00  0.00    +0.283 C 
BRANCH  29  30
ATOM     30  C   LIG    1        3.601   1.867   4.385  0.00  0.00    +0.413 C 
ATOM     31  F   LIG    1        2.852   2.894   3.984  0.00  0.00    -0.168 F 
ATOM     32  F   LIG    1        4.796   1.978   3.805  0.00  0.00    -0.168 F 
ATOM     33  F   LIG    1        3.778   1.988   5.700  0.00  0.00    -0.168 F 
ENDBRANCH  29  30
ENDBRANCH  28  29
ENDBRANCH  26  28
BRANCH  26  34
ATOM     34  O   LIG    1        4.159  -1.625   2.033  0.00  0.00    -0.297 OA
BRANCH  34  35
ATOM     35  C   LIG    1        5.305  -0.821   1.780  0.00  0.00    +0.283 C 
BRANCH  35  36
ATOM     36  C   LIG    1        6.248  -1.542   0.805  0.00  0.00    +0.413 C 
ATOM     37  F   LIG    1        5.663  -1.761  -0.372  0.00  0.00    -0.168 F 
ATOM     38  F   LIG    1        6.641  -2.719   1.292  0.00  0.00    -0.168 F 
ATOM     39  F   LIG    1        7.341  -0.814   0.582  0.00  0.00    -0.168 F 
ENDBRANCH  35  36
ENDBRANCH  34  35
ENDBRANCH  26  34
ENDBRANCH  25  26
ENDBRANCH  24  25
ENDBRANCH  23  24
ENDBRANCH  22  23
ENDBRANCH   6  22
TORSDOF 15
