REMARK  Name = DB06832
REMARK                            x       y       z     vdW  Elec       q    Type
REMARK                         _______ _______ _______ _____ _____    ______ ____
ROOT
ATOM      1  C   LIG    1       -4.313   1.210   0.000  0.00  0.00    +0.057 A 
ATOM      2  C   LIG    1       -4.447  -0.184   0.000  0.00  0.00    +0.120 A 
ATOM      3  C   LIG    1       -3.329  -1.024   0.000  0.00  0.00    +0.077 A 
ATOM      4  C   LIG    1       -2.059  -0.429   0.000  0.00  0.00    +0.114 A 
ATOM      5  N   LIG    1       -0.810  -0.982   0.000  0.00  0.00    -0.209 NA
ATOM      6  C   LIG    1       -0.001   0.060   0.000  0.00  0.00    +0.229 A 
ATOM      7  O   LIG    1       -0.625   1.279   0.000  0.00  0.00    -0.435 OA
ATOM      8  C   LIG    1       -1.952   0.971   0.000  0.00  0.00    +0.163 A 
ATOM      9  C   LIG    1       -3.057   1.837   0.000  0.00  0.00    +0.022 A 
ENDROOT
BRANCH   6  10
ATOM     10  C   LIG    1        1.495   0.037   0.000  0.00  0.00    +0.040 A 
ATOM     11  C   LIG    1        2.228   1.231   0.000  0.00  0.00    +0.055 A 
ATOM     12  C   LIG    1        3.623   1.211   0.000  0.00  0.00    +0.165 A 
ATOM     13  F   LIG    1        4.308   2.379   0.000  0.00  0.00    -0.202 F 
ATOM     14  C   LIG    1        4.303  -0.010   0.000  0.00  0.00    +0.152 A 
ATOM     15  C   LIG    1        3.583  -1.205   0.000  0.00  0.00    +0.049 A 
ATOM     16  C   LIG    1        2.188  -1.181   0.000  0.00  0.00    +0.017 A 
BRANCH  14  17
ATOM     17  O   LIG    1        5.674  -0.045   0.000  0.00  0.00    -0.504 OA
ATOM     18  H   LIG    1        6.027  -0.938   0.000  0.00  0.00    +0.292 HD
ENDBRANCH  14  17
ENDBRANCH   6  10
BRANCH   2  19
ATOM     19  O   LIG    1       -5.699  -0.737   0.000  0.00  0.00    -0.507 OA
ATOM     20  H   LIG    1       -5.686  -1.697   0.000  0.00  0.00    +0.292 HD
ENDBRANCH   2  19
BRANCH   9  21
ATOM     21  C   LIG    1       -2.866   3.301   0.000  0.00  0.00    +0.004 C 
ATOM     22  C   LIG    1       -3.832   4.236   0.000  0.00  0.00    +0.009 C 
ENDBRANCH   9  21
TORSDOF 4
