REMARK  Name = DB06721
REMARK                            x       y       z     vdW  Elec       q    Type
REMARK                         _______ _______ _______ _____ _____    ______ ____
ROOT
ATOM      1  C   LIG    1        7.055   5.005   0.170  0.00  0.00    +0.188 C 
ATOM      2  C   LIG    1        7.060   6.489   0.629  0.00  0.00    +0.344 C 
ATOM      3  O   LIG    1        5.903   7.203   0.481  0.00  0.00    -0.457 OA
ATOM      4  C   LIG    1        4.739   6.682  -0.181  0.00  0.00    +0.273 C 
ATOM      5  C   LIG    1        4.566   5.166  -0.076  0.00  0.00    +0.061 A 
ATOM      6  C   LIG    1        3.195   4.633  -0.175  0.00  0.00    +0.259 A 
ATOM      7  O   LIG    1        2.203   5.354  -0.308  0.00  0.00    -0.267 OA
ATOM      8  N   LIG    1        3.099   3.265  -0.114  0.00  0.00    -0.302 N 
ATOM      9  C   LIG    1        4.195   2.452   0.031  0.00  0.00    +0.071 A 
ATOM     10  C   LIG    1        3.663   1.084   0.039  0.00  0.00    +0.094 A 
ATOM     11  N   LIG    1        4.406  -0.035   0.168  0.00  0.00    -0.245 NA
ATOM     12  C   LIG    1        3.757  -1.228   0.167  0.00  0.00    +0.072 A 
ATOM     13  C   LIG    1        2.331  -1.329   0.036  0.00  0.00    +0.009 A 
ATOM     14  C   LIG    1        1.568  -0.111  -0.100  0.00  0.00    +0.012 A 
ATOM     15  C   LIG    1        1.762  -2.640   0.038  0.00  0.00    +0.010 A 
ATOM     16  C   LIG    1        2.562  -3.771   0.173  0.00  0.00    +0.001 A 
ATOM     17  C   LIG    1        3.939  -3.652   0.305  0.00  0.00    +0.002 A 
ATOM     18  C   LIG    1        4.542  -2.400   0.302  0.00  0.00    +0.028 A 
ATOM     19  C   LIG    1        2.286   1.102  -0.097  0.00  0.00    +0.009 A 
ATOM     20  C   LIG    1        5.451   2.924   0.138  0.00  0.00    +0.035 A 
ATOM     21  C   LIG    1        1.836   2.542  -0.200  0.00  0.00    +0.163 C 
ATOM     22  O   LIG    1        7.989   7.093   1.166  0.00  0.00    -0.247 OA
ATOM     23  C   LIG    1        5.660   4.371   0.095  0.00  0.00    +0.008 A 
ENDROOT
BRANCH   1  25
ATOM     24  C   LIG    1        7.148   5.577  -2.407  0.00  0.00    +0.007 C 
ATOM     25  C   LIG    1        7.793   4.868  -1.199  0.00  0.00    +0.048 C 
ENDBRANCH   1  25
BRANCH   1  26
ATOM     26  O   LIG    1        7.868   4.284   1.086  0.00  0.00    -0.373 OA
ATOM     27  H   LIG    1        7.468   4.338   1.957  0.00  0.00    +0.211 HD
ENDBRANCH   1  26
BRANCH  14  28
ATOM     28  C   LIG    1        0.093  -0.112  -0.203  0.00  0.00    +0.162 C 
ATOM     29  N   LIG    1       -0.589   0.812  -0.742  0.00  0.00    -0.092 NA
BRANCH  29  30
ATOM     30  O   LIG    1       -1.963   0.510  -0.630  0.00  0.00    -0.388 OA
BRANCH  30  31
ATOM     31  C   LIG    1       -2.793   1.538  -1.195  0.00  0.00    +0.130 C 
ATOM     32  C   LIG    1       -2.591   2.890  -0.466  0.00  0.00    +0.058 C 
ATOM     33  C   LIG    1       -2.543   1.680  -2.717  0.00  0.00    +0.058 C 
ATOM     34  C   LIG    1       -4.231   1.036  -0.958  0.00  0.00    +0.058 C 
ENDBRANCH  30  31
ENDBRANCH  29  30
ENDBRANCH  14  28
TORSDOF 5
