REMARK  Name = DB06124
REMARK                            x       y       z     vdW  Elec       q    Type
REMARK                         _______ _______ _______ _____ _____    ______ ____
ROOT
ATOM      1  C   LIG    1        1.246   0.719   0.601  0.00  0.00    +0.159 C 
ENDROOT
BRANCH   1   4
ATOM      2  N   LIG    1       -0.916   1.280  -0.378  0.00  0.00    -0.306 N 
ATOM      3  H   LIG    1       -0.398   2.023  -0.824  0.00  0.00    +0.149 HD
ATOM      4  C   LIG    1       -0.257   0.438   0.432  0.00  0.00    +0.234 C 
ATOM      5  O   LIG    1       -0.771  -0.511   1.025  0.00  0.00    -0.274 OA
BRANCH   2   6
ATOM      6  C   LIG    1       -2.353   1.238  -0.668  0.00  0.00    +0.129 C 
BRANCH   6   7
ATOM      7  C   LIG    1       -3.100   2.388   0.052  0.00  0.00    +0.028 C 
BRANCH   7   8
ATOM      8  C   LIG    1       -3.126   2.253   1.594  0.00  0.00    +0.017 C 
BRANCH   8   9
ATOM      9  C   LIG    1       -3.714   3.471   2.333  0.00  0.00    +0.084 C 
BRANCH   9  10
ATOM     10  N   LIG    1       -2.828   4.650   2.321  0.00  0.00    -0.283 NA
ATOM     11  H   LIG    1       -2.010   4.588   2.911  0.00  0.00    +0.125 HD
BRANCH  10  12
ATOM     12  C   LIG    1       -2.909   5.747   1.560  0.00  0.00    +0.167 C 
BRANCH  12  13
ATOM     13  N   LIG    1       -3.864   5.958   0.659  0.00  0.00    -0.297 NA
ATOM     14  H   LIG    1       -4.582   5.263   0.517  0.00  0.00    +0.121 HD
ATOM     15  H   LIG    1       -3.875   6.816   0.127  0.00  0.00    +0.121 HD
ENDBRANCH  12  13
BRANCH  12  16
ATOM     16  N   LIG    1       -1.980   6.678   1.711  0.00  0.00    -0.297 NA
ATOM     17  H   LIG    1       -1.439   6.717   2.563  0.00  0.00    +0.121 HD
ATOM     18  H   LIG    1       -1.806   7.341   0.969  0.00  0.00    +0.121 HD
ENDBRANCH  12  16
ENDBRANCH  10  12
ENDBRANCH   9  10
ENDBRANCH   8   9
ENDBRANCH   7   8
ENDBRANCH   6   7
BRANCH   6  19
ATOM     19  C   LIG    1       -2.619   1.249  -2.186  0.00  0.00    +0.270 C 
BRANCH  19  20
ATOM     20  O   LIG    1       -2.191   2.478  -2.694  0.00  0.00    -0.350 OA
BRANCH  20  21
ATOM     21  C   LIG    1       -2.534   2.716  -4.053  0.00  0.00    +0.159 C 
ATOM     22  C   LIG    1       -1.962   4.073  -4.473  0.00  0.00    +0.034 C 
ENDBRANCH  20  21
ENDBRANCH  19  20
BRANCH  19  23
ATOM     23  O   LIG    1       -1.923   0.192  -2.787  0.00  0.00    -0.350 OA
BRANCH  23  24
ATOM     24  C   LIG    1       -2.568  -1.077  -2.763  0.00  0.00    +0.159 C 
ATOM     25  C   LIG    1       -1.646  -2.104  -3.424  0.00  0.00    +0.034 C 
ENDBRANCH  23  24
ENDBRANCH  19  23
ENDBRANCH   6  19
ENDBRANCH   2   6
ENDBRANCH   1   4
BRANCH   1  26
ATOM     26  N   LIG    1        1.636   0.723   2.012  0.00  0.00    -0.304 N 
ATOM     27  H   LIG    1        2.227  -0.043   2.301  0.00  0.00    +0.149 HD
ATOM     28  C   LIG    1        1.252   1.632   2.928  0.00  0.00    +0.214 C 
ATOM     29  O   LIG    1        0.516   2.583   2.662  0.00  0.00    -0.276 OA
BRANCH  28  30
ATOM     30  C   LIG    1        1.733   1.440   4.376  0.00  0.00    +0.105 C 
BRANCH  30  31
ATOM     31  C   LIG    1        3.039   0.625   4.581  0.00  0.00    +0.105 C 
BRANCH  31  32
ATOM     32  C   LIG    1        4.339   1.339   4.178  0.00  0.00    +0.214 C 
ATOM     33  N   LIG    1        5.402   0.546   3.950  0.00  0.00    -0.314 N 
ATOM     34  H   LIG    1        5.281  -0.450   4.064  0.00  0.00    +0.149 HD
ATOM     35  O   LIG    1        4.380   2.568   4.096  0.00  0.00    -0.276 OA
BRANCH  33  36
ATOM     36  C   LIG    1        6.775   0.987   3.653  0.00  0.00    +0.067 C 
BRANCH  36  37
ATOM     37  C   LIG    1        6.874   1.859   2.359  0.00  0.00    -0.053 C 
BRANCH  37  38
ATOM     38  N   LIG    1        7.929   1.378   1.317  0.00  0.00    +0.376 N 
ATOM     39  C   LIG    1        7.558  -0.003   0.723  0.00  0.00    -0.093 C 
ATOM     40  C   LIG    1        9.350   1.316   1.928  0.00  0.00    -0.093 C 
ATOM     41  C   LIG    1        7.952   2.401   0.155  0.00  0.00    -0.093 C 
ENDBRANCH  37  38
ENDBRANCH  36  37
BRANCH  36  42
ATOM     42  C   LIG    1        7.473   1.676   4.870  0.00  0.00    +0.140 C 
BRANCH  42  43
ATOM     43  C   LIG    1        7.674   0.776   6.115  0.00  0.00    +0.306 C 
ATOM     44  O   LIG    1        7.892  -0.447   5.957  0.00  0.00    -0.251 OA
BRANCH  43  45
ATOM     45  O   LIG    1        7.648   1.345   7.229  0.00  0.00    -0.481 OA
ATOM     46  H   LIG    1        7.765   0.846   8.013  0.00  0.00    +0.295 HD
ENDBRANCH  43  45
ENDBRANCH  42  43
ENDBRANCH  36  42
ENDBRANCH  33  36
ENDBRANCH  31  32
ENDBRANCH  30  31
ENDBRANCH  28  30
ENDBRANCH   1  26
BRANCH   1  47
ATOM     47  C   LIG    1        2.074  -0.339  -0.164  0.00  0.00    +0.034 C 
BRANCH  47  48
ATOM     48  C   LIG    1        3.603  -0.113  -0.153  0.00  0.00    -0.015 C 
ATOM     49  C   LIG    1        4.332  -1.302  -0.817  0.00  0.00    +0.007 C 
ATOM     50  C   LIG    1        4.002   1.243  -0.776  0.00  0.00    +0.007 C 
ENDBRANCH  47  48
ENDBRANCH   1  47
TORSDOF 26
