REMARK  Name = DB06803
REMARK                            x       y       z     vdW  Elec       q    Type
REMARK                         _______ _______ _______ _____ _____    ______ ____
ROOT
ATOM      1  N   LIG    1        1.390  -0.047   0.144  0.00  0.00    -0.280 N 
ATOM      2  H   LIG    1        1.797   0.849  -0.079  0.00  0.00    +0.155 HD
ATOM      3  C   LIG    1        2.263  -1.026   0.474  0.00  0.00    +0.252 C 
ATOM      4  O   LIG    1        1.944  -2.157   0.843  0.00  0.00    -0.270 OA
ENDROOT
BRANCH   1  10
ATOM      5  C   LIG    1       -2.184  -1.170   0.112  0.00  0.00    +0.034 A 
ATOM      6  C   LIG    1       -2.847   0.061   0.028  0.00  0.00    +0.123 A 
ATOM      7  C   LIG    1       -2.074   1.229  -0.022  0.00  0.00    +0.054 A 
ATOM      8  C   LIG    1       -0.680   1.177   0.014  0.00  0.00    +0.064 A 
ATOM      9 CL   LIG    1        0.194   2.672  -0.057  0.00  0.00    -0.082 Cl
ATOM     10  C   LIG    1       -0.021  -0.061   0.107  0.00  0.00    +0.052 A 
ATOM     11  C   LIG    1       -0.793  -1.234   0.150  0.00  0.00    +0.027 A 
BRANCH   6  12
ATOM     12  N   LIG    1       -4.329   0.127  -0.012  0.00  0.00    +0.006 N 
ATOM     13  O   LIG    1       -4.867   1.229  -0.074  0.00  0.00    -0.130 OA
BRANCH  12  14
ATOM     14  O   LIG    1       -4.965  -0.923   0.018  0.00  0.00    -0.396 OA
ATOM     15  H   LIG    1       -4.513  -1.743   0.065  0.00  0.00    +0.329 HD
ENDBRANCH  12  14
ENDBRANCH   6  12
ENDBRANCH   1  10
BRANCH   3  16
ATOM     16  C   LIG    1        3.723  -0.632   0.384  0.00  0.00    +0.080 A 
ATOM     17  C   LIG    1        4.154   0.226  -0.644  0.00  0.00    +0.036 A 
ATOM     18  C   LIG    1        5.493   0.598  -0.758  0.00  0.00    +0.042 A 
ATOM     19 CL   LIG    1        5.991   1.655  -2.028  0.00  0.00    -0.084 Cl
ATOM     20  C   LIG    1        6.428   0.115   0.153  0.00  0.00    +0.023 A 
ATOM     21  C   LIG    1        6.024  -0.739   1.177  0.00  0.00    +0.047 A 
ATOM     22  C   LIG    1        4.684  -1.114   1.300  0.00  0.00    +0.129 A 
BRANCH  22  23
ATOM     23  O   LIG    1        4.356  -1.942   2.346  0.00  0.00    -0.506 OA
ATOM     24  H   LIG    1        5.113  -2.189   2.881  0.00  0.00    +0.292 HD
ENDBRANCH  22  23
ENDBRANCH   3  16
TORSDOF 5
