REMARK  Name = DB06314
REMARK                            x       y       z     vdW  Elec       q    Type
REMARK                         _______ _______ _______ _____ _____    ______ ____
ROOT
ATOM      1  C   LIG    1        1.527  -0.091   0.069  0.00  0.00    +0.095 A 
ATOM      2  N   LIG    1        2.134   1.126   0.022  0.00  0.00    -0.163 NA
ATOM      3  N   LIG    1        3.478   1.091   0.070  0.00  0.00    -0.187 N 
ATOM      4  C   LIG    1        4.365   2.146   0.033  0.00  0.00    +0.217 A 
ATOM      5  N   LIG    1        5.601   1.691   0.095  0.00  0.00    -0.120 NA
ATOM      6  N   LIG    1        5.581   0.308   0.181  0.00  0.00    -0.127 NA
ATOM      7  C   LIG    1        4.280  -0.056   0.163  0.00  0.00    +0.179 A 
ATOM      8  C   LIG    1        3.625  -1.297   0.214  0.00  0.00    +0.052 A 
ATOM      9  C   LIG    1        2.228  -1.301   0.164  0.00  0.00    +0.034 A 
ENDROOT
BRANCH   1  14
ATOM     10  C   LIG    1       -3.380  -1.303  -0.066  0.00  0.00    +0.172 C 
ATOM     11  N   LIG    1       -2.110  -0.599  -0.059  0.00  0.00    -0.274 N 
ATOM     12  N   LIG    1       -2.098   0.736  -0.126  0.00  0.00    -0.179 NA
ATOM     13  C   LIG    1       -0.824   1.052  -0.090  0.00  0.00    +0.144 A 
ATOM     14  C   LIG    1        0.034  -0.061   0.006  0.00  0.00    +0.039 A 
ATOM     15  C   LIG    1       -0.851  -1.132   0.028  0.00  0.00    +0.118 A 
ENDBRANCH   1  14
BRANCH   4  16
ATOM     16  S   LIG    1        3.930   3.845  -0.099  0.00  0.00    -0.048 S 
BRANCH  16  17
ATOM     17  C   LIG    1        3.852   3.966  -1.857  0.00  0.00    +0.016 A 
ATOM     18  C   LIG    1        2.684   3.598  -2.523  0.00  0.00    +0.025 A 
ATOM     19  C   LIG    1        2.611   3.699  -3.934  0.00  0.00    +0.001 A 
ATOM     20  C   LIG    1        3.743   4.183  -4.660  0.00  0.00    +0.071 A 
ATOM     21  N   LIG    1        3.729   4.301  -6.018  0.00  0.00    -0.255 NA
ATOM     22  C   LIG    1        2.603   3.945  -6.684  0.00  0.00    +0.111 A 
ATOM     23  C   LIG    1        1.457   3.466  -6.056  0.00  0.00    +0.020 A 
ATOM     24  C   LIG    1        4.912   4.553  -3.952  0.00  0.00    +0.029 A 
ATOM     25  C   LIG    1        1.452   3.340  -4.668  0.00  0.00    +0.011 A 
ATOM     26  C   LIG    1        4.953   4.444  -2.564  0.00  0.00    +0.017 A 
ENDBRANCH  16  17
ENDBRANCH   4  16
TORSDOF 3
