REMARK  Name = DB06200
REMARK                            x       y       z     vdW  Elec       q    Type
REMARK                         _______ _______ _______ _____ _____    ______ ____
ROOT
ATOM      1  N   LIG    1       -0.194   0.160   0.161  0.00  0.00    +0.380 N 
ATOM      2  H   LIG    1       -0.829  -0.185  -0.544  0.00  0.00    -0.082 HD
ATOM      3  C   LIG    1       -0.503   1.674   0.316  0.00  0.00    -0.077 C 
ATOM      4  C   LIG    1       -1.901   1.898   0.971  0.00  0.00    -0.038 C 
ATOM      5  C   LIG    1       -3.063   1.525  -0.002  0.00  0.00    -0.077 C 
ATOM      6  N   LIG    1       -3.150  -0.012  -0.206  0.00  0.00    +0.380 N 
ATOM      7  H   LIG    1       -2.328  -0.272  -0.731  0.00  0.00    -0.082 HD
ATOM      8  C   LIG    1       -3.077  -0.831   1.109  0.00  0.00    -0.077 C 
ATOM      9  C   LIG    1       -1.899  -0.348   2.008  0.00  0.00    -0.038 C 
ATOM     10  C   LIG    1       -2.029   1.164   2.347  0.00  0.00    -0.030 C 
ATOM     11  C   LIG    1       -0.990   1.650   3.393  0.00  0.00    +0.007 C 
ATOM     12  C   LIG    1       -1.569   2.904   4.057  0.00  0.00    +0.001 C 
ATOM     13  C   LIG    1       -3.088   2.816   3.867  0.00  0.00    +0.001 C 
ATOM     14  C   LIG    1       -3.341   1.513   3.101  0.00  0.00    +0.007 C 
ATOM     15  C   LIG    1       -0.491  -0.680   1.430  0.00  0.00    -0.077 C 
ENDROOT
BRANCH   1  16
ATOM     16  C   LIG    1        1.243  -0.106  -0.346  0.00  0.00    -0.075 C 
BRANCH  16  17
ATOM     17  C   LIG    1        1.441   0.481  -1.756  0.00  0.00    -0.028 C 
ATOM     18  C   LIG    1        2.266  -0.273  -2.769  0.00  0.00    +0.002 C 
ATOM     19  C   LIG    1        0.763  -0.160  -2.943  0.00  0.00    +0.002 C 
ENDBRANCH  16  17
ENDBRANCH   1  16
BRANCH   6  20
ATOM     20  C   LIG    1       -4.381  -0.433  -1.043  0.00  0.00    -0.075 C 
BRANCH  20  21
ATOM     21  C   LIG    1       -4.294   0.148  -2.468  0.00  0.00    -0.028 C 
ATOM     22  C   LIG    1       -3.279  -0.395  -3.445  0.00  0.00    +0.002 C 
ATOM     23  C   LIG    1       -4.756  -0.682  -3.640  0.00  0.00    +0.002 C 
ENDBRANCH  20  21
ENDBRANCH   6  20
TORSDOF 4
