REMARK  Name = DB06787
REMARK                            x       y       z     vdW  Elec       q    Type
REMARK                         _______ _______ _______ _____ _____    ______ ____
ROOT
ATOM      1  C   LIG    1       -0.056  -0.012  -0.049  0.00  0.00    +0.106 C 
ENDROOT
BRANCH   1   2
ATOM      2  C   LIG    1       -0.616   1.458   0.090  0.00  0.00    +0.026 C 
ATOM      3  C   LIG    1       -2.170   1.530   0.068  0.00  0.00    +0.007 C 
ATOM      4  C   LIG    1       -2.676   2.987   0.041  0.00  0.00    +0.000 C 
ATOM      5  C   LIG    1       -2.131   3.801   1.232  0.00  0.00    +0.000 C 
ATOM      6  C   LIG    1       -0.598   3.686   1.366  0.00  0.00    +0.000 C 
ATOM      7  C   LIG    1       -0.142   2.213   1.369  0.00  0.00    +0.007 C 
ENDBRANCH   1   2
BRANCH   1   8
ATOM      8  C   LIG    1       -0.617  -0.765  -1.287  0.00  0.00    -0.015 A 
ATOM      9  C   LIG    1       -0.685  -0.124  -2.534  0.00  0.00    +0.006 A 
ATOM     10  C   LIG    1       -1.182  -0.788  -3.652  0.00  0.00    +0.000 A 
ATOM     11  C   LIG    1       -1.616  -2.105  -3.535  0.00  0.00    +0.000 A 
ATOM     12  C   LIG    1       -1.555  -2.761  -2.310  0.00  0.00    +0.000 A 
ATOM     13  C   LIG    1       -1.057  -2.096  -1.193  0.00  0.00    +0.006 A 
ENDBRANCH   1   8
BRANCH   1  14
ATOM     14  O   LIG    1       -0.402  -0.676   1.162  0.00  0.00    -0.382 OA
ATOM     15  H   LIG    1       -0.116  -0.133   1.899  0.00  0.00    +0.211 HD
ENDBRANCH   1  14
BRANCH   1  16
ATOM     16  C   LIG    1        1.504  -0.086  -0.063  0.00  0.00    +0.124 C 
BRANCH  16  17
ATOM     17  N   LIG    1        2.116   0.608  -1.212  0.00  0.00    -0.303 NA
ATOM     18  C   LIG    1        2.840  -0.269  -2.140  0.00  0.00    +0.066 C 
ATOM     19  C   LIG    1        4.185  -0.765  -1.550  0.00  0.00    -0.060 C 
ATOM     20  N   LIG    1        5.077   0.433  -1.117  0.00  0.00    +0.378 N 
ATOM     21  C   LIG    1        4.270   1.412  -0.218  0.00  0.00    -0.060 C 
ATOM     22  C   LIG    1        6.262  -0.119  -0.289  0.00  0.00    -0.092 C 
ATOM     23  C   LIG    1        5.636   1.171  -2.360  0.00  0.00    -0.092 C 
ATOM     24  C   LIG    1        2.922   1.788  -0.884  0.00  0.00    +0.066 C 
ENDBRANCH  16  17
ENDBRANCH   1  16
TORSDOF 5
