REMARK  Name = DB06448
REMARK                            x       y       z     vdW  Elec       q    Type
REMARK                         _______ _______ _______ _____ _____    ______ ____
ROOT
ATOM      1  C   LIG    1        5.293   0.396  -0.931  0.00  0.00    +0.005 C 
ATOM      2  C   LIG    1        5.289   1.716  -0.099  0.00  0.00    +0.023 C 
ATOM      3  C   LIG    1        5.027   1.552   1.420  0.00  0.00    +0.108 C 
ATOM      4  N   LIG    1        3.883   0.640   1.572  0.00  0.00    -0.301 N 
ATOM      5  C   LIG    1        2.613   1.136   1.536  0.00  0.00    +0.216 C 
ATOM      6  O   LIG    1        2.381   2.344   1.632  0.00  0.00    -0.276 OA
ATOM      7  C   LIG    1        4.236  -0.731   1.179  0.00  0.00    +0.108 C 
ATOM      8  C   LIG    1        4.401  -0.745  -0.356  0.00  0.00    +0.023 C 
ENDROOT
BRANCH   1  24
ATOM      9 BR   LIG    1        2.321   0.186  -4.059  0.00  0.00    -0.050 Br
ATOM     10  C   LIG    1        3.869  -0.934  -4.098  0.00  0.00    +0.023 A 
ATOM     11  C   LIG    1        3.793  -2.064  -4.908  0.00  0.00    +0.035 A 
ATOM     12  C   LIG    1        4.872  -2.931  -5.004  0.00  0.00    +0.042 A 
ATOM     13  C   LIG    1        6.029  -2.667  -4.283  0.00  0.00    +0.024 A 
ATOM     14  C   LIG    1        6.134  -1.539  -3.460  0.00  0.00    -0.041 A 
ATOM     15  C   LIG    1        7.424  -1.337  -2.662  0.00  0.00    +0.040 C 
ATOM     16  C   LIG    1        8.164   0.027  -2.670  0.00  0.00    +0.041 C 
ATOM     17  C   LIG    1        7.520   1.296  -3.232  0.00  0.00    -0.024 A 
ATOM     18  C   LIG    1        8.324   2.263  -3.853  0.00  0.00    +0.022 A 
ATOM     19  C   LIG    1        7.775   3.454  -4.322  0.00  0.00    +0.036 A 
ATOM     20  C   LIG    1        6.412   3.664  -4.152  0.00  0.00    +0.126 A 
ATOM     21  N   LIG    1        5.606   2.758  -3.552  0.00  0.00    -0.258 NA
ATOM     22 BR   LIG    1        8.866   4.765  -5.168  0.00  0.00    -0.049 Br
ATOM     23  C   LIG    1        6.147   1.593  -3.094  0.00  0.00    +0.052 A 
ATOM     24  C   LIG    1        5.154   0.610  -2.470  0.00  0.00    +0.072 C 
ATOM     25 CL   LIG    1        4.774  -4.331  -6.009  0.00  0.00    -0.083 Cl
ATOM     26  C   LIG    1        5.038  -0.647  -3.356  0.00  0.00    -0.021 A 
ENDBRANCH   1  24
BRANCH   5  27
ATOM     27  C   LIG    1        1.398   0.179   1.549  0.00  0.00    +0.099 C 
BRANCH  27  28
ATOM     28  C   LIG    1        0.236   0.622   0.621  0.00  0.00    +0.001 C 
ATOM     29  C   LIG    1        0.624   0.671  -0.882  0.00  0.00    +0.023 C 
ATOM     30  C   LIG    1       -0.571   1.092  -1.770  0.00  0.00    +0.109 C 
ATOM     31  N   LIG    1       -1.654   0.120  -1.526  0.00  0.00    -0.286 N 
ATOM     32  C   LIG    1       -1.751  -0.979  -2.329  0.00  0.00    +0.300 C 
ATOM     33  N   LIG    1       -2.493  -1.996  -1.871  0.00  0.00    -0.313 N 
ATOM     34  H   LIG    1       -2.598  -2.833  -2.425  0.00  0.00    +0.146 HD
ATOM     35  H   LIG    1       -2.948  -1.932  -0.973  0.00  0.00    +0.146 HD
ATOM     36  O   LIG    1       -1.202  -1.068  -3.428  0.00  0.00    -0.253 OA
ATOM     37  C   LIG    1       -2.170   0.167  -0.139  0.00  0.00    +0.109 C 
ATOM     38  C   LIG    1       -1.016  -0.274   0.794  0.00  0.00    +0.023 C 
ENDBRANCH  27  28
ENDBRANCH   5  27
TORSDOF 3
