REMARK  Name = DB06784
REMARK                            x       y       z     vdW  Elec       q    Type
REMARK                         _______ _______ _______ _____ _____    ______ ____
ROOT
ATOM      1  C   LIG    1       -0.086   0.076  -0.115  0.00  0.00    +0.182 C 
ENDROOT
BRANCH   1   2
ATOM      2  O   LIG    1       -0.424   1.460   0.036  0.00  0.00    -0.376 OA
ATOM      3  H   LIG    1       -0.024   1.782   0.845  0.00  0.00    +0.211 HD
ENDBRANCH   1   2
BRANCH   1   4
ATOM      4  C   LIG    1       -0.693  -0.547  -1.434  0.00  0.00    +0.338 C 
ATOM      5  O   LIG    1       -0.458  -1.759  -1.662  0.00  0.00    -0.248 OA
BRANCH   4   6
ATOM      6  O   LIG    1       -1.380   0.162  -2.209  0.00  0.00    -0.479 OA
ATOM      7  H   LIG    1       -1.641  -0.174  -3.044  0.00  0.00    +0.295 HD
ENDBRANCH   4   6
ENDBRANCH   1   4
BRANCH   1   8
ATOM      8  C   LIG    1       -0.613  -0.692   1.163  0.00  0.00    +0.167 C 
BRANCH   8   9
ATOM      9  C   LIG    1       -2.143  -0.749   1.448  0.00  0.00    +0.308 C 
ATOM     10  O   LIG    1       -2.534  -1.693   2.172  0.00  0.00    -0.251 OA
BRANCH   9  11
ATOM     11  O   LIG    1       -2.903   0.144   1.009  0.00  0.00    -0.481 OA
ATOM     12  H   LIG    1       -3.306   0.045   0.169  0.00  0.00    +0.295 HD
ENDBRANCH   9  11
ENDBRANCH   8   9
ENDBRANCH   1   8
BRANCH   1  13
ATOM     13  C   LIG    1        1.491  -0.040  -0.113  0.00  0.00    +0.167 C 
BRANCH  13  14
ATOM     14  C   LIG    1        2.311   0.632  -1.254  0.00  0.00    +0.308 C 
ATOM     15  O   LIG    1        1.850   1.622  -1.867  0.00  0.00    -0.251 OA
BRANCH  14  16
ATOM     16  O   LIG    1        3.452   0.159  -1.466  0.00  0.00    -0.481 OA
ATOM     17  H   LIG    1        3.626  -0.304  -2.261  0.00  0.00    +0.295 HD
ENDBRANCH  14  16
ENDBRANCH  13  14
ENDBRANCH   1  13
TORSDOF 9
