REMARK  Name = DB06821
REMARK                            x       y       z     vdW  Elec       q    Type
REMARK                         _______ _______ _______ _____ _____    ______ ____
ROOT
ATOM      1  S   LIG    1        2.421  -1.607   0.000  0.00  0.00    +0.075 S 
ATOM      2  O   LIG    1        2.163  -2.289   1.274  0.00  0.00    -0.150 OA
ATOM      3  O   LIG    1        2.163  -2.289  -1.274  0.00  0.00    -0.150 OA
ENDROOT
BRANCH   1   4
ATOM      4  C   LIG    1        4.114  -1.032   0.000  0.00  0.00    +0.109 A 
ATOM      5  C   LIG    1        4.767  -0.799   1.212  0.00  0.00    +0.030 A 
ATOM      6  C   LIG    1        6.082  -0.340   1.211  0.00  0.00    +0.024 A 
ATOM      7  C   LIG    1        6.736  -0.112   0.000  0.00  0.00    +0.025 A 
ATOM      8  C   LIG    1        6.082  -0.340  -1.211  0.00  0.00    +0.024 A 
ATOM      9  C   LIG    1        4.767  -0.799  -1.212  0.00  0.00    +0.030 A 
BRANCH   7  10
ATOM     10  N   LIG    1        8.051   0.348   0.000  0.00  0.00    -0.358 N 
ATOM     11  H   LIG    1        8.520   0.514  -0.879  0.00  0.00    +0.142 HD
ATOM     12  H   LIG    1        8.520   0.514   0.879  0.00  0.00    +0.142 HD
ENDBRANCH   7  10
ENDBRANCH   1   4
BRANCH   1  13
ATOM     13  N   LIG    1        1.438  -0.130   0.000  0.00  0.00    -0.184 N 
ATOM     14  H   LIG    1        1.911   0.761   0.000  0.00  0.00    +0.177 HD
BRANCH  13  18
ATOM     15  C   LIG    1       -2.692  -0.051   0.000  0.00  0.00    +0.156 A 
ATOM     16  C   LIG    1       -1.984  -1.265   0.000  0.00  0.00    +0.161 A 
ATOM     17  N   LIG    1       -0.627  -1.322   0.000  0.00  0.00    -0.218 NA
ATOM     18  C   LIG    1        0.038  -0.134   0.000  0.00  0.00    +0.235 A 
ATOM     19  N   LIG    1       -0.554   1.088   0.000  0.00  0.00    -0.218 NA
ATOM     20  C   LIG    1       -1.913   1.109   0.000  0.00  0.00    +0.161 A 
BRANCH  15  22
ATOM     21  C   LIG    1       -4.860  -1.104   0.000  0.00  0.00    +0.277 C 
ATOM     22  O   LIG    1       -4.066   0.077   0.000  0.00  0.00    -0.492 OA
ENDBRANCH  15  22
ENDBRANCH  13  18
ENDBRANCH   1  13
TORSDOF 5
