REMARK  Name = DB06231
REMARK                            x       y       z     vdW  Elec       q    Type
REMARK                         _______ _______ _______ _____ _____    ______ ____
ROOT
ATOM      1  C   LIG    1       -0.084   0.125   0.009  0.00  0.00    +0.044 C 
ATOM      2  C   LIG    1        1.431   0.036   0.002  0.00  0.00    -0.048 A 
ATOM      3  C   LIG    1        2.210   1.196   0.008  0.00  0.00    +0.034 A 
ATOM      4  C   LIG    1        3.609   1.120   0.002  0.00  0.00    +0.138 A 
ATOM      5  C   LIG    1        4.235  -0.142  -0.014  0.00  0.00    +0.057 A 
ATOM      6  C   LIG    1        3.443  -1.299  -0.018  0.00  0.00    +0.025 A 
ATOM      7  C   LIG    1        2.053  -1.211  -0.012  0.00  0.00    +0.005 A 
ENDROOT
BRANCH   5   8
ATOM      8  N   LIG    1        5.616  -0.254  -0.005  0.00  0.00    -0.332 N 
ATOM      9  C   LIG    1        6.285  -0.826  -1.185  0.00  0.00    +0.086 C 
ATOM     10  C   LIG    1        7.804  -0.546  -1.227  0.00  0.00    -0.063 C 
ATOM     11  N   LIG    1        8.461  -1.082   0.052  0.00  0.00    +0.381 N 
ATOM     12  H   LIG    1        8.357  -2.086   0.095  0.00  0.00    -0.086 HD
ATOM     13  H   LIG    1        9.449  -0.872   0.049  0.00  0.00    -0.086 HD
ATOM     14  C   LIG    1        7.788  -0.436   1.271  0.00  0.00    -0.063 C 
ATOM     15  C   LIG    1        6.269  -0.712   1.231  0.00  0.00    +0.086 C 
ENDBRANCH   5   8
BRANCH   4  16
ATOM     16  S   LIG    1        4.584   2.644   0.005  0.00  0.00    +0.111 S 
ATOM     17  O   LIG    1        5.375   2.523  -1.225  0.00  0.00    -0.142 OA
ATOM     18  O   LIG    1        5.350   2.532   1.253  0.00  0.00    -0.142 OA
BRANCH  16  19
ATOM     19  O   LIG    1        3.586   3.720  -0.009  0.00  0.00    -0.250 OA
ATOM     20  H   LIG    1        3.110   3.731   0.836  0.00  0.00    +0.245 HD
ENDBRANCH  16  19
ENDBRANCH   4  16
TORSDOF 3
