REMARK  Name = DB06409
REMARK                            x       y       z     vdW  Elec       q    Type
REMARK                         _______ _______ _______ _____ _____    ______ ____
ROOT
ATOM      1  C   LIG    1        1.767   0.193  -1.794  0.00  0.00    +0.185 C 
ATOM      2  C   LIG    1        2.219   1.625  -1.497  0.00  0.00    +0.004 C 
ATOM      3  C   LIG    1        3.457   2.119  -1.678  0.00  0.00    -0.026 C 
ATOM      4  C   LIG    1        4.624   1.333  -2.248  0.00  0.00    +0.012 C 
ATOM      5  C   LIG    1        6.028   1.616  -1.607  0.00  0.00    -0.057 C 
ATOM      6  C   LIG    1        6.098   1.196  -0.099  0.00  0.00    +0.021 C 
ATOM      7  C   LIG    1        5.469  -0.171   0.175  0.00  0.00    -0.041 A 
ATOM      8  C   LIG    1        5.632  -0.920   1.351  0.00  0.00    +0.007 A 
ATOM      9  C   LIG    1        4.912  -2.111   1.556  0.00  0.00    +0.049 A 
ATOM     10  C   LIG    1        3.983  -2.555   0.602  0.00  0.00    +0.159 A 
ATOM     11  C   LIG    1        3.827  -1.802  -0.558  0.00  0.00    +0.166 A 
ATOM     12  O   LIG    1        2.929  -1.982  -1.587  0.00  0.00    -0.481 OA
ATOM     13  C   LIG    1        4.595  -0.690  -0.776  0.00  0.00    +0.011 A 
ATOM     14  N   LIG    1        7.141   0.851  -2.397  0.00  0.00    +0.380 N 
ATOM     15  H   LIG    1        7.983   0.897  -1.842  0.00  0.00    -0.082 HD
ATOM     16  C   LIG    1        7.474   1.575  -3.722  0.00  0.00    -0.096 C 
ATOM     17  C   LIG    1        6.859  -0.653  -2.680  0.00  0.00    -0.078 C 
ATOM     18  C   LIG    1        5.391  -0.866  -3.132  0.00  0.00    -0.003 C 
ATOM     19  C   LIG    1        4.366  -0.196  -2.172  0.00  0.00    +0.042 C 
ATOM     20  C   LIG    1        2.921  -0.739  -2.338  0.00  0.00    +0.217 C 
ENDROOT
BRANCH  10  21
ATOM     21  O   LIG    1        3.225  -3.676   0.815  0.00  0.00    -0.503 OA
ATOM     22  H   LIG    1        2.593  -3.836   0.110  0.00  0.00    +0.292 HD
ENDBRANCH  10  21
BRANCH   1  23
ATOM     23  O   LIG    1        1.230  -0.394  -0.601  0.00  0.00    -0.338 OA
BRANCH  23  28
ATOM     24  C   LIG    1       -1.605   1.566   0.434  0.00  0.00    +0.260 C 
ATOM     25  C   LIG    1       -2.150   0.719   1.624  0.00  0.00    +0.185 C 
ATOM     26  C   LIG    1       -1.916  -0.787   1.363  0.00  0.00    +0.179 C 
ATOM     27  C   LIG    1       -0.472  -1.075   0.884  0.00  0.00    +0.201 C 
ATOM     28  C   LIG    1       -0.103  -0.130  -0.272  0.00  0.00    +0.283 C 
ATOM     29  O   LIG    1       -0.246   1.194   0.165  0.00  0.00    -0.331 OA
BRANCH  24  30
ATOM     30  C   LIG    1       -1.686   3.082   0.767  0.00  0.00    +0.337 C 
ATOM     31  O   LIG    1       -2.736   3.688   0.453  0.00  0.00    -0.248 OA
BRANCH  30  32
ATOM     32  O   LIG    1       -0.713   3.622   1.344  0.00  0.00    -0.479 OA
ATOM     33  H   LIG    1       -0.740   4.535   1.554  0.00  0.00    +0.295 HD
ENDBRANCH  30  32
ENDBRANCH  24  30
BRANCH  25  34
ATOM     34  O   LIG    1       -3.523   0.966   1.898  0.00  0.00    -0.386 OA
ATOM     35  H   LIG    1       -3.637   1.910   2.038  0.00  0.00    +0.210 HD
ENDBRANCH  25  34
BRANCH  27  36
ATOM     36  O   LIG    1       -0.313  -2.434   0.513  0.00  0.00    -0.384 OA
ATOM     37  H   LIG    1       -0.789  -2.974   1.149  0.00  0.00    +0.210 HD
ENDBRANCH  27  36
BRANCH  26  38
ATOM     38  O   LIG    1       -2.241  -1.568   2.502  0.00  0.00    -0.386 OA
ATOM     39  H   LIG    1       -3.014  -1.180   2.920  0.00  0.00    +0.210 HD
ENDBRANCH  26  38
ENDBRANCH  23  28
ENDBRANCH   1  23
TORSDOF 8
