REMARK  Name = DB06708
REMARK                            x       y       z     vdW  Elec       q    Type
REMARK                         _______ _______ _______ _____ _____    ______ ____
ROOT
ATOM      1  C   LIG    1        3.572   0.519   1.075  0.00  0.00    -0.008 A 
ATOM      2  C   LIG    1        4.334  -0.050   0.042  0.00  0.00    +0.026 A 
ATOM      3  C   LIG    1        5.721   0.054   0.030  0.00  0.00    +0.042 A 
ATOM      4 CL   LIG    1        6.628  -0.632  -1.269  0.00  0.00    -0.084 Cl
ATOM      5  C   LIG    1        6.377   0.714   1.062  0.00  0.00    +0.029 A 
ATOM      6  C   LIG    1        5.651   1.264   2.122  0.00  0.00    -0.008 A 
ATOM      7  C   LIG    1        6.125   1.990   3.323  0.00  0.00    -0.009 C 
ATOM      8  C   LIG    1        7.378   2.278   3.745  0.00  0.00    +0.017 C 
ATOM      9  C   LIG    1        4.888   2.376   4.018  0.00  0.00    -0.008 A 
ATOM     10  C   LIG    1        4.723   3.101   5.204  0.00  0.00    +0.029 A 
ATOM     11  C   LIG    1        3.443   3.338   5.706  0.00  0.00    +0.042 A 
ATOM     12 CL   LIG    1        3.240   4.231   7.169  0.00  0.00    -0.084 Cl
ATOM     13  C   LIG    1        2.330   2.849   5.026  0.00  0.00    +0.020 A 
ATOM     14  C   LIG    1        2.493   2.127   3.845  0.00  0.00    +0.010 A 
ATOM     15  C   LIG    1        3.776   1.890   3.331  0.00  0.00    -0.009 A 
ATOM     16  C   LIG    1        4.253   1.181   2.123  0.00  0.00    -0.004 A 
ENDROOT
BRANCH   8  17
ATOM     17  C   LIG    1        8.658   1.845   3.165  0.00  0.00    -0.024 A 
ATOM     18  C   LIG    1        9.588   2.804   2.758  0.00  0.00    +0.009 A 
ATOM     19  C   LIG    1       10.815   2.407   2.230  0.00  0.00    +0.020 A 
ATOM     20  C   LIG    1       11.114   1.050   2.121  0.00  0.00    +0.041 A 
ATOM     21 CL   LIG    1       12.633   0.558   1.466  0.00  0.00    -0.084 Cl
ATOM     22  C   LIG    1       10.198   0.087   2.541  0.00  0.00    +0.020 A 
ATOM     23  C   LIG    1        8.973   0.485   3.069  0.00  0.00    +0.009 A 
ENDBRANCH   8  17
BRANCH   1  24
ATOM     24  C   LIG    1        2.039   0.407   1.047  0.00  0.00    +0.159 C 
BRANCH  24  25
ATOM     25  O   LIG    1        1.571  -0.476   2.052  0.00  0.00    -0.386 OA
ATOM     26  H   LIG    1        0.643  -0.655   1.882  0.00  0.00    +0.210 HD
ENDBRANCH  24  25
BRANCH  24  27
ATOM     27  C   LIG    1        1.410  -0.017  -0.311  0.00  0.00    +0.120 C 
BRANCH  27  28
ATOM     28  N   LIG    1       -0.064   0.033  -0.350  0.00  0.00    -0.300 NA
BRANCH  28  29
ATOM     29  C   LIG    1       -0.593   1.398  -0.177  0.00  0.00    +0.084 C 
BRANCH  29  30
ATOM     30  C   LIG    1       -1.226   1.586   1.217  0.00  0.00    +0.015 C 
BRANCH  30  32
ATOM     31  C   LIG    1       -3.082   0.928   2.859  0.00  0.00    +0.004 C 
ATOM     32  C   LIG    1       -2.440   0.675   1.489  0.00  0.00    -0.002 C 
ENDBRANCH  30  32
ENDBRANCH  29  30
ENDBRANCH  28  29
BRANCH  28  33
ATOM     33  C   LIG    1       -0.608  -0.577  -1.571  0.00  0.00    +0.084 C 
BRANCH  33  34
ATOM     34  C   LIG    1       -0.334  -2.095  -1.677  0.00  0.00    +0.015 C 
BRANCH  34  35
ATOM     35  C   LIG    1       -1.245  -2.838  -2.672  0.00  0.00    -0.002 C 
ATOM     36  C   LIG    1       -2.698  -2.986  -2.196  0.00  0.00    +0.004 C 
ENDBRANCH  34  35
ENDBRANCH  33  34
ENDBRANCH  28  33
ENDBRANCH  27  28
ENDBRANCH  24  27
ENDBRANCH   1  24
TORSDOF 11
