REMARK  Name = DB06594
REMARK                            x       y       z     vdW  Elec       q    Type
REMARK                         _______ _______ _______ _____ _____    ______ ____
ROOT
ATOM      1  C   LIG    1       -0.831   1.282   0.060  0.00  0.00    +0.004 A 
ATOM      2  C   LIG    1       -2.217   1.225   0.120  0.00  0.00    +0.001 A 
ATOM      3  C   LIG    1       -2.875   0.001   0.123  0.00  0.00    +0.008 A 
ATOM      4  C   LIG    1       -2.141  -1.208   0.063  0.00  0.00    -0.017 A 
ATOM      5  C   LIG    1       -2.799  -2.461   0.065  0.00  0.00    +0.012 A 
ATOM      6  C   LIG    1       -2.067  -3.642   0.002  0.00  0.00    +0.046 A 
ATOM      7  C   LIG    1       -0.678  -3.630  -0.062  0.00  0.00    +0.121 A 
ATOM      8  C   LIG    1       -0.005  -2.400  -0.059  0.00  0.00    +0.054 A 
ATOM      9  C   LIG    1       -0.712  -1.164   0.000  0.00  0.00    -0.011 A 
ATOM     10  C   LIG    1       -0.065   0.116   0.000  0.00  0.00    -0.038 A 
ENDROOT
BRANCH   7  11
ATOM     11  O   LIG    1       -0.051  -4.860  -0.127  0.00  0.00    -0.495 OA
ATOM     12  C   LIG    1        1.369  -4.914  -0.210  0.00  0.00    +0.277 C 
ENDBRANCH   7  11
BRANCH  10  13
ATOM     13  C   LIG    1        1.457   0.227  -0.068  0.00  0.00    +0.054 C 
BRANCH  13  14
ATOM     14  C   LIG    1        2.022  -0.010  -1.484  0.00  0.00    +0.109 C 
BRANCH  14  15
ATOM     15  N   LIG    1        3.482  -0.019  -1.545  0.00  0.00    -0.315 N 
ATOM     16  H   LIG    1        3.921   0.812  -1.914  0.00  0.00    +0.149 HD
ATOM     17  C   LIG    1        4.261  -1.041  -1.150  0.00  0.00    +0.210 C 
ATOM     18  O   LIG    1        3.826  -2.099  -0.695  0.00  0.00    -0.276 OA
ATOM     19  C   LIG    1        5.767  -0.843  -1.290  0.00  0.00    +0.109 C 
ENDBRANCH  14  15
ENDBRANCH  13  14
ENDBRANCH  10  13
TORSDOF 4
