REMARK  Name = DB06481
REMARK                            x       y       z     vdW  Elec       q    Type
REMARK                         _______ _______ _______ _____ _____    ______ ____
ROOT
ATOM      1  C   LIG    1        1.202   0.342   0.102  0.00  0.00    +0.151 C 
ATOM      2  C   LIG    1        1.806   1.507  -0.281  0.00  0.00    +0.203 C 
ENDROOT
BRANCH   1   3
ATOM      3  C   LIG    1       -0.250   0.055  -0.031  0.00  0.00    +0.179 C 
ATOM      4  O   LIG    1       -1.092   0.932  -0.237  0.00  0.00    -0.291 OA
BRANCH   3   5
ATOM      5  C   LIG    1       -0.715  -1.411   0.089  0.00  0.00    +0.093 C 
BRANCH   5   6
ATOM      6  C   LIG    1       -2.223  -1.639  -0.154  0.00  0.00    +0.096 C 
BRANCH   6   8
ATOM      7  C   LIG    1       -2.939  -4.233  -0.034  0.00  0.00    +0.004 C 
ATOM      8  C   LIG    1       -2.609  -3.058  -0.082  0.00  0.00    -0.105 C 
ENDBRANCH   6   8
ENDBRANCH   5   6
ENDBRANCH   3   5
ENDBRANCH   1   3
BRANCH   2   9
ATOM      9  N   LIG    1        3.191   1.627  -0.101  0.00  0.00    -0.285 N 
ATOM     10  H   LIG    1        3.670   0.763   0.105  0.00  0.00    +0.155 HD
BRANCH   9  11
ATOM     11  C   LIG    1        4.101   2.711  -0.083  0.00  0.00    +0.034 A 
ATOM     12  C   LIG    1        3.759   3.993   0.364  0.00  0.00    +0.024 A 
ATOM     13  C   LIG    1        4.713   5.006   0.388  0.00  0.00    +0.014 A 
ATOM     14  C   LIG    1        6.025   4.749  -0.020  0.00  0.00    +0.055 A 
ATOM     15  C   LIG    1        6.372   3.464  -0.450  0.00  0.00    +0.014 A 
ATOM     16  C   LIG    1        5.416   2.452  -0.474  0.00  0.00    +0.024 A 
BRANCH  14  17
ATOM     17  C   LIG    1        7.056   5.875   0.019  0.00  0.00    +0.417 C 
ATOM     18  F   LIG    1        8.231   5.512  -0.500  0.00  0.00    -0.166 F 
ATOM     19  F   LIG    1        7.257   6.247   1.283  0.00  0.00    -0.166 F 
ATOM     20  F   LIG    1        6.607   6.926  -0.670  0.00  0.00    -0.166 F 
ENDBRANCH  14  17
ENDBRANCH   9  11
ENDBRANCH   2   9
BRANCH   2  21
ATOM     21  O   LIG    1        1.309   2.561  -0.847  0.00  0.00    -0.494 OA
ATOM     22  H   LIG    1        0.391   2.608  -1.024  0.00  0.00    +0.294 HD
ENDBRANCH   2  21
BRANCH   1  23
ATOM     23  C   LIG    1        1.962  -0.725   0.686  0.00  0.00    +0.108 C 
ATOM     24  N   LIG    1        2.600  -1.571   1.153  0.00  0.00    -0.191 NA
ENDBRANCH   1  23
TORSDOF 9
