REMARK  Name = DB06814
REMARK                            x       y       z     vdW  Elec       q    Type
REMARK                         _______ _______ _______ _____ _____    ______ ____
ROOT
ATOM      1  N   LIG    1        0.025   0.086   0.272  0.00  0.00    -0.310 NA
ATOM      2  H   LIG    1       -0.155  -0.265   1.201  0.00  0.00    +0.122 HD
ENDROOT
BRANCH   1   4
ATOM      3  C   LIG    1       -1.452   1.678   1.355  0.00  0.00    +0.024 C 
ATOM      4  C   LIG    1       -0.510   1.443   0.162  0.00  0.00    +0.055 C 
BRANCH   4   5
ATOM      5  C   LIG    1       -1.250   1.661  -1.184  0.00  0.00    +0.053 C 
BRANCH   5   6
ATOM      6  C   LIG    1       -0.429   1.394  -2.440  0.00  0.00    -0.042 A 
ATOM      7  C   LIG    1        0.634   2.249  -2.779  0.00  0.00    +0.053 A 
ATOM      8  C   LIG    1        1.359   1.956  -3.930  0.00  0.00    +0.166 A 
ATOM      9  O   LIG    1        2.410   2.628  -4.468  0.00  0.00    -0.453 OA
ATOM     10  C   LIG    1        2.886   1.811  -5.505  0.00  0.00    +0.466 C 
ATOM     11  O   LIG    1        1.894   0.861  -5.789  0.00  0.00    -0.453 OA
ATOM     12  C   LIG    1        1.048   0.891  -4.726  0.00  0.00    +0.166 A 
ATOM     13  C   LIG    1       -0.011   0.040  -4.433  0.00  0.00    +0.050 A 
ATOM     14  C   LIG    1       -0.745   0.298  -3.268  0.00  0.00    +0.007 A 
ENDBRANCH   5   6
ENDBRANCH   4   5
ENDBRANCH   1   4
BRANCH   1  15
ATOM     15  C   LIG    1        1.460   0.017  -0.001  0.00  0.00    +0.117 C 
BRANCH  15  16
ATOM     16  C   LIG    1        1.945  -1.448  -0.067  0.00  0.00    +0.158 C 
BRANCH  16  17
ATOM     17  C   LIG    1        1.460  -2.169  -1.327  0.00  0.00    -0.014 A 
ATOM     18  C   LIG    1        0.252  -2.874  -1.302  0.00  0.00    +0.055 A 
ATOM     19  C   LIG    1       -0.217  -3.523  -2.446  0.00  0.00    +0.159 A 
ATOM     20  C   LIG    1        0.530  -3.475  -3.630  0.00  0.00    +0.158 A 
ATOM     21  C   LIG    1        1.737  -2.775  -3.661  0.00  0.00    +0.049 A 
ATOM     22  C   LIG    1        2.196  -2.121  -2.519  0.00  0.00    +0.010 A 
BRANCH  19  23
ATOM     23  O   LIG    1       -1.409  -4.198  -2.392  0.00  0.00    -0.503 OA
ATOM     24  H   LIG    1       -1.640  -4.599  -3.233  0.00  0.00    +0.292 HD
ENDBRANCH  19  23
BRANCH  20  25
ATOM     25  O   LIG    1        0.089  -4.099  -4.770  0.00  0.00    -0.503 OA
ATOM     26  H   LIG    1        0.690  -3.990  -5.511  0.00  0.00    +0.292 HD
ENDBRANCH  20  25
ENDBRANCH  16  17
BRANCH  16  27
ATOM     27  O   LIG    1        3.355  -1.449   0.066  0.00  0.00    -0.386 OA
ATOM     28  H   LIG    1        3.649  -2.356   0.172  0.00  0.00    +0.210 HD
ENDBRANCH  16  27
ENDBRANCH  15  16
ENDBRANCH   1  15
TORSDOF 9
