REMARK  Name = DB06090
REMARK                            x       y       z     vdW  Elec       q    Type
REMARK                         _______ _______ _______ _____ _____    ______ ____
ROOT
ATOM      1  C   LIG    1        1.485  -0.036   0.000  0.00  0.00    -0.043 C 
ATOM      2  N   LIG    1        2.054   0.716  -1.241  0.00  0.00    +0.383 N 
ATOM      3  H   LIG    1        1.716   1.668  -1.238  0.00  0.00    -0.081 HD
ATOM      4  C   LIG    1        3.605   0.716  -1.175  0.00  0.00    -0.078 C 
ATOM      5  C   LIG    1        4.113  -0.753  -1.236  0.00  0.00    -0.014 C 
ATOM      6  C   LIG    1        2.942  -1.782  -1.226  0.00  0.00    +0.004 C 
ATOM      7  C   LIG    1        2.110  -1.446  -2.499  0.00  0.00    -0.014 C 
ATOM      8  C   LIG    1        1.634   0.022  -2.557  0.00  0.00    -0.078 C 
ATOM      9  C   LIG    1        2.079  -1.488   0.047  0.00  0.00    +0.063 C 
ENDROOT
BRANCH   9  10
ATOM     10  N   LIG    1        2.824  -1.674   1.299  0.00  0.00    -0.307 N 
ATOM     11  H   LIG    1        3.263  -0.851   1.685  0.00  0.00    +0.149 HD
ATOM     12  C   LIG    1        3.002  -2.847   1.934  0.00  0.00    +0.280 C 
ATOM     13  O   LIG    1        2.551  -3.924   1.540  0.00  0.00    -0.267 OA
BRANCH  12  14
ATOM     14  C   LIG    1        3.763  -2.745   3.150  0.00  0.00    +0.190 A 
ATOM     15  O   LIG    1        3.728  -3.809   4.008  0.00  0.00    -0.450 OA
ATOM     16  C   LIG    1        4.569  -3.505   5.040  0.00  0.00    +0.136 A 
ATOM     17  C   LIG    1        5.187  -2.250   4.839  0.00  0.00    +0.021 A 
ATOM     18  C   LIG    1        6.093  -1.781   5.805  0.00  0.00    +0.011 A 
ATOM     19  C   LIG    1        6.345  -2.574   6.929  0.00  0.00    +0.001 A 
ATOM     20  C   LIG    1        5.721  -3.811   7.102  0.00  0.00    +0.004 A 
ATOM     21  C   LIG    1        4.819  -4.307   6.159  0.00  0.00    +0.047 A 
ATOM     22  C   LIG    1        4.671  -1.781   3.592  0.00  0.00    +0.063 A 
ENDBRANCH  12  14
ENDBRANCH   9  10
BRANCH   1  23
ATOM     23  C   LIG    1       -0.065   0.044   0.034  0.00  0.00    +0.023 C 
BRANCH  23  27
ATOM     24  C   LIG    1       -1.584   4.043   0.085  0.00  0.00    +0.111 A 
ATOM     25  N   LIG    1       -0.985   3.553   1.200  0.00  0.00    -0.263 NA
ATOM     26  C   LIG    1       -0.516   2.279   1.158  0.00  0.00    +0.114 A 
ATOM     27  C   LIG    1       -0.620   1.464   0.026  0.00  0.00    -0.031 A 
ATOM     28  C   LIG    1       -1.245   1.991  -1.111  0.00  0.00    +0.006 A 
ATOM     29  C   LIG    1       -1.734   3.299  -1.086  0.00  0.00    +0.020 A 
ENDBRANCH  23  27
ENDBRANCH   1  23
TORSDOF 4
