REMARK  Name = DB06147
REMARK                            x       y       z     vdW  Elec       q    Type
REMARK                         _______ _______ _______ _____ _____    ______ ____
ROOT
ATOM      1  S   LIG    1        1.776   0.000  -0.080  0.00  0.00    +0.074 S 
ATOM      2  O   LIG    1        2.225   1.275  -0.651  0.00  0.00    -0.150 OA
ATOM      3  O   LIG    1        2.225  -1.275  -0.651  0.00  0.00    -0.150 OA
ENDROOT
BRANCH   1   7
ATOM      4  C   LIG    1       -2.791   0.000   0.038  0.00  0.00    +0.025 A 
ATOM      5  C   LIG    1       -2.099   1.211   0.019  0.00  0.00    +0.024 A 
ATOM      6  C   LIG    1       -0.707   1.212  -0.020  0.00  0.00    +0.030 A 
ATOM      7  C   LIG    1       -0.013   0.000  -0.043  0.00  0.00    +0.109 A 
ATOM      8  C   LIG    1       -0.707  -1.212  -0.020  0.00  0.00    +0.030 A 
ATOM      9  C   LIG    1       -2.099  -1.211   0.019  0.00  0.00    +0.024 A 
BRANCH   4  10
ATOM     10  N   LIG    1       -4.184   0.000   0.076  0.00  0.00    -0.358 N 
ATOM     11  H   LIG    1       -4.681  -0.879   0.084  0.00  0.00    +0.142 HD
ATOM     12  H   LIG    1       -4.681   0.879   0.084  0.00  0.00    +0.142 HD
ENDBRANCH   4  10
ENDBRANCH   1   7
BRANCH   1  13
ATOM     13  N   LIG    1        2.265  -0.000   1.621  0.00  0.00    -0.194 N 
ATOM     14  H   LIG    1        1.500   0.001   2.279  0.00  0.00    +0.176 HD
BRANCH  13  15
ATOM     15  C   LIG    1        3.567  -0.000   2.049  0.00  0.00    +0.177 A 
ATOM     16  S   LIG    1        3.893  -0.000   3.752  0.00  0.00    -0.059 S 
ATOM     17  C   LIG    1        5.590   0.000   3.374  0.00  0.00    +0.068 A 
ATOM     18  C   LIG    1        5.742  -0.000   1.991  0.00  0.00    +0.120 A 
ATOM     19  N   LIG    1        4.631  -0.000   1.282  0.00  0.00    -0.232 NA
ENDBRANCH  13  15
ENDBRANCH   1  13
TORSDOF 4
