REMARK  Name = DB06157
REMARK                            x       y       z     vdW  Elec       q    Type
REMARK                         _______ _______ _______ _____ _____    ______ ____
ROOT
ATOM      1  C   LIG    1       -1.702   3.805   0.808  0.00  0.00    -0.019 C 
ATOM      2  C   LIG    1       -2.095   4.507  -0.531  0.00  0.00    +0.012 C 
ATOM      3  C   LIG    1       -2.415   2.414   0.975  0.00  0.00    +0.067 C 
ATOM      4  C   LIG    1       -3.954   2.555   1.074  0.00  0.00    +0.138 C 
ATOM      5  O   LIG    1       -4.746   1.944   0.357  0.00  0.00    -0.297 OA
ATOM      6  C   LIG    1       -4.428   3.536   2.156  0.00  0.00    +0.078 C 
ATOM      7  C   LIG    1       -3.658   4.882   2.145  0.00  0.00    +0.004 C 
ATOM      8  C   LIG    1       -4.000   5.730   3.399  0.00  0.00    +0.006 C 
ATOM      9  C   LIG    1       -5.455   6.033   3.741  0.00  0.00    +0.012 C 
ATOM     10  C   LIG    1       -5.372   7.190   4.749  0.00  0.00    +0.075 C 
ATOM     11  C   LIG    1       -3.950   7.765   4.609  0.00  0.00    +0.139 C 
ATOM     12  O   LIG    1       -3.428   8.586   5.360  0.00  0.00    -0.297 OA
ATOM     13  C   LIG    1       -3.298   7.104   3.379  0.00  0.00    +0.029 C 
ATOM     14  C   LIG    1       -3.680   8.016   2.167  0.00  0.00    +0.019 C 
ATOM     15  C   LIG    1       -1.771   6.850   3.440  0.00  0.00    +0.015 C 
ATOM     16  C   LIG    1       -1.315   6.015   2.215  0.00  0.00    +0.005 C 
ATOM     17  C   LIG    1       -1.982   1.362  -0.092  0.00  0.00    +0.065 C 
ATOM     18  C   LIG    1       -0.468   1.147  -0.038  0.00  0.00    +0.058 C 
ATOM     19  N   LIG    1        0.021  -0.017   0.140  0.00  0.00    -0.094 NA
ATOM     20  C   LIG    1        0.301   2.470  -0.229  0.00  0.00    +0.055 C 
ATOM     21  C   LIG    1       -2.105   4.673   2.058  0.00  0.00    -0.001 C 
ATOM     22  C   LIG    1       -0.170   3.509   0.818  0.00  0.00    +0.013 C 
ENDROOT
BRANCH  19  23
ATOM     23  O   LIG    1        1.426  -0.011   0.148  0.00  0.00    -0.396 OA
BRANCH  23  24
ATOM     24  C   LIG    1        1.894  -1.342   0.344  0.00  0.00    +0.243 C 
BRANCH  24  25
ATOM     25  C   LIG    1        3.434  -1.389   0.335  0.00  0.00    -0.042 C 
BRANCH  25  26
ATOM     26  N   LIG    1        4.025  -0.448   1.393  0.00  0.00    +0.380 N 
ATOM     27  H   LIG    1        3.727   0.501   1.216  0.00  0.00    -0.090 HD
ATOM     28  H   LIG    1        3.714  -0.719   2.314  0.00  0.00    -0.090 HD
ATOM     29  H   LIG    1        5.035  -0.483   1.366  0.00  0.00    -0.090 HD
ENDBRANCH  25  26
ENDBRANCH  24  25
ENDBRANCH  23  24
ENDBRANCH  19  23
TORSDOF 4
