REMARK  Name = DB06796
REMARK                            x       y       z     vdW  Elec       q    Type
REMARK                         _______ _______ _______ _____ _____    ______ ____
ROOT
ATOM      1  C   LIG    1        0.532   1.033  -0.753  0.00  0.00    +0.100 C 
ENDROOT
BRANCH   1   2
ATOM      2  N   LIG    1       -0.011   1.851   0.342  0.00  0.00    -0.287 NA
BRANCH   2   3
ATOM      3  C   LIG    1       -1.484   1.823   0.342  0.00  0.00    +0.124 C 
BRANCH   3   9
ATOM      4  C   LIG    1       -2.179  -2.163   3.486  0.00  0.00    +0.069 C 
ATOM      5  C   LIG    1       -2.385  -1.430   2.169  0.00  0.00    +0.080 A 
ATOM      6  N   LIG    1       -3.112  -2.099   1.236  0.00  0.00    -0.251 NA
ATOM      7  C   LIG    1       -3.323  -1.498   0.038  0.00  0.00    +0.068 A 
ATOM      8  C   LIG    1       -2.821  -0.232  -0.271  0.00  0.00    +0.034 A 
ATOM      9  C   LIG    1       -2.062   0.449   0.688  0.00  0.00    +0.012 A 
ATOM     10  C   LIG    1       -1.848  -0.155   1.940  0.00  0.00    +0.142 A 
BRANCH  10  11
ATOM     11  O   LIG    1       -1.122   0.480   2.917  0.00  0.00    -0.505 OA
ATOM     12  H   LIG    1       -1.009  -0.044   3.712  0.00  0.00    +0.292 HD
ENDBRANCH  10  11
BRANCH   7  13
ATOM     13  C   LIG    1       -4.146  -2.285  -0.973  0.00  0.00    +0.227 C 
BRANCH  13  14
ATOM     14  O   LIG    1       -5.490  -1.826  -1.023  0.00  0.00    -0.281 OA
BRANCH  14  15
ATOM     15  P   LIG    1       -6.511  -2.051   0.231  0.00  0.00    +0.473 P 
ATOM     16  O   LIG    1       -6.508  -3.414   0.830  0.00  0.00    -0.228 OA
BRANCH  15  17
ATOM     17  O   LIG    1       -6.124  -0.846   1.248  0.00  0.00    -0.303 OA
ATOM     18  H   LIG    1       -5.808  -1.121   2.130  0.00  0.00    +0.222 HD
ENDBRANCH  15  17
BRANCH  15  19
ATOM     19  O   LIG    1       -7.938  -1.570  -0.375  0.00  0.00    -0.303 OA
ATOM     20  H   LIG    1       -8.666  -2.217  -0.310  0.00  0.00    +0.222 HD
ENDBRANCH  15  19
ENDBRANCH  14  15
ENDBRANCH  13  14
ENDBRANCH   7  13
ENDBRANCH   3   9
ENDBRANCH   2   3
BRANCH   2  21
ATOM     21  C   LIG    1        0.494   3.237   0.237  0.00  0.00    +0.205 C 
BRANCH  21  22
ATOM     22  C   LIG    1        0.332   4.117   1.508  0.00  0.00    +0.319 C 
ATOM     23  O   LIG    1        0.125   3.591   2.627  0.00  0.00    -0.250 OA
BRANCH  22  24
ATOM     24  O   LIG    1        0.459   5.350   1.331  0.00  0.00    -0.480 OA
ATOM     25  H   LIG    1        0.613   5.686   0.470  0.00  0.00    +0.295 HD
ENDBRANCH  22  24
ENDBRANCH  21  22
ENDBRANCH   2  21
ENDBRANCH   1   2
BRANCH   1  26
ATOM     26  C   LIG    1        2.032   0.644  -0.622  0.00  0.00    +0.100 C 
BRANCH  26  27
ATOM     27  N   LIG    1        2.466  -0.058   0.600  0.00  0.00    -0.287 NA
BRANCH  27  28
ATOM     28  C   LIG    1        2.574   0.824   1.777  0.00  0.00    +0.205 C 
BRANCH  28  29
ATOM     29  C   LIG    1        3.583   0.346   2.858  0.00  0.00    +0.319 C 
ATOM     30  O   LIG    1        4.474  -0.490   2.571  0.00  0.00    -0.250 OA
BRANCH  29  31
ATOM     31  O   LIG    1        3.463   0.871   3.988  0.00  0.00    -0.480 OA
ATOM     32  H   LIG    1        2.778   1.490   4.146  0.00  0.00    +0.295 HD
ENDBRANCH  29  31
ENDBRANCH  28  29
ENDBRANCH  27  28
BRANCH  27  33
ATOM     33  C   LIG    1        1.704  -1.285   0.887  0.00  0.00    +0.124 C 
BRANCH  33  34
ATOM     34  C   LIG    1        1.983  -2.389  -0.131  0.00  0.00    +0.012 A 
ATOM     35  C   LIG    1        0.982  -2.914  -0.964  0.00  0.00    +0.142 A 
ATOM     36  C   LIG    1        1.337  -3.904  -1.894  0.00  0.00    +0.080 A 
ATOM     37  N   LIG    1        2.608  -4.371  -2.022  0.00  0.00    -0.251 NA
ATOM     38  C   LIG    1        3.561  -3.863  -1.200  0.00  0.00    +0.068 A 
ATOM     39  C   LIG    1        0.319  -4.519  -2.842  0.00  0.00    +0.069 C 
ATOM     40  C   LIG    1        3.284  -2.892  -0.236  0.00  0.00    +0.034 A 
BRANCH  35  41
ATOM     41  O   LIG    1       -0.316  -2.473  -0.881  0.00  0.00    -0.505 OA
ATOM     42  H   LIG    1       -0.438  -1.801  -0.206  0.00  0.00    +0.292 HD
ENDBRANCH  35  41
BRANCH  38  43
ATOM     43  C   LIG    1        4.973  -4.399  -1.387  0.00  0.00    +0.227 C 
BRANCH  43  44
ATOM     44  O   LIG    1        5.937  -3.353  -1.390  0.00  0.00    -0.281 OA
BRANCH  44  45
ATOM     45  P   LIG    1        6.028  -2.280  -2.617  0.00  0.00    +0.473 P 
ATOM     46  O   LIG    1        6.048  -2.871  -3.983  0.00  0.00    -0.228 OA
BRANCH  45  47
ATOM     47  O   LIG    1        4.804  -1.252  -2.324  0.00  0.00    -0.303 OA
ATOM     48  H   LIG    1        4.754  -0.889  -1.419  0.00  0.00    +0.222 HD
ENDBRANCH  45  47
BRANCH  45  49
ATOM     49  O   LIG    1        7.338  -1.401  -2.230  0.00  0.00    -0.303 OA
ATOM     50  H   LIG    1        7.343  -1.017  -1.332  0.00  0.00    +0.222 HD
ENDBRANCH  45  49
ENDBRANCH  44  45
ENDBRANCH  43  44
ENDBRANCH  38  43
ENDBRANCH  33  34
ENDBRANCH  27  33
ENDBRANCH  26  27
ENDBRANCH   1  26
TORSDOF 25
