REMARK  Name = DB06295
REMARK                            x       y       z     vdW  Elec       q    Type
REMARK                         _______ _______ _______ _____ _____    ______ ____
ROOT
ATOM      1  C   LIG    1        1.595   0.041   0.892  0.00  0.00    +0.030 A 
ATOM      2  C   LIG    1        2.319   0.075   2.094  0.00  0.00    +0.027 A 
ATOM      3  C   LIG    1        3.711   0.045   2.092  0.00  0.00    +0.047 A 
ATOM      4  C   LIG    1        4.415  -0.023   0.881  0.00  0.00    +0.121 A 
ATOM      5  C   LIG    1        3.701  -0.070  -0.314  0.00  0.00    +0.047 A 
ATOM      6  C   LIG    1        2.309  -0.041  -0.310  0.00  0.00    +0.027 A 
ENDROOT
BRANCH   1  10
ATOM      7  N   LIG    1       -2.779   0.488   0.948  0.00  0.00    -0.327 N 
ATOM      8  C   LIG    1       -1.983   0.687  -0.270  0.00  0.00    +0.124 C 
ATOM      9  C   LIG    1       -0.497   1.020  -0.013  0.00  0.00    +0.124 C 
ATOM     10  N   LIG    1        0.200   0.079   0.875  0.00  0.00    -0.327 N 
ATOM     11  C   LIG    1       -0.602  -0.138   2.087  0.00  0.00    +0.124 C 
ATOM     12  C   LIG    1       -2.090  -0.463   1.831  0.00  0.00    +0.124 C 
BRANCH   7  16
ATOM     13  C   LIG    1       -6.993   0.863   1.038  0.00  0.00    +0.038 A 
ATOM     14  C   LIG    1       -6.235   0.839   2.223  0.00  0.00    +0.025 A 
ATOM     15  C   LIG    1       -4.850   0.710   2.183  0.00  0.00    +0.025 A 
ATOM     16  C   LIG    1       -4.170   0.598   0.965  0.00  0.00    +0.030 A 
ATOM     17  C   LIG    1       -4.922   0.618  -0.216  0.00  0.00    +0.025 A 
ATOM     18  C   LIG    1       -6.308   0.742  -0.180  0.00  0.00    +0.025 A 
BRANCH  13  22
ATOM     19  N   LIG    1      -10.473   0.971   1.693  0.00  0.00    -0.281 N 
ATOM     20  C   LIG    1       -9.220   1.299   2.085  0.00  0.00    +0.309 C 
ATOM     21  O   LIG    1       -8.899   1.736   3.192  0.00  0.00    -0.252 OA
ATOM     22  N   LIG    1       -8.416   0.990   1.022  0.00  0.00    -0.254 N 
ATOM     23  C   LIG    1       -9.216   0.644  -0.153  0.00  0.00    +0.134 C 
ATOM     24  C   LIG    1      -10.633   0.907   0.264  0.00  0.00    +0.129 C 
BRANCH  19  26
ATOM     25  C   LIG    1      -11.742  -0.928   2.697  0.00  0.00    +0.028 C 
ATOM     26  C   LIG    1      -11.534   0.597   2.640  0.00  0.00    +0.071 C 
ATOM     27  C   LIG    1      -12.851   1.351   2.376  0.00  0.00    +0.028 C 
ENDBRANCH  19  26
ENDBRANCH  13  22
ENDBRANCH   7  16
ENDBRANCH   1  10
BRANCH   4  28
ATOM     28  O   LIG    1        5.792  -0.045   0.780  0.00  0.00    -0.487 OA
BRANCH  28  29
ATOM     29  C   LIG    1        6.579   0.013   1.970  0.00  0.00    +0.290 C 
BRANCH  29  30
ATOM     30  C   LIG    1        8.044   0.055   1.557  0.00  0.00    +0.289 C 
ATOM     31  O   LIG    1        8.270   1.147   0.737  0.00  0.00    -0.333 OA
ATOM     32  C   LIG    1        9.419   0.885  -0.051  0.00  0.00    +0.143 C 
ATOM     33  C   LIG    1        9.212  -0.636  -0.266  0.00  0.00    +0.205 C 
ATOM     34  O   LIG    1        8.353  -1.047   0.780  0.00  0.00    -0.345 OA
BRANCH  32  35
ATOM     35  C   LIG    1       10.754   1.261   0.634  0.00  0.00    +0.024 A 
ATOM     36  C   LIG    1       10.809   2.115   1.751  0.00  0.00    +0.132 A 
ATOM     37  F   LIG    1        9.684   2.642   2.289  0.00  0.00    -0.205 F 
ATOM     38  C   LIG    1       12.036   2.453   2.322  0.00  0.00    +0.077 A 
ATOM     39  C   LIG    1       13.221   1.957   1.785  0.00  0.00    +0.126 A 
ATOM     40  F   LIG    1       14.408   2.291   2.340  0.00  0.00    -0.205 F 
ATOM     41  C   LIG    1       13.182   1.123   0.670  0.00  0.00    +0.039 A 
ATOM     42  C   LIG    1       11.958   0.782   0.098  0.00  0.00    +0.012 A 
ENDBRANCH  32  35
BRANCH  32  43
ATOM     43  C   LIG    1        9.221   1.686  -1.372  0.00  0.00    +0.187 C 
BRANCH  43  44
ATOM     44  N   LIG    1        9.329   3.133  -1.191  0.00  0.00    -0.249 N 
ATOM     45  N   LIG    1        8.394   3.830  -0.538  0.00  0.00    -0.158 NA
ATOM     46  C   LIG    1        8.906   5.042  -0.571  0.00  0.00    +0.244 A 
ATOM     47  N   LIG    1       10.075   5.196  -1.175  0.00  0.00    -0.223 NA
ATOM     48  C   LIG    1       10.339   3.976  -1.564  0.00  0.00    +0.219 A 
ENDBRANCH  43  44
ENDBRANCH  32  43
ENDBRANCH  29  30
ENDBRANCH  28  29
ENDBRANCH   4  28
TORSDOF 10
