REMARK  Name = DB06786
REMARK                            x       y       z     vdW  Elec       q    Type
REMARK                         _______ _______ _______ _____ _____    ______ ____
ROOT
ATOM      1  C   LIG    1       -4.910  -1.227   5.453  0.00  0.00    +0.080 C 
ATOM      2  C   LIG    1       -3.711  -2.188   5.356  0.00  0.00    +0.022 C 
ATOM      3  C   LIG    1       -3.424  -2.802   3.937  0.00  0.00    +0.026 C 
ATOM      4  C   LIG    1       -2.724  -4.173   4.187  0.00  0.00    +0.019 C 
ATOM      5  C   LIG    1       -2.595  -1.832   2.984  0.00  0.00    +0.149 C 
ATOM      6  F   LIG    1       -3.333  -0.720   2.862  0.00  0.00    -0.238 F 
ATOM      7  C   LIG    1       -1.221  -1.291   3.543  0.00  0.00    +0.153 C 
ATOM      8  C   LIG    1       -0.455  -0.406   2.514  0.00  0.00    +0.044 C 
ATOM      9  C   LIG    1       -0.269  -1.075   1.120  0.00  0.00    +0.012 C 
ATOM     10  C   LIG    1        0.190  -0.105  -0.033  0.00  0.00    +0.163 C 
ATOM     11  O   LIG    1       -0.449   1.165   0.017  0.00  0.00    -0.332 OA
ATOM     12  C   LIG    1       -0.907   1.550  -1.241  0.00  0.00    +0.166 C 
ATOM     13  C   LIG    1        0.106   2.473  -1.914  0.00  0.00    +0.074 C 
ATOM     14  C   LIG    1       -2.281   2.183  -1.079  0.00  0.00    +0.074 C 
ATOM     15  O   LIG    1       -1.033   0.388  -1.988  0.00  0.00    -0.343 OA
ATOM     16  C   LIG    1       -0.430  -0.709  -1.326  0.00  0.00    +0.162 C 
ATOM     17  C   LIG    1       -1.501  -1.729  -0.882  0.00  0.00    +0.039 C 
ATOM     18  C   LIG    1        0.660  -2.336   1.212  0.00  0.00    +0.015 C 
ATOM     19  C   LIG    1       -1.689  -1.421   0.609  0.00  0.00    +0.007 C 
ATOM     20  C   LIG    1       -2.455  -2.417   1.524  0.00  0.00    +0.034 C 
ATOM     21  C   LIG    1       -3.827  -2.821   0.931  0.00  0.00    +0.011 C 
ATOM     22  C   LIG    1       -4.632  -3.756   1.851  0.00  0.00    +0.032 C 
ATOM     23  C   LIG    1       -4.774  -3.076   3.212  0.00  0.00    -0.057 C 
ATOM     24  C   LIG    1       -5.977  -2.655   3.669  0.00  0.00    +0.046 C 
ATOM     25  C   LIG    1       -6.172  -1.876   4.880  0.00  0.00    +0.156 C 
ATOM     26  O   LIG    1       -7.293  -1.653   5.335  0.00  0.00    -0.293 OA
ENDROOT
BRANCH   7  27
ATOM     27  O   LIG    1       -0.373  -2.290   4.072  0.00  0.00    -0.389 OA
ATOM     28  H   LIG    1       -0.841  -2.747   4.775  0.00  0.00    +0.210 HD
ENDBRANCH   7  27
BRANCH  10  29
ATOM     29  C   LIG    1        1.732   0.106  -0.094  0.00  0.00    +0.182 C 
ATOM     30  O   LIG    1        2.447  -0.570  -0.836  0.00  0.00    -0.293 OA
BRANCH  29  31
ATOM     31  C   LIG    1        2.319   1.213   0.795  0.00  0.00    +0.186 C 
ATOM     32 CL   LIG    1        4.091   1.363   0.613  0.00  0.00    -0.117 Cl
ENDBRANCH  29  31
ENDBRANCH  10  29
TORSDOF 3
