REMARK  Name = DB06684
REMARK                            x       y       z     vdW  Elec       q    Type
REMARK                         _______ _______ _______ _____ _____    ______ ____
ROOT
ATOM      1  N   LIG    1       -1.618   4.119   0.766  0.00  0.00    -0.327 N 
ATOM      2  C   LIG    1       -2.079   3.324  -0.389  0.00  0.00    +0.120 C 
ATOM      3  C   LIG    1       -1.811   1.809  -0.250  0.00  0.00    +0.103 C 
ATOM      4  N   LIG    1       -0.389   1.549  -0.024  0.00  0.00    -0.299 NA
ATOM      5  C   LIG    1       -0.014   2.212   1.228  0.00  0.00    +0.103 C 
ATOM      6  C   LIG    1       -0.238   3.739   1.129  0.00  0.00    +0.120 C 
ENDROOT
BRANCH   1  15
ATOM      7  C   LIG    1       -1.869   6.014   2.250  0.00  0.00    +0.027 A 
ATOM      8  C   LIG    1       -2.292   7.311   2.542  0.00  0.00    +0.049 A 
ATOM      9  C   LIG    1       -2.925   8.014   1.516  0.00  0.00    +0.136 A 
ATOM     10  O   LIG    1       -3.415   9.286   1.598  0.00  0.00    -0.450 OA
ATOM     11  C   LIG    1       -3.926   9.586   0.366  0.00  0.00    +0.190 A 
ATOM     12  C   LIG    1       -3.818   8.493  -0.495  0.00  0.00    +0.063 A 
ATOM     13  C   LIG    1       -3.147   7.465   0.237  0.00  0.00    +0.023 A 
ATOM     14  C   LIG    1       -2.712   6.156  -0.022  0.00  0.00    +0.034 A 
ATOM     15  C   LIG    1       -2.062   5.423   0.990  0.00  0.00    +0.031 A 
BRANCH  11  16
ATOM     16  C   LIG    1       -4.559  10.868   0.201  0.00  0.00    +0.277 C 
ATOM     17  O   LIG    1       -4.870  11.574   1.159  0.00  0.00    -0.267 OA
ATOM     18  N   LIG    1       -4.757  11.238  -1.068  0.00  0.00    -0.323 N 
ATOM     19  H   LIG    1       -4.482  10.632  -1.827  0.00  0.00    +0.145 HD
ATOM     20  H   LIG    1       -5.182  12.131  -1.273  0.00  0.00    +0.145 HD
ENDBRANCH  11  16
ENDBRANCH   1  15
BRANCH   4  21
ATOM     21  C   LIG    1       -0.156   0.102   0.025  0.00  0.00    +0.084 C 
BRANCH  21  22
ATOM     22  C   LIG    1        1.341  -0.270   0.073  0.00  0.00    +0.016 C 
BRANCH  22  23
ATOM     23  C   LIG    1        1.593  -1.761  -0.224  0.00  0.00    +0.006 C 
BRANCH  23  24
ATOM     24  C   LIG    1        3.072  -2.186  -0.128  0.00  0.00    +0.037 C 
BRANCH  24  25
ATOM     25  C   LIG    1        3.969  -1.464  -1.115  0.00  0.00    -0.022 A 
ATOM     26  C   LIG    1        3.967  -1.600  -2.550  0.00  0.00    +0.004 A 
ATOM     27  C   LIG    1        4.967  -0.723  -3.072  0.00  0.00    +0.047 A 
ATOM     28  C   LIG    1        5.224  -0.609  -4.442  0.00  0.00    +0.027 A 
ATOM     29  C   LIG    1        4.456  -1.395  -5.300  0.00  0.00    +0.021 A 
ATOM     30  C   LIG    1        3.472  -2.264  -4.823  0.00  0.00    +0.052 A 
ATOM     31  N   LIG    1        5.542  -0.095  -1.990  0.00  0.00    -0.360 N 
ATOM     32  H   LIG    1        6.283   0.590  -1.997  0.00  0.00    +0.165 HD
ATOM     33  C   LIG    1        3.220  -2.376  -3.454  0.00  0.00    +0.029 A 
ATOM     34  C   LIG    1        4.952  -0.533  -0.834  0.00  0.00    +0.087 A 
BRANCH  30  35
ATOM     35  C   LIG    1        2.699  -3.062  -5.764  0.00  0.00    +0.099 C 
ATOM     36  N   LIG    1        2.085  -3.697  -6.511  0.00  0.00    -0.191 NA
ENDBRANCH  30  35
ENDBRANCH  24  25
ENDBRANCH  23  24
ENDBRANCH  22  23
ENDBRANCH  21  22
ENDBRANCH   4  21
TORSDOF 8
