REMARK  Name = DB06530
REMARK                            x       y       z     vdW  Elec       q    Type
REMARK                         _______ _______ _______ _____ _____    ______ ____
ROOT
ATOM      1  C   LIG    1        0.856   3.132   0.049  0.00  0.00    +0.007 C 
ATOM      2  C   LIG    1       -0.447   2.564  -0.039  0.00  0.00    +0.026 C 
ATOM      3  C   LIG    1       -1.546   3.469  -0.143  0.00  0.00    +0.052 C 
ATOM      4  N   LIG    1       -2.813   2.942  -0.242  0.00  0.00    -0.286 NA
ATOM      5  H   LIG    1       -3.580   3.594  -0.314  0.00  0.00    +0.124 HD
ATOM      6  C   LIG    1       -3.122   1.633  -0.260  0.00  0.00    +0.125 C 
ATOM      7  C   LIG    1       -2.068   0.705  -0.162  0.00  0.00    +0.100 C 
ATOM      8  N   LIG    1       -2.104  -0.663  -0.172  0.00  0.00    -0.282 NA
ATOM      9  H   LIG    1       -2.507  -1.002  -1.046  0.00  0.00    +0.125 HD
ATOM     10  C   LIG    1       -0.857  -1.046  -0.065  0.00  0.00    +0.133 C 
ATOM     11  N   LIG    1        0.046   0.004   0.055  0.00  0.00    -0.267 NA
ATOM     12  C   LIG    1       -1.353   4.868  -0.150  0.00  0.00    +0.020 C 
ATOM     13  C   LIG    1       -0.061   5.375  -0.057  0.00  0.00    +0.002 C 
ATOM     14  C   LIG    1       -0.731   1.159  -0.038  0.00  0.00    +0.076 C 
ATOM     15  C   LIG    1        1.030   4.516   0.041  0.00  0.00    +0.000 C 
ENDROOT
BRANCH   6  16
ATOM     16  N   LIG    1       -4.482   1.274  -0.382  0.00  0.00    -0.309 NA
ATOM     17  H   LIG    1       -5.193   1.988  -0.449  0.00  0.00    +0.120 HD
ATOM     18  H   LIG    1       -4.745   0.299  -0.401  0.00  0.00    +0.120 HD
ENDBRANCH   6  16
BRANCH  11  19
ATOM     19  C   LIG    1        1.501  -0.137   0.231  0.00  0.00    +0.121 C 
BRANCH  19  20
ATOM     20  C   LIG    1        1.986  -0.025   1.712  0.00  0.00    +0.073 C 
ATOM     21  C   LIG    1        1.530  -1.217   2.577  0.00  0.00    +0.042 C 
ATOM     22  C   LIG    1        3.522   0.106   1.750  0.00  0.00    +0.042 C 
BRANCH  20  23
ATOM     23  O   LIG    1        1.473   1.137   2.335  0.00  0.00    -0.388 OA
ATOM     24  H   LIG    1        1.804   1.171   3.236  0.00  0.00    +0.210 HD
ENDBRANCH  20  23
ENDBRANCH  19  20
ENDBRANCH  11  19
BRANCH  10  25
ATOM     25  C   LIG    1       -0.468  -2.513  -0.098  0.00  0.00    +0.201 C 
BRANCH  25  26
ATOM     26  O   LIG    1        0.214  -2.784  -1.317  0.00  0.00    -0.377 OA
BRANCH  26  27
ATOM     27  C   LIG    1        0.845  -4.059  -1.400  0.00  0.00    +0.156 C 
ATOM     28  C   LIG    1       -0.158  -5.221  -1.467  0.00  0.00    +0.034 C 
ENDBRANCH  26  27
ENDBRANCH  25  26
ENDBRANCH  10  25
TORSDOF 7
