REMARK  Name = DB06820
REMARK                            x       y       z     vdW  Elec       q    Type
REMARK                         _______ _______ _______ _____ _____    ______ ____
ROOT
ATOM      1  C   LIG    1        1.600  -0.334   0.387  0.00  0.00    +0.098 C 
ENDROOT
BRANCH   1   2
ATOM      2  C   LIG    1        2.131  -1.227   1.517  0.00  0.00    -0.014 A 
ATOM      3  C   LIG    1        2.037  -2.620   1.384  0.00  0.00    +0.007 A 
ATOM      4  C   LIG    1        2.503  -3.469   2.386  0.00  0.00    +0.020 A 
ATOM      5  C   LIG    1        3.068  -2.936   3.542  0.00  0.00    +0.042 A 
ATOM      6 CL   LIG    1        3.645  -3.985   4.786  0.00  0.00    -0.083 Cl
ATOM      7  C   LIG    1        3.163  -1.554   3.694  0.00  0.00    +0.040 A 
ATOM      8  C   LIG    1        2.698  -0.696   2.695  0.00  0.00    +0.047 A 
ATOM      9 CL   LIG    1        2.840   1.007   2.972  0.00  0.00    -0.083 Cl
ENDBRANCH   1   2
BRANCH   1  10
ATOM     10  S   LIG    1       -0.229  -0.367   0.411  0.00  0.00    -0.146 S 
BRANCH  10  11
ATOM     11  C   LIG    1       -0.700   1.348   0.012  0.00  0.00    +0.104 C 
BRANCH  11  13
ATOM     12  C   LIG    1        0.756   3.262   0.798  0.00  0.00    +0.006 A 
ATOM     13  C   LIG    1       -0.252   2.335   1.081  0.00  0.00    -0.037 A 
ATOM     14  C   LIG    1       -0.850   2.315   2.344  0.00  0.00    +0.006 A 
ATOM     15  C   LIG    1       -0.431   3.207   3.326  0.00  0.00    +0.020 A 
ATOM     16  C   LIG    1        0.582   4.123   3.042  0.00  0.00    +0.041 A 
ATOM     17 CL   LIG    1        1.107   5.224   4.263  0.00  0.00    -0.084 Cl
ATOM     18  C   LIG    1        1.174   4.155   1.781  0.00  0.00    +0.020 A 
ENDBRANCH  11  13
ENDBRANCH  10  11
ENDBRANCH   1  10
BRANCH   1  19
ATOM     19  C   LIG    1        2.272  -0.656  -0.973  0.00  0.00    +0.141 C 
BRANCH  19  20
ATOM     20  N   LIG    1        1.897   0.286  -2.018  0.00  0.00    -0.335 N 
ATOM     21  C   LIG    1        2.398   1.548  -2.227  0.00  0.00    +0.199 A 
ATOM     22  N   LIG    1        1.850   2.167  -3.246  0.00  0.00    -0.244 NA
ATOM     23  C   LIG    1        0.974   1.303  -3.729  0.00  0.00    +0.130 A 
ATOM     24  C   LIG    1        0.960   0.119  -3.005  0.00  0.00    +0.107 A 
ENDBRANCH  19  20
ENDBRANCH   1  19
TORSDOF 6
