REMARK  Name = DB06287
REMARK                            x       y       z     vdW  Elec       q    Type
REMARK                         _______ _______ _______ _____ _____    ______ ____
ROOT
ATOM      1  N   LIG    1       -0.845  -2.338   3.594  0.00  0.00    -0.282 N 
ATOM      2  C   LIG    1        0.435  -3.079   3.484  0.00  0.00    +0.109 C 
ATOM      3  C   LIG    1        1.151  -2.969   4.844  0.00  0.00    +0.019 C 
ATOM      4  C   LIG    1        1.370  -1.501   5.247  0.00  0.00    +0.004 C 
ATOM      5  C   LIG    1        0.061  -0.685   5.163  0.00  0.00    +0.034 C 
ATOM      6  C   LIG    1       -2.082  -2.921   3.625  0.00  0.00    +0.288 C 
ATOM      7  O   LIG    1       -3.159  -2.324   3.642  0.00  0.00    -0.267 OA
ATOM      8  C   LIG    1       -2.103  -4.499   3.720  0.00  0.00    +0.276 C 
ATOM      9  O   LIG    1       -1.797  -5.022   4.793  0.00  0.00    -0.281 OA
ATOM     10  C   LIG    1       -2.531  -5.339   2.435  0.00  0.00    +0.240 C 
ATOM     11  C   LIG    1       -2.240  -6.868   2.575  0.00  0.00    +0.054 C 
ATOM     12  C   LIG    1       -0.741  -7.251   2.641  0.00  0.00    +0.013 C 
ATOM     13  C   LIG    1       -2.969  -7.667   1.478  0.00  0.00    +0.011 C 
ATOM     14  C   LIG    1       -4.451  -7.292   1.403  0.00  0.00    +0.032 C 
ATOM     15  C   LIG    1       -4.626  -5.763   1.285  0.00  0.00    +0.125 C 
ATOM     16  C   LIG    1       -6.093  -5.276   1.331  0.00  0.00    +0.067 C 
ATOM     17  C   LIG    1       -7.115  -5.868   0.326  0.00  0.00    +0.146 C 
ATOM     18  C   LIG    1       -6.779  -5.681  -1.166  0.00  0.00    -0.044 C 
ATOM     19  C   LIG    1       -5.885  -6.752  -1.795  0.00  0.00    +0.042 C 
ATOM     20  C   LIG    1       -7.340  -4.667  -1.865  0.00  0.00    +0.001 C 
ATOM     21  C   LIG    1       -7.167  -4.393  -3.284  0.00  0.00    +0.000 C 
ATOM     22  C   LIG    1       -7.741  -3.347  -3.903  0.00  0.00    -0.000 C 
ATOM     23  C   LIG    1       -7.560  -3.078  -5.316  0.00  0.00    -0.004 C 
ATOM     24  C   LIG    1       -7.982  -1.948  -5.909  0.00  0.00    -0.024 C 
ATOM     25  C   LIG    1       -7.777  -1.600  -7.376  0.00  0.00    +0.009 C 
ATOM     26  C   LIG    1       -9.127  -1.294  -8.051  0.00  0.00    +0.012 C 
ATOM     27  C   LIG    1       -6.764  -0.442  -7.599  0.00  0.00    +0.018 C 
ATOM     28  C   LIG    1       -5.257  -0.810  -7.483  0.00  0.00    +0.055 C 
ATOM     29  C   LIG    1       -4.342   0.214  -8.188  0.00  0.00    +0.015 C 
ATOM     30  C   LIG    1       -4.786  -1.087  -6.042  0.00  0.00    +0.167 C 
ATOM     31  O   LIG    1       -4.563  -2.240  -5.672  0.00  0.00    -0.294 OA
ATOM     32  C   LIG    1       -4.609   0.110  -5.078  0.00  0.00    +0.216 C 
ATOM     33  C   LIG    1       -5.123  -0.135  -3.625  0.00  0.00    +0.176 C 
ATOM     34  C   LIG    1       -4.714   0.942  -2.617  0.00  0.00    -0.045 C 
ATOM     35  C   LIG    1       -5.165   2.366  -2.947  0.00  0.00    +0.041 C 
ATOM     36  C   LIG    1       -3.963   0.620  -1.540  0.00  0.00    -0.015 C 
ATOM     37  C   LIG    1       -3.444   1.549  -0.450  0.00  0.00    +0.075 C 
ATOM     38  C   LIG    1       -3.687   0.974   0.962  0.00  0.00    +0.020 C 
ATOM     39  C   LIG    1       -1.987   1.943  -0.781  0.00  0.00    +0.143 C 
ATOM     40  O   LIG    1       -1.717   2.492  -1.850  0.00  0.00    -0.297 OA
ATOM     41  C   LIG    1       -0.863   1.659   0.221  0.00  0.00    +0.119 C 
ATOM     42  C   LIG    1       -0.363   0.183   0.192  0.00  0.00    +0.186 C 
ATOM     43  O   LIG    1       -0.666  -0.466   1.439  0.00  0.00    -0.459 OA
ATOM     44  C   LIG    1       -0.131  -0.092   2.637  0.00  0.00    +0.328 C 
ATOM     45  O   LIG    1        0.694   0.810   2.797  0.00  0.00    -0.249 OA
ATOM     46  O   LIG    1       -3.920  -5.109   2.353  0.00  0.00    -0.339 OA
ATOM     47  C   LIG    1       -0.730  -0.873   3.831  0.00  0.00    +0.185 C 
ENDROOT
BRANCH  10  48
ATOM     48  O   LIG    1       -1.849  -4.857   1.336  0.00  0.00    -0.358 OA
ATOM     49  H   LIG    1       -1.136  -5.470   1.143  0.00  0.00    +0.213 HD
ENDBRANCH  10  48
BRANCH  17  50
ATOM     50  O   LIG    1       -7.385  -7.228   0.672  0.00  0.00    -0.375 OA
ATOM     51  C   LIG    1       -8.597  -7.765   0.153  0.00  0.00    +0.194 C 
ENDBRANCH  17  50
BRANCH  32  52
ATOM     52  O   LIG    1       -3.265   0.615  -5.128  0.00  0.00    -0.369 OA
ATOM     53  C   LIG    1       -2.212  -0.210  -4.629  0.00  0.00    +0.195 C 
ENDBRANCH  32  52
BRANCH  33  54
ATOM     54  O   LIG    1       -6.536  -0.196  -3.623  0.00  0.00    -0.384 OA
ATOM     55  H   LIG    1       -6.829  -0.420  -2.737  0.00  0.00    +0.210 HD
ENDBRANCH  33  54
BRANCH  42  56
ATOM     56  C   LIG    1        1.122   0.016  -0.261  0.00  0.00    +0.027 C 
ATOM     57  C   LIG    1        1.367   0.596  -1.673  0.00  0.00    +0.011 C 
BRANCH  56  58
ATOM     58  C   LIG    1        1.607  -1.461  -0.199  0.00  0.00    +0.010 C 
BRANCH  58  59
ATOM     59  C   LIG    1        3.129  -1.645   0.031  0.00  0.00    -0.008 C 
ATOM     60  C   LIG    1        3.556  -3.103  -0.258  0.00  0.00    +0.007 C 
ATOM     61  C   LIG    1        5.078  -3.283  -0.096  0.00  0.00    +0.047 C 
ATOM     62  C   LIG    1        5.531  -2.879   1.326  0.00  0.00    +0.205 C 
ATOM     63  C   LIG    1        5.083  -1.433   1.676  0.00  0.00    +0.159 C 
ATOM     64  C   LIG    1        3.553  -1.299   1.482  0.00  0.00    +0.039 C 
BRANCH  63  65
ATOM     65  O   LIG    1        5.463  -1.131   3.018  0.00  0.00    -0.376 OA
ATOM     66  C   LIG    1        5.445   0.245   3.373  0.00  0.00    +0.194 C 
ENDBRANCH  63  65
BRANCH  62  67
ATOM     67  O   LIG    1        6.948  -3.031   1.405  0.00  0.00    -0.458 OA
BRANCH  67  68
ATOM     68  C   LIG    1        7.573  -3.424   2.547  0.00  0.00    +0.318 C 
ATOM     69  O   LIG    1        6.996  -3.738   3.593  0.00  0.00    -0.250 OA
BRANCH  68  70
ATOM     70  C   LIG    1        9.127  -3.464   2.415  0.00  0.00    +0.111 C 
ATOM     71  C   LIG    1        9.781  -3.515   3.827  0.00  0.00    +0.027 C 
BRANCH  70  72
ATOM     72  C   LIG    1        9.674  -2.216   1.647  0.00  0.00    +0.176 C 
BRANCH  72  73
ATOM     73  O   LIG    1        9.367  -0.982   2.273  0.00  0.00    -0.394 OA
ATOM     74  H   LIG    1        9.727  -0.271   1.738  0.00  0.00    +0.209 HD
ENDBRANCH  72  73
ENDBRANCH  70  72
BRANCH  70  75
ATOM     75  C   LIG    1        9.546  -4.771   1.673  0.00  0.00    +0.176 C 
BRANCH  75  76
ATOM     76  O   LIG    1        9.096  -4.854   0.331  0.00  0.00    -0.394 OA
ATOM     77  H   LIG    1        9.388  -5.691  -0.038  0.00  0.00    +0.209 HD
ENDBRANCH  75  76
ENDBRANCH  70  75
ENDBRANCH  68  70
ENDBRANCH  67  68
ENDBRANCH  62  67
ENDBRANCH  58  59
ENDBRANCH  56  58
ENDBRANCH  42  56
TORSDOF 15
