REMARK  Name = DB06087
REMARK                            x       y       z     vdW  Elec       q    Type
REMARK                         _______ _______ _______ _____ _____    ______ ____
ROOT
ATOM      1  C   LIG    1       -3.277   2.629   2.387  0.00  0.00    +0.030 C 
ATOM      2  C   LIG    1       -1.967   1.942   1.960  0.00  0.00    +0.099 C 
ATOM      3  N   LIG    1       -0.851   2.857   2.241  0.00  0.00    -0.309 N 
ATOM      4  H   LIG    1       -0.949   3.767   1.811  0.00  0.00    +0.149 HD
ATOM      5  C   LIG    1        0.118   2.753   3.173  0.00  0.00    +0.234 C 
ATOM      6  O   LIG    1        0.716   3.748   3.579  0.00  0.00    -0.274 OA
ATOM      7  C   LIG    1        0.525   1.362   3.718  0.00  0.00    +0.162 C 
ATOM      8  C   LIG    1       -0.439   0.840   4.801  0.00  0.00    +0.033 C 
ATOM      9  C   LIG    1        0.215   1.186   6.120  0.00  0.00    +0.021 C 
ATOM     10  C   LIG    1        1.697   1.038   5.821  0.00  0.00    +0.109 C 
ATOM     11  N   LIG    1        1.851   1.343   4.393  0.00  0.00    -0.288 N 
ATOM     12  C   LIG    1        3.023   1.618   3.752  0.00  0.00    +0.237 C 
ATOM     13  O   LIG    1        3.070   1.907   2.558  0.00  0.00    -0.274 OA
ATOM     14  C   LIG    1        4.354   1.556   4.563  0.00  0.00    +0.162 C 
ATOM     15  N   LIG    1        5.222   0.363   4.454  0.00  0.00    -0.302 N 
ATOM     16  H   LIG    1        5.648   0.171   5.349  0.00  0.00    +0.150 HD
ATOM     17  C   LIG    1        5.523  -0.579   3.527  0.00  0.00    +0.232 C 
ATOM     18  O   LIG    1        6.195  -1.555   3.855  0.00  0.00    -0.274 OA
ATOM     19  C   LIG    1        5.105  -0.509   2.033  0.00  0.00    +0.144 C 
ATOM     20  N   LIG    1        5.535   0.777   1.480  0.00  0.00    -0.304 N 
ATOM     21  H   LIG    1        6.199   1.227   2.094  0.00  0.00    +0.149 HD
ATOM     22  C   LIG    1        5.469   1.331   0.256  0.00  0.00    +0.231 C 
ATOM     23  O   LIG    1        6.293   2.194  -0.043  0.00  0.00    -0.274 OA
ATOM     24  C   LIG    1        4.350   0.956  -0.733  0.00  0.00    +0.200 C 
ATOM     25  N   LIG    1        4.432   1.691  -1.998  0.00  0.00    -0.305 N 
ATOM     26  H   LIG    1        4.729   1.130  -2.783  0.00  0.00    +0.149 HD
ATOM     27  C   LIG    1        4.201   2.994  -2.264  0.00  0.00    +0.234 C 
ATOM     28  O   LIG    1        4.400   3.430  -3.396  0.00  0.00    -0.274 OA
ATOM     29  C   LIG    1        3.724   3.967  -1.150  0.00  0.00    +0.169 C 
ATOM     30  N   LIG    1        4.138   5.362  -1.392  0.00  0.00    -0.302 N 
ATOM     31  H   LIG    1        4.891   5.660  -0.790  0.00  0.00    +0.150 HD
ATOM     32  C   LIG    1        3.620   6.304  -2.208  0.00  0.00    +0.231 C 
ATOM     33  O   LIG    1        4.058   7.453  -2.181  0.00  0.00    -0.274 OA
ATOM     34  C   LIG    1        2.508   5.971  -3.212  0.00  0.00    +0.200 C 
ATOM     35  N   LIG    1        1.247   6.487  -2.683  0.00  0.00    -0.305 N 
ATOM     36  H   LIG    1        1.199   6.568  -1.677  0.00  0.00    +0.149 HD
ATOM     37  C   LIG    1        0.143   6.783  -3.392  0.00  0.00    +0.234 C 
ATOM     38  O   LIG    1       -0.900   7.144  -2.848  0.00  0.00    -0.274 OA
ATOM     39  C   LIG    1        0.196   6.702  -4.933  0.00  0.00    +0.169 C 
ATOM     40  N   LIG    1       -1.109   6.364  -5.514  0.00  0.00    -0.302 N 
ATOM     41  H   LIG    1       -1.607   7.161  -5.884  0.00  0.00    +0.150 HD
ATOM     42  C   LIG    1       -1.701   5.162  -5.639  0.00  0.00    +0.235 C 
ATOM     43  O   LIG    1       -2.796   5.059  -6.192  0.00  0.00    -0.274 OA
ATOM     44  C   LIG    1       -1.005   3.879  -5.111  0.00  0.00    +0.172 C 
ATOM     45  N   LIG    1       -2.012   2.849  -4.811  0.00  0.00    -0.302 N 
ATOM     46  H   LIG    1       -2.112   2.168  -5.549  0.00  0.00    +0.150 HD
ATOM     47  C   LIG    1       -2.840   2.716  -3.757  0.00  0.00    +0.234 C 
ATOM     48  O   LIG    1       -3.664   1.802  -3.768  0.00  0.00    -0.274 OA
ATOM     49  C   LIG    1       -2.745   3.674  -2.529  0.00  0.00    +0.162 C 
ATOM     50  C   LIG    1       -3.787   4.823  -2.670  0.00  0.00    +0.032 C 
ATOM     51  C   LIG    1       -5.219   4.468  -2.256  0.00  0.00    +0.004 C 
ATOM     52  C   LIG    1       -5.213   3.816  -0.876  0.00  0.00    +0.019 C 
ATOM     53  C   LIG    1       -4.349   2.544  -0.850  0.00  0.00    +0.108 C 
ATOM     54  N   LIG    1       -2.964   2.892  -1.264  0.00  0.00    -0.288 N 
ATOM     55  C   LIG    1       -1.869   2.342  -0.654  0.00  0.00    +0.238 C 
ATOM     56  O   LIG    1       -0.717   2.585  -1.024  0.00  0.00    -0.273 OA
ATOM     57  C   LIG    1       -2.008   1.329   0.518  0.00  0.00    +0.179 C 
ENDROOT
BRANCH  57  58
ATOM     58  N   LIG    1       -0.967   0.318   0.320  0.00  0.00    -0.301 N 
ATOM     59  H   LIG    1       -0.217   0.593  -0.299  0.00  0.00    +0.150 HD
ATOM     60  C   LIG    1       -1.015  -0.939   0.788  0.00  0.00    +0.234 C 
ATOM     61  O   LIG    1       -1.879  -1.350   1.562  0.00  0.00    -0.274 OA
BRANCH  60  62
ATOM     62  C   LIG    1        0.106  -1.870   0.282  0.00  0.00    +0.167 C 
BRANCH  62  63
ATOM     63  N   LIG    1        0.231  -3.122   1.042  0.00  0.00    -0.303 N 
ATOM     64  H   LIG    1        1.071  -3.192   1.596  0.00  0.00    +0.149 HD
ATOM     65  C   LIG    1       -0.635  -4.150   1.107  0.00  0.00    +0.217 C 
ATOM     66  O   LIG    1       -1.682  -4.207   0.461  0.00  0.00    -0.275 OA
BRANCH  65  67
ATOM     67  C   LIG    1       -0.245  -5.293   2.052  0.00  0.00    +0.122 C 
BRANCH  67  68
ATOM     68  C   LIG    1       -1.212  -5.471   3.218  0.00  0.00    -0.022 C 
ATOM     69  C   LIG    1       -1.450  -4.627   4.244  0.00  0.00    -0.031 C 
BRANCH  69  70
ATOM     70  C   LIG    1       -0.845  -3.251   4.474  0.00  0.00    +0.027 C 
BRANCH  70  71
ATOM     71  C   LIG    1        0.249  -3.189   5.554  0.00  0.00    +0.004 C 
BRANCH  71  72
ATOM     72  C   LIG    1        1.537  -3.942   5.169  0.00  0.00    +0.000 C 
BRANCH  72  73
ATOM     73  C   LIG    1        2.753  -3.535   6.019  0.00  0.00    +0.000 C 
BRANCH  73  74
ATOM     74  C   LIG    1        4.061  -4.194   5.548  0.00  0.00    +0.000 C 
BRANCH  74  75
ATOM     75  C   LIG    1        5.288  -3.735   6.356  0.00  0.00    +0.000 C 
BRANCH  75  76
ATOM     76  C   LIG    1        6.600  -4.387   5.872  0.00  0.00    +0.003 C 
BRANCH  76  77
ATOM     77  C   LIG    1        7.859  -3.978   6.673  0.00  0.00    -0.017 C 
ATOM     78  C   LIG    1        9.063  -4.862   6.299  0.00  0.00    +0.007 C 
ATOM     79  C   LIG    1        8.213  -2.485   6.516  0.00  0.00    +0.007 C 
ENDBRANCH  76  77
ENDBRANCH  75  76
ENDBRANCH  74  75
ENDBRANCH  73  74
ENDBRANCH  72  73
ENDBRANCH  71  72
ENDBRANCH  70  71
ENDBRANCH  69  70
ENDBRANCH  67  68
ENDBRANCH  65  67
ENDBRANCH  62  63
BRANCH  62  80
ATOM     80  C   LIG    1       -0.030  -2.143  -1.242  0.00  0.00    +0.127 C 
BRANCH  80  81
ATOM     81  C   LIG    1        0.762  -1.150  -2.101  0.00  0.00    +0.213 C 
ATOM     82  N   LIG    1        0.073  -0.427  -2.986  0.00  0.00    -0.329 N 
ATOM     83  H   LIG    1        0.549   0.243  -3.576  0.00  0.00    +0.145 HD
ATOM     84  H   LIG    1       -0.927  -0.536  -3.077  0.00  0.00    +0.145 HD
ATOM     85  O   LIG    1        1.979  -1.043  -1.965  0.00  0.00    -0.276 OA
ENDBRANCH  80  81
ENDBRANCH  62  80
ENDBRANCH  60  62
ENDBRANCH  57  58
BRANCH  14  86
ATOM     86  C   LIG    1        5.122   2.920   4.545  0.00  0.00    +0.012 C 
ATOM     87  C   LIG    1        5.892   3.268   3.263  0.00  0.00    +0.009 C 
ATOM     88  C   LIG    1        4.226   4.114   4.935  0.00  0.00    +0.009 C 
ENDBRANCH  14  86
BRANCH  19  89
ATOM     89  C   LIG    1        3.720  -1.146   1.601  0.00  0.00    -0.049 C 
ATOM     90  C   LIG    1        3.880  -2.419   0.738  0.00  0.00    -0.012 C 
BRANCH  89  91
ATOM     91  N   LIG    1        2.781  -1.511   2.769  0.00  0.00    +0.381 N 
ATOM     92  H   LIG    1        2.602  -0.691   3.332  0.00  0.00    -0.090 HD
ATOM     93  H   LIG    1        1.901  -1.859   2.417  0.00  0.00    -0.090 HD
ATOM     94  H   LIG    1        3.207  -2.218   3.350  0.00  0.00    -0.090 HD
ENDBRANCH  89  91
ENDBRANCH  19  89
BRANCH  44  95
ATOM     95  C   LIG    1        0.069   3.309  -6.114  0.00  0.00    +0.124 C 
ATOM     96  C   LIG    1       -0.520   2.954  -7.515  0.00  0.00    +0.021 C 
BRANCH  95  97
ATOM     97  C   LIG    1        0.911   2.141  -5.495  0.00  0.00    +0.310 C 
ATOM     98  O   LIG    1        1.424   2.336  -4.370  0.00  0.00    -0.251 OA
BRANCH  97  99
ATOM     99  O   LIG    1        1.051   1.065  -6.124  0.00  0.00    -0.480 OA
ATOM    100  H   LIG    1        0.652   0.958  -6.965  0.00  0.00    +0.295 HD
ENDBRANCH  97  99
ENDBRANCH  95  97
ENDBRANCH  44  95
BRANCH  29 101
ATOM    101  C   LIG    1        2.222   3.805  -0.757  0.00  0.00    +0.152 C 
BRANCH 101 102
ATOM    102  C   LIG    1        1.718   4.779   0.332  0.00  0.00    +0.307 C 
ATOM    103  O   LIG    1        0.502   5.072   0.315  0.00  0.00    -0.251 OA
BRANCH 102 104
ATOM    104  O   LIG    1        2.508   5.111   1.245  0.00  0.00    -0.481 OA
ATOM    105  H   LIG    1        3.409   4.860   1.200  0.00  0.00    +0.295 HD
ENDBRANCH 102 104
ENDBRANCH 101 102
ENDBRANCH  29 101
BRANCH  39 106
ATOM    106  C   LIG    1        0.733   8.047  -5.496  0.00  0.00    +0.152 C 
BRANCH 106 107
ATOM    107  C   LIG    1        0.869   8.149  -7.029  0.00  0.00    +0.307 C 
ATOM    108  O   LIG    1        0.983   9.302  -7.499  0.00  0.00    -0.251 OA
BRANCH 107 109
ATOM    109  O   LIG    1        1.001   7.098  -7.698  0.00  0.00    -0.481 OA
ATOM    110  H   LIG    1        0.903   6.264  -7.283  0.00  0.00    +0.295 HD
ENDBRANCH 107 109
ENDBRANCH 106 107
ENDBRANCH  39 106
TORSDOF 27
