REMARK  Name = DB06442
REMARK                            x       y       z     vdW  Elec       q    Type
REMARK                         _______ _______ _______ _____ _____    ______ ____
ROOT
ATOM      1  N   LIG    1       -0.812  -0.982  -0.620  0.00  0.00    -0.156 N 
ATOM      2  H   LIG    1       -0.256  -1.641  -1.095  0.00  0.00    +0.179 HD
ATOM      3  C   LIG    1       -0.231   0.044  -0.043  0.00  0.00    +0.239 C 
ATOM      4  O   LIG    1       -0.799   0.997   0.498  0.00  0.00    -0.274 OA
ENDROOT
BRANCH   1   5
ATOM      5  S   LIG    1       -2.371  -1.190  -0.574  0.00  0.00    +0.210 S 
ATOM      6  O   LIG    1       -3.148  -0.014  -0.986  0.00  0.00    -0.115 OA
ATOM      7  O   LIG    1       -2.776  -2.475  -1.152  0.00  0.00    -0.115 OA
BRANCH   5   8
ATOM      8  O   LIG    1       -2.549  -1.342   1.090  0.00  0.00    -0.331 OA
BRANCH   8  10
ATOM      9  C   LIG    1       -4.106  -3.027   1.821  0.00  0.00    +0.000 A 
ATOM     10  C   LIG    1       -3.783  -1.673   1.596  0.00  0.00    +0.165 A 
ATOM     11  C   LIG    1       -4.699  -0.661   1.952  0.00  0.00    +0.000 A 
ATOM     12  C   LIG    1       -5.952  -1.022   2.462  0.00  0.00    +0.007 A 
ATOM     13  C   LIG    1       -6.289  -2.359   2.642  0.00  0.00    +0.001 A 
ATOM     14  C   LIG    1       -5.367  -3.353   2.334  0.00  0.00    +0.007 A 
BRANCH   9  16
ATOM     15  C   LIG    1       -3.619  -5.197   0.556  0.00  0.00    +0.012 C 
ATOM     16  C   LIG    1       -3.095  -4.154   1.563  0.00  0.00    +0.017 C 
ATOM     17  C   LIG    1       -2.638  -4.815   2.877  0.00  0.00    +0.012 C 
ENDBRANCH   9  16
BRANCH  11  18
ATOM     18  C   LIG    1       -4.346   0.829   1.839  0.00  0.00    +0.017 C 
ATOM     19  C   LIG    1       -5.318   1.595   0.920  0.00  0.00    +0.012 C 
ATOM     20  C   LIG    1       -4.226   1.492   3.224  0.00  0.00    +0.012 C 
ENDBRANCH  11  18
ENDBRANCH   8  10
ENDBRANCH   5   8
ENDBRANCH   1   5
BRANCH   3  21
ATOM     21  C   LIG    1        1.309   0.021   0.021  0.00  0.00    +0.133 C 
BRANCH  21  22
ATOM     22  C   LIG    1        1.831   0.011   1.473  0.00  0.00    -0.032 A 
ATOM     23  C   LIG    1        1.946  -1.213   2.182  0.00  0.00    -0.041 A 
ATOM     24  C   LIG    1        2.406  -1.199   3.504  0.00  0.00    +0.008 A 
ATOM     25  C   LIG    1        2.746  -0.011   4.146  0.00  0.00    -0.044 A 
ATOM     26  C   LIG    1        2.623   1.187   3.450  0.00  0.00    +0.008 A 
ATOM     27  C   LIG    1        2.167   1.226   2.125  0.00  0.00    -0.041 A 
BRANCH  23  28
ATOM     28  C   LIG    1        1.605  -2.582   1.560  0.00  0.00    +0.013 C 
ATOM     29  C   LIG    1        2.876  -3.322   1.107  0.00  0.00    +0.012 C 
ATOM     30  C   LIG    1        0.719  -3.465   2.464  0.00  0.00    +0.012 C 
ENDBRANCH  23  28
BRANCH  25  31
ATOM     31  C   LIG    1        3.239  -0.004   5.596  0.00  0.00    +0.013 C 
ATOM     32  C   LIG    1        2.061  -0.062   6.585  0.00  0.00    +0.012 C 
ATOM     33  C   LIG    1        4.287  -1.097   5.893  0.00  0.00    +0.012 C 
ENDBRANCH  25  31
BRANCH  27  34
ATOM     34  C   LIG    1        2.066   2.598   1.423  0.00  0.00    +0.013 C 
ATOM     35  C   LIG    1        1.669   3.770   2.349  0.00  0.00    +0.012 C 
ATOM     36  C   LIG    1        3.357   2.923   0.647  0.00  0.00    +0.012 C 
ENDBRANCH  27  34
ENDBRANCH  21  22
ENDBRANCH   3  21
TORSDOF 10
