REMARK  Name = DB06246
REMARK                            x       y       z     vdW  Elec       q    Type
REMARK                         _______ _______ _______ _____ _____    ______ ____
ROOT
ATOM      1  C   LIG    1       -3.023   0.113   0.184  0.00  0.00    +0.044 C 
ATOM      2  C   LIG    1       -2.099   1.318   0.092  0.00  0.00    -0.038 C 
ATOM      3  C   LIG    1       -0.639   1.268   0.009  0.00  0.00    -0.014 C 
ATOM      4  C   LIG    1        0.126   0.152   0.052  0.00  0.00    +0.016 C 
ATOM      5  C   LIG    1       -0.196   2.665  -0.138  0.00  0.00    -0.010 A 
ATOM      6  C   LIG    1        1.063   3.258  -0.299  0.00  0.00    +0.012 A 
ATOM      7  C   LIG    1        1.173   4.645  -0.412  0.00  0.00    +0.039 A 
ATOM      8  C   LIG    1        0.029   5.443  -0.377  0.00  0.00    +0.124 A 
ATOM      9  F   LIG    1        0.137   6.786  -0.488  0.00  0.00    -0.205 F 
ATOM     10  C   LIG    1       -1.227   4.852  -0.235  0.00  0.00    +0.047 A 
ATOM     11  C   LIG    1       -1.331   3.463  -0.123  0.00  0.00    -0.011 A 
ATOM     12  C   LIG    1       -2.508   2.603   0.001  0.00  0.00    -0.025 C 
ENDROOT
BRANCH   4  13
ATOM     13  C   LIG    1        1.592   0.048   0.049  0.00  0.00    -0.024 A 
ATOM     14  C   LIG    1        2.229  -0.617  -1.000  0.00  0.00    +0.010 A 
ATOM     15  C   LIG    1        3.616  -0.745  -1.005  0.00  0.00    +0.027 A 
ATOM     16  C   LIG    1        4.365  -0.219   0.049  0.00  0.00    +0.088 A 
ATOM     17  C   LIG    1        3.730   0.432   1.109  0.00  0.00    +0.027 A 
ATOM     18  C   LIG    1        2.344   0.558   1.111  0.00  0.00    +0.010 A 
BRANCH  16  19
ATOM     19  S   LIG    1        6.149  -0.372   0.035  0.00  0.00    -0.006 S 
ATOM     20  C   LIG    1        6.703   1.172  -0.896  0.00  0.00    +0.200 C 
ATOM     21  O   LIG    1        6.486  -1.549  -0.773  0.00  0.00    -0.170 OA
ATOM     22  O   LIG    1        6.614  -0.271   1.423  0.00  0.00    -0.170 OA
ENDBRANCH  16  19
ENDBRANCH   4  13
BRANCH  12  23
ATOM     23  C   LIG    1       -3.926   3.184   0.032  0.00  0.00    +0.156 C 
BRANCH  23  24
ATOM     24  C   LIG    1       -4.438   3.727  -1.326  0.00  0.00    +0.309 C 
ATOM     25  O   LIG    1       -3.857   3.415  -2.392  0.00  0.00    -0.251 OA
BRANCH  24  26
ATOM     26  O   LIG    1       -5.453   4.456  -1.274  0.00  0.00    -0.480 OA
ATOM     27  H   LIG    1       -5.845   4.656  -0.447  0.00  0.00    +0.295 HD
ENDBRANCH  24  26
ENDBRANCH  23  24
ENDBRANCH  12  23
TORSDOF 5
