REMARK  Name = DB06771
REMARK                            x       y       z     vdW  Elec       q    Type
REMARK                         _______ _______ _______ _____ _____    ______ ____
ROOT
ATOM      1  F   LIG    1       -0.423  -2.578  -0.674  0.00  0.00    -0.203 F 
ATOM      2  C   LIG    1       -0.927  -1.346  -0.419  0.00  0.00    +0.147 A 
ATOM      3  C   LIG    1       -2.305  -1.171  -0.447  0.00  0.00    +0.054 A 
ATOM      4  C   LIG    1       -2.885   0.075  -0.181  0.00  0.00    +0.050 A 
ATOM      5  C   LIG    1       -4.394   0.189  -0.112  0.00  0.00    +0.203 A 
ATOM      6  C   LIG    1       -4.875   1.489   0.459  0.00  0.00    +0.122 A 
ATOM      7  C   LIG    1       -3.976   2.500   0.594  0.00  0.00    +0.105 A 
ATOM      8  N   LIG    1       -2.655   2.449   0.192  0.00  0.00    -0.341 N 
ATOM      9  O   LIG    1       -5.112  -0.758  -0.444  0.00  0.00    -0.286 OA
ATOM     10  C   LIG    1       -2.033   1.184   0.035  0.00  0.00    +0.074 A 
ATOM     11  C   LIG    1       -0.637   0.992   0.144  0.00  0.00    +0.089 A 
ATOM     12 CL   LIG    1        0.411   2.297   0.625  0.00  0.00    -0.079 Cl
ATOM     13  C   LIG    1       -0.080  -0.276  -0.101  0.00  0.00    +0.086 A 
ENDROOT
BRANCH  13  14
ATOM     14  N   LIG    1        1.309  -0.459  -0.020  0.00  0.00    -0.325 N 
ATOM     15  C   LIG    1        1.999  -0.749  -1.279  0.00  0.00    +0.123 C 
ATOM     16  C   LIG    1        3.317   0.020  -1.538  0.00  0.00    +0.068 C 
ATOM     17  C   LIG    1        4.251   0.271  -0.330  0.00  0.00    +0.020 C 
ATOM     18  C   LIG    1        4.334  -0.852   0.721  0.00  0.00    +0.003 C 
ATOM     19  C   LIG    1        3.153  -0.867   1.710  0.00  0.00    +0.019 C 
ATOM     20  C   LIG    1        1.781  -1.243   1.124  0.00  0.00    +0.105 C 
BRANCH  16  21
ATOM     21  N   LIG    1        4.044  -0.688  -2.576  0.00  0.00    -0.326 NA
ATOM     22  H   LIG    1        3.454  -0.807  -3.387  0.00  0.00    +0.119 HD
ATOM     23  H   LIG    1        4.278  -1.616  -2.252  0.00  0.00    +0.119 HD
ENDBRANCH  16  21
ENDBRANCH  13  14
BRANCH   8  24
ATOM     24  C   LIG    1       -2.143   3.676  -0.432  0.00  0.00    +0.087 C 
ATOM     25  C   LIG    1       -1.442   3.575  -1.784  0.00  0.00    +0.027 C 
ATOM     26  C   LIG    1       -2.821   4.151  -1.711  0.00  0.00    +0.027 C 
ENDBRANCH   8  24
BRANCH   6  27
ATOM     27  C   LIG    1       -6.249   1.745   0.896  0.00  0.00    +0.342 C 
ATOM     28  O   LIG    1       -6.648   2.826   1.332  0.00  0.00    -0.245 OA
BRANCH  27  29
ATOM     29  O   LIG    1       -7.087   0.671   0.791  0.00  0.00    -0.477 OA
ATOM     30  H   LIG    1       -7.977   0.874   1.086  0.00  0.00    +0.295 HD
ENDBRANCH  27  29
ENDBRANCH   6  27
TORSDOF 5
