REMARK  Name = DB06258
REMARK                            x       y       z     vdW  Elec       q    Type
REMARK                         _______ _______ _______ _____ _____    ______ ____
ROOT
ATOM      1  C   LIG    1        1.579  -0.094   0.104  0.00  0.00    +0.292 C 
ENDROOT
BRANCH   1   2
ATOM      2  O   LIG    1        2.035   0.303   1.390  0.00  0.00    -0.390 OA
BRANCH   2   5
ATOM      3 CL   LIG    1        2.808   1.081   3.931  0.00  0.00    -0.058 Cl
ATOM      4  C   LIG    1        3.903   0.692   2.527  0.00  0.00    +0.176 C 
ATOM      5  N   LIG    1        3.440   0.346   1.389  0.00  0.00    -0.072 NA
BRANCH   4   6
ATOM      6  C   LIG    1        5.352   0.816   2.810  0.00  0.00    +0.033 A 
ATOM      7  C   LIG    1        5.858   1.059   4.100  0.00  0.00    +0.121 A 
ATOM      8  N   LIG    1        7.179   1.174   4.390  0.00  0.00    -0.263 NA
ATOM      9  C   LIG    1        8.064   1.047   3.372  0.00  0.00    +0.111 A 
ATOM     10  C   LIG    1        7.672   0.806   2.058  0.00  0.00    +0.020 A 
ATOM     11  C   LIG    1        6.308   0.690   1.783  0.00  0.00    +0.014 A 
ENDBRANCH   4   6
ENDBRANCH   2   5
ENDBRANCH   1   2
BRANCH   1  12
ATOM     12  C   LIG    1        0.039  -0.101   0.100  0.00  0.00    +0.138 C 
BRANCH  12  13
ATOM     13  O   LIG    1       -0.394  -0.666  -1.125  0.00  0.00    -0.390 OA
ATOM     14  H   LIG    1       -1.348  -0.762  -1.102  0.00  0.00    +0.210 HD
ENDBRANCH  12  13
BRANCH  12  15
ATOM     15  C   LIG    1       -0.542   1.325   0.286  0.00  0.00    -0.044 C 
BRANCH  15  16
ATOM     16  N   LIG    1       -2.082   1.388   0.102  0.00  0.00    +0.381 N 
ATOM     17  H   LIG    1       -2.317   0.980  -0.792  0.00  0.00    -0.082 HD
ATOM     18  C   LIG    1       -2.827   0.599   1.208  0.00  0.00    -0.079 C 
ATOM     19  C   LIG    1       -4.343   0.680   0.956  0.00  0.00    -0.019 C 
ATOM     20  C   LIG    1       -4.840   2.133   0.864  0.00  0.00    -0.004 C 
ATOM     21  C   LIG    1       -4.050   2.932  -0.186  0.00  0.00    -0.019 C 
ATOM     22  C   LIG    1       -2.533   2.869   0.065  0.00  0.00    -0.079 C 
ENDBRANCH  15  16
ENDBRANCH  12  15
ENDBRANCH   1  12
TORSDOF 7
