REMARK  Name = DB06154
REMARK                            x       y       z     vdW  Elec       q    Type
REMARK                         _______ _______ _______ _____ _____    ______ ____
ROOT
ATOM      1  C   LIG    1       -0.021  -0.001   0.012  0.00  0.00    +0.117 C 
ENDROOT
BRANCH   1   2
ATOM      2  C   LIG    1        1.532  -0.013   0.032  0.00  0.00    +0.284 C 
BRANCH   2   3
ATOM      3  O   LIG    1        2.028   0.698   1.174  0.00  0.00    -0.353 OA
BRANCH   3   4
ATOM      4  N   LIG    1        3.455   0.754   1.272  0.00  0.00    +0.171 N 
ATOM      5  O   LIG    1        3.824   1.367   2.243  0.00  0.00    -0.094 OA
BRANCH   4   6
ATOM      6  O   LIG    1        4.104   0.203   0.410  0.00  0.00    -0.370 OA
ATOM      7  H   LIG    1        3.669  -0.240  -0.293  0.00  0.00    +0.332 HD
ENDBRANCH   4   6
ENDBRANCH   3   4
ENDBRANCH   2   3
ENDBRANCH   1   2
BRANCH   1   8
ATOM      8  C   LIG    1       -0.533   1.466  -0.014  0.00  0.00    +0.284 C 
BRANCH   8   9
ATOM      9  O   LIG    1       -0.033   2.149  -1.171  0.00  0.00    -0.353 OA
BRANCH   9  10
ATOM     10  N   LIG    1       -0.446   3.515  -1.284  0.00  0.00    +0.171 N 
ATOM     11  O   LIG    1       -0.004   4.047  -2.273  0.00  0.00    -0.094 OA
BRANCH  10  12
ATOM     12  O   LIG    1       -1.162   3.964  -0.416  0.00  0.00    -0.370 OA
ATOM     13  H   LIG    1       -1.427   3.422   0.300  0.00  0.00    +0.332 HD
ENDBRANCH  10  12
ENDBRANCH   9  10
ENDBRANCH   8   9
ENDBRANCH   1   8
BRANCH   1  14
ATOM     14  C   LIG    1       -0.542  -0.721   1.288  0.00  0.00    +0.284 C 
BRANCH  14  15
ATOM     15  O   LIG    1       -1.974  -0.710   1.338  0.00  0.00    -0.353 OA
BRANCH  15  16
ATOM     16  N   LIG    1       -2.540  -1.384   2.467  0.00  0.00    +0.171 N 
ATOM     17  O   LIG    1       -3.747  -1.353   2.462  0.00  0.00    -0.094 OA
BRANCH  16  18
ATOM     18  O   LIG    1       -1.781  -1.886   3.266  0.00  0.00    -0.370 OA
ATOM     19  H   LIG    1       -0.855  -1.827   3.134  0.00  0.00    +0.332 HD
ENDBRANCH  16  18
ENDBRANCH  15  16
ENDBRANCH  14  15
ENDBRANCH   1  14
BRANCH   1  20
ATOM     20  C   LIG    1       -0.497  -0.757  -1.259  0.00  0.00    +0.284 C 
BRANCH  20  21
ATOM     21  O   LIG    1       -1.925  -0.718  -1.377  0.00  0.00    -0.353 OA
BRANCH  21  22
ATOM     22  N   LIG    1       -2.453  -1.416  -2.509  0.00  0.00    +0.171 N 
ATOM     23  O   LIG    1       -3.657  -1.362  -2.561  0.00  0.00    -0.094 OA
BRANCH  22  24
ATOM     24  O   LIG    1       -1.668  -1.958  -3.257  0.00  0.00    -0.370 OA
ATOM     25  H   LIG    1       -0.749  -1.913  -3.084  0.00  0.00    +0.332 HD
ENDBRANCH  22  24
ENDBRANCH  21  22
ENDBRANCH  20  21
ENDBRANCH   1  20
TORSDOF 16
