REMARK  Name = DB06508
REMARK                            x       y       z     vdW  Elec       q    Type
REMARK                         _______ _______ _______ _____ _____    ______ ____
ROOT
ATOM      1  CA  LIG    1        3.402   1.341  -0.882  0.00  0.00    +0.186 C 
ENDROOT
BRANCH   1   3
ATOM      2  C   LIG    1        1.454   0.124   0.138  0.00  0.00    +0.234 C 
ATOM      3  N   LIG    1        1.972   1.089  -0.643  0.00  0.00    -0.301 N 
ATOM      4  H   LIG    1        1.340   1.703  -1.137  0.00  0.00    +0.150 HD
ATOM      5  O   LIG    1        2.126  -0.688   0.776  0.00  0.00    -0.274 OA
BRANCH   2   6
ATOM      6  CA  LIG    1       -0.080   0.052   0.159  0.00  0.00    +0.159 C 
BRANCH   6   7
ATOM      7  N   LIG    1       -0.512  -0.480  -1.133  0.00  0.00    -0.301 N 
ATOM      8  H   LIG    1       -0.080  -1.350  -1.408  0.00  0.00    +0.150 HD
ATOM      9  C   LIG    1       -1.371   0.113  -1.982  0.00  0.00    +0.251 C 
ATOM     10  O   LIG    1       -1.945   1.171  -1.725  0.00  0.00    -0.272 OA
BRANCH   9  11
ATOM     11  C   LIG    1       -1.635  -0.570  -3.333  0.00  0.00    +0.324 C 
BRANCH  11  12
ATOM     12  O   LIG    1       -0.828  -1.743  -3.463  0.00  0.00    -0.483 OA
BRANCH  12  13
ATOM     13  C   LIG    1       -0.786  -2.419  -4.669  0.00  0.00    +0.124 A 
ATOM     14  C   LIG    1        0.095  -3.508  -4.769  0.00  0.00    -0.009 A 
ATOM     15  C   LIG    1        0.964  -3.908  -3.586  0.00  0.00    +0.047 C 
ATOM     16  C   LIG    1        0.184  -4.231  -5.963  0.00  0.00    +0.007 A 
ATOM     17  C   LIG    1       -0.600  -3.880  -7.060  0.00  0.00    +0.000 A 
ATOM     18  C   LIG    1       -1.480  -2.804  -6.969  0.00  0.00    +0.004 A 
ATOM     19  C   LIG    1       -1.574  -2.078  -5.782  0.00  0.00    +0.046 A 
ENDBRANCH  12  13
ENDBRANCH  11  12
ENDBRANCH   9  11
ENDBRANCH   6   7
BRANCH   6  20
ATOM     20  CB  LIG    1       -0.625  -0.846   1.300  0.00  0.00    +0.034 C 
BRANCH  20  22
ATOM     21  CD1 LIG    1       -2.686   0.595   1.833  0.00  0.00    +0.007 C 
ATOM     22  CG  LIG    1       -2.161  -0.813   1.476  0.00  0.00    -0.015 C 
ATOM     23  CD2 LIG    1       -2.625  -1.885   2.486  0.00  0.00    +0.007 C 
ENDBRANCH  20  22
ENDBRANCH   6  20
ENDBRANCH   2   6
ENDBRANCH   1   3
BRANCH   1  24
ATOM     24  C   LIG    1        4.072   2.045   0.360  0.00  0.00    +0.326 C 
ATOM     25  O   LIG    1        5.131   1.507   0.756  0.00  0.00    -0.249 OA
BRANCH  24  26
ATOM     26  OXT LIG    1        3.509   3.089   0.771  0.00  0.00    -0.479 OA
ATOM     27  HXT LIG    1        2.710   3.377   0.376  0.00  0.00    +0.295 HD
ENDBRANCH  24  26
ENDBRANCH   1  24
BRANCH   1  28
ATOM     28  C   LIG    1        3.583   2.146  -2.199  0.00  0.00    +0.069 C 
BRANCH  28  29
ATOM     29  C   LIG    1        5.036   2.255  -2.650  0.00  0.00    -0.045 A 
ATOM     30  C   LIG    1        5.745   3.440  -2.443  0.00  0.00    +0.007 A 
ATOM     31  C   LIG    1        7.068   3.541  -2.865  0.00  0.00    +0.047 A 
ATOM     32  C   LIG    1        7.680   2.459  -3.507  0.00  0.00    +0.133 A 
ATOM     33  C   LIG    1        6.974   1.270  -3.700  0.00  0.00    +0.047 A 
ATOM     34  C   LIG    1        5.652   1.170  -3.277  0.00  0.00    +0.007 A 
BRANCH  32  35
ATOM     35  O   LIG    1        8.993   2.535  -3.916  0.00  0.00    -0.411 OA
BRANCH  35  36
ATOM     36  C   LIG    1        9.336   3.279  -5.018  0.00  0.00    +0.408 C 
ATOM     37  N   LIG    1       10.727   3.268  -5.254  0.00  0.00    -0.267 N 
ATOM     38  C   LIG    1       11.230   4.002  -6.441  0.00  0.00    +0.112 C 
ATOM     39  C   LIG    1       12.433   4.877  -6.027  0.00  0.00    +0.032 C 
ATOM     40  C   LIG    1       13.545   4.109  -5.280  0.00  0.00    +0.078 C 
ATOM     41  C   LIG    1       12.886   3.460  -4.041  0.00  0.00    +0.032 C 
ATOM     42  C   LIG    1       11.667   2.557  -4.344  0.00  0.00    +0.112 C 
ATOM     43  O   LIG    1        8.507   3.871  -5.719  0.00  0.00    -0.226 OA
BRANCH  40  44
ATOM     44  C   LIG    1       14.227   3.063  -6.203  0.00  0.00    +0.214 C 
ATOM     45  N   LIG    1       14.750   3.508  -7.350  0.00  0.00    -0.329 N 
ATOM     46  H   LIG    1       15.214   2.866  -7.976  0.00  0.00    +0.145 HD
ATOM     47  H   LIG    1       14.684   4.484  -7.597  0.00  0.00    +0.145 HD
ATOM     48  O   LIG    1       14.316   1.876  -5.889  0.00  0.00    -0.276 OA
ENDBRANCH  40  44
ENDBRANCH  35  36
ENDBRANCH  32  35
ENDBRANCH  28  29
ENDBRANCH   1  28
TORSDOF 15
