REMARK  Name = DB06365
REMARK                            x       y       z     vdW  Elec       q    Type
REMARK                         _______ _______ _______ _____ _____    ______ ____
ROOT
ATOM      1  C   LIG    1        3.714  -3.969   1.337  0.00  0.00    +0.218 C 
ATOM      2  N   LIG    1        4.533  -3.874   2.407  0.00  0.00    -0.270 N 
ATOM      3  H   LIG    1        5.334  -3.274   2.275  0.00  0.00    +0.156 HD
ATOM      4  O   LIG    1        2.653  -4.593   1.301  0.00  0.00    -0.275 OA
ENDROOT
BRANCH   2   5
ATOM      5  C   LIG    1        4.407  -4.404   3.656  0.00  0.00    +0.132 A 
ATOM      6  N   LIG    1        5.197  -3.945   4.569  0.00  0.00    -0.178 NA
ATOM      7  C   LIG    1        5.168  -4.361   5.918  0.00  0.00    +0.352 A 
ATOM      8  O   LIG    1        5.913  -3.922   6.798  0.00  0.00    -0.244 OA
ATOM      9  N   LIG    1        4.230  -5.330   6.242  0.00  0.00    -0.271 N 
ATOM     10  C   LIG    1        3.413  -5.853   5.267  0.00  0.00    +0.096 A 
ATOM     11  C   LIG    1        3.456  -5.444   3.991  0.00  0.00    +0.062 A 
BRANCH   9  12
ATOM     12  C   LIG    1        4.080  -5.722   7.645  0.00  0.00    +0.243 C 
ATOM     13  O   LIG    1        3.199  -6.795   7.825  0.00  0.00    -0.347 OA
ATOM     14  C   LIG    1        2.652  -6.832   9.141  0.00  0.00    +0.176 C 
ATOM     15  C   LIG    1        3.183  -5.547   9.797  0.00  0.00    +0.167 C 
ATOM     16  C   LIG    1        3.601  -4.656   8.631  0.00  0.00    +0.172 C 
BRANCH  15  17
ATOM     17  O   LIG    1        4.261  -5.794  10.682  0.00  0.00    -0.388 OA
ATOM     18  H   LIG    1        4.955  -6.249  10.199  0.00  0.00    +0.210 HD
ENDBRANCH  15  17
BRANCH  16  19
ATOM     19  C   LIG    1        2.493  -3.830   8.114  0.00  0.00    +0.073 C 
ATOM     20  N   LIG    1        1.625  -3.183   7.707  0.00  0.00    -0.196 NA
ENDBRANCH  16  19
BRANCH  14  21
ATOM     21  C   LIG    1        1.121  -6.901   8.980  0.00  0.00    +0.190 C 
BRANCH  21  22
ATOM     22  O   LIG    1        0.502  -7.191  10.217  0.00  0.00    -0.392 OA
ATOM     23  H   LIG    1        0.580  -6.423  10.788  0.00  0.00    +0.210 HD
ENDBRANCH  21  22
ENDBRANCH  14  21
ENDBRANCH   9  12
ENDBRANCH   2   5
BRANCH   1  24
ATOM     24  C   LIG    1        4.165  -3.201   0.086  0.00  0.00    +0.096 C 
BRANCH  24  25
ATOM     25  C   LIG    1        3.615  -1.757   0.011  0.00  0.00    +0.009 C 
BRANCH  25  26
ATOM     26  C   LIG    1        2.079  -1.644  -0.084  0.00  0.00    +0.000 C 
BRANCH  26  27
ATOM     27  C   LIG    1        1.587  -0.189  -0.178  0.00  0.00    +0.000 C 
BRANCH  27  28
ATOM     28  C   LIG    1        0.053  -0.080  -0.218  0.00  0.00    +0.000 C 
BRANCH  28  29
ATOM     29  C   LIG    1       -0.449   1.375  -0.224  0.00  0.00    +0.000 C 
BRANCH  29  30
ATOM     30  C   LIG    1       -1.985   1.477  -0.209  0.00  0.00    -0.000 C 
BRANCH  30  31
ATOM     31  C   LIG    1       -2.492   2.928  -0.130  0.00  0.00    -0.000 C 
BRANCH  31  32
ATOM     32  C   LIG    1       -4.029   3.020  -0.061  0.00  0.00    -0.000 C 
BRANCH  32  33
ATOM     33  C   LIG    1       -4.582   4.459  -0.014  0.00  0.00    -0.000 C 
BRANCH  33  34
ATOM     34  C   LIG    1       -4.218   5.237   1.266  0.00  0.00    -0.000 C 
BRANCH  34  35
ATOM     35  C   LIG    1       -4.880   6.627   1.333  0.00  0.00    -0.000 C 
BRANCH  35  36
ATOM     36  C   LIG    1       -4.459   7.474   2.550  0.00  0.00    -0.000 C 
BRANCH  36  38
ATOM     37  C   LIG    1       -4.551   7.821   5.088  0.00  0.00    +0.004 C 
ATOM     38  C   LIG    1       -4.907   6.904   3.910  0.00  0.00    -0.003 C 
ENDBRANCH  36  38
ENDBRANCH  35  36
ENDBRANCH  34  35
ENDBRANCH  33  34
ENDBRANCH  32  33
ENDBRANCH  31  32
ENDBRANCH  30  31
ENDBRANCH  29  30
ENDBRANCH  28  29
ENDBRANCH  27  28
ENDBRANCH  26  27
ENDBRANCH  25  26
ENDBRANCH  24  25
ENDBRANCH   1  24
TORSDOF 20
