REMARK  Name = DB06021
REMARK                            x       y       z     vdW  Elec       q    Type
REMARK                         _______ _______ _______ _____ _____    ______ ____
ROOT
ATOM      1  C   LIG    1        4.298  -0.181   0.153  0.00  0.00    +0.048 A 
ATOM      2  C   LIG    1        5.003  -0.933   1.115  0.00  0.00    +0.050 A 
ATOM      3  C   LIG    1        6.393  -0.784   1.226  0.00  0.00    +0.038 A 
ATOM      4  C   LIG    1        7.107   0.092   0.367  0.00  0.00    +0.042 A 
ATOM      5  C   LIG    1        8.521   0.305   0.400  0.00  0.00    +0.134 A 
ATOM      6  N   LIG    1        9.137   1.157  -0.460  0.00  0.00    -0.220 NA
ATOM      7  C   LIG    1        8.348   1.808  -1.345  0.00  0.00    +0.223 A 
ATOM      8  N   LIG    1        7.004   1.697  -1.466  0.00  0.00    -0.235 NA
ATOM      9  C   LIG    1        6.382   0.837  -0.612  0.00  0.00    +0.077 A 
ATOM     10  C   LIG    1        4.981   0.688  -0.700  0.00  0.00    +0.047 A 
ENDROOT
BRANCH   2  11
ATOM     11  N   LIG    1        4.299  -1.784   1.998  0.00  0.00    -0.281 N 
ATOM     12  H   LIG    1        3.358  -1.491   2.218  0.00  0.00    +0.155 HD
ATOM     13  C   LIG    1        4.683  -2.994   2.458  0.00  0.00    +0.241 C 
ATOM     14  O   LIG    1        5.742  -3.551   2.157  0.00  0.00    -0.271 OA
BRANCH  13  15
ATOM     15  C   LIG    1        3.711  -3.574   3.356  0.00  0.00    +0.060 C 
ATOM     16  C   LIG    1        3.884  -4.774   3.941  0.00  0.00    +0.013 C 
ENDBRANCH  13  15
ENDBRANCH   2  11
BRANCH   1  18
ATOM     17  C   LIG    1        1.629  -0.282  -0.117  0.00  0.00    -0.075 C 
ATOM     18  C   LIG    1        2.846  -0.261   0.001  0.00  0.00    -0.063 C 
BRANCH  17  20
ATOM     19  C   LIG    1       -0.255  -1.093  -1.509  0.00  0.00    +0.042 C 
ATOM     20  C   LIG    1        0.152  -0.291  -0.242  0.00  0.00    +0.078 C 
ATOM     21  C   LIG    1       -0.465  -1.029   0.978  0.00  0.00    +0.042 C 
BRANCH  20  22
ATOM     22  N   LIG    1       -0.410   1.094  -0.325  0.00  0.00    -0.290 NA
ATOM     23  C   LIG    1       -0.198   1.918  -1.534  0.00  0.00    +0.067 C 
ATOM     24  C   LIG    1        1.135   2.704  -1.517  0.00  0.00    -0.064 C 
ATOM     25  N   LIG    1        1.168   3.607  -0.263  0.00  0.00    +0.379 N 
ATOM     26  H   LIG    1        0.413   4.275  -0.341  0.00  0.00    -0.082 HD
ATOM     27  C   LIG    1        2.510   4.360  -0.172  0.00  0.00    -0.096 C 
ATOM     28  C   LIG    1        0.930   2.771   1.015  0.00  0.00    -0.064 C 
ATOM     29  C   LIG    1       -0.393   1.982   0.857  0.00  0.00    +0.067 C 
ENDBRANCH  20  22
ENDBRANCH  17  20
ENDBRANCH   1  18
BRANCH   5  30
ATOM     30  N   LIG    1        9.319  -0.402   1.322  0.00  0.00    -0.299 N 
ATOM     31  H   LIG    1        8.811  -1.105   1.839  0.00  0.00    +0.154 HD
BRANCH  30  32
ATOM     32  C   LIG    1       10.683  -0.332   1.658  0.00  0.00    +0.034 A 
ATOM     33  C   LIG    1       11.278  -1.471   2.209  0.00  0.00    +0.046 A 
ATOM     34  C   LIG    1       12.625  -1.464   2.578  0.00  0.00    +0.078 A 
ATOM     35 CL   LIG    1       13.334  -2.890   3.248  0.00  0.00    -0.081 Cl
ATOM     36  C   LIG    1       13.388  -0.307   2.405  0.00  0.00    +0.142 A 
ATOM     37  F   LIG    1       14.694  -0.284   2.759  0.00  0.00    -0.204 F 
ATOM     38  C   LIG    1       12.800   0.838   1.870  0.00  0.00    +0.041 A 
ATOM     39  C   LIG    1       11.454   0.829   1.502  0.00  0.00    +0.026 A 
ENDBRANCH  30  32
ENDBRANCH   5  30
TORSDOF 7
