REMARK  Name = DB06578
REMARK                            x       y       z     vdW  Elec       q    Type
REMARK                         _______ _______ _______ _____ _____    ______ ____
ROOT
ATOM      1  C   LIG    1        1.545  -0.236  -0.070  0.00  0.00    +0.018 A 
ATOM      2  C   LIG    1        2.195   1.001  -0.197  0.00  0.00    +0.020 A 
ATOM      3  C   LIG    1        3.591   1.120  -0.127  0.00  0.00    +0.018 A 
ATOM      4  C   LIG    1        4.302   2.474  -0.218  0.00  0.00    +0.139 C 
ATOM      5  C   LIG    1        5.826   2.283  -0.459  0.00  0.00    +0.182 C 
ATOM      6  C   LIG    1        6.420   1.127   0.414  0.00  0.00    +0.133 C 
ATOM      7  C   LIG    1        6.272   1.430   1.928  0.00  0.00    +0.058 C 
ATOM      8  C   LIG    1        7.892   0.847   0.038  0.00  0.00    +0.058 C 
ATOM      9  O   LIG    1        5.720  -0.092   0.119  0.00  0.00    -0.483 OA
ATOM     10  C   LIG    1        4.337  -0.054   0.092  0.00  0.00    +0.126 A 
ATOM     11  C   LIG    1        3.710  -1.291   0.216  0.00  0.00    +0.047 A 
ATOM     12  C   LIG    1        2.323  -1.383   0.138  0.00  0.00    +0.015 A 
ENDROOT
BRANCH   4  13
ATOM     13  N   LIG    1        3.632   3.475  -1.061  0.00  0.00    -0.302 N 
ATOM     14  H   LIG    1        2.929   3.117  -1.691  0.00  0.00    +0.150 HD
ATOM     15  C   LIG    1        3.851   4.805  -1.044  0.00  0.00    +0.245 C 
ATOM     16  O   LIG    1        4.653   5.338  -0.274  0.00  0.00    -0.270 OA
BRANCH  15  17
ATOM     17  C   LIG    1        3.040   5.637  -2.015  0.00  0.00    +0.038 A 
ATOM     18  C   LIG    1        2.976   7.031  -1.859  0.00  0.00    +0.036 A 
ATOM     19  C   LIG    1        2.239   7.820  -2.744  0.00  0.00    +0.077 A 
ATOM     20 CL   LIG    1        2.182   9.532  -2.516  0.00  0.00    -0.081 Cl
ATOM     21  C   LIG    1        1.555   7.223  -3.805  0.00  0.00    +0.142 A 
ATOM     22  F   LIG    1        0.838   7.976  -4.671  0.00  0.00    -0.204 F 
ATOM     23  C   LIG    1        1.610   5.841  -3.976  0.00  0.00    +0.040 A 
ATOM     24  C   LIG    1        2.346   5.054  -3.090  0.00  0.00    +0.016 A 
ENDBRANCH  15  17
ENDBRANCH   4  13
BRANCH   1  26
ATOM     25  C   LIG    1       -0.625  -1.665  -0.003  0.00  0.00    +0.091 C 
ATOM     26  C   LIG    1        0.050  -0.300  -0.156  0.00  0.00    +0.160 C 
ATOM     27  O   LIG    1       -0.665   0.685  -0.343  0.00  0.00    -0.292 OA
ENDBRANCH   1  26
BRANCH   5  28
ATOM     28  O   LIG    1        6.094   2.114  -1.845  0.00  0.00    -0.386 OA
ATOM     29  H   LIG    1        5.825   2.912  -2.305  0.00  0.00    +0.210 HD
ENDBRANCH   5  28
TORSDOF 4
