REMARK  Name = DB06106
REMARK                            x       y       z     vdW  Elec       q    Type
REMARK                         _______ _______ _______ _____ _____    ______ ____
ROOT
ATOM      1  N   LIG    1       -0.075  -0.120  -0.483  0.00  0.00    -0.315 N 
ATOM      2  H   LIG    1       -0.567  -0.710  -1.139  0.00  0.00    +0.149 HD
ATOM      3  C   LIG    1       -0.793   0.742   0.259  0.00  0.00    +0.215 C 
ATOM      4  O   LIG    1       -0.287   1.532   1.056  0.00  0.00    -0.276 OA
ENDROOT
BRANCH   1   5
ATOM      5  C   LIG    1        1.382  -0.268  -0.457  0.00  0.00    +0.105 C 
BRANCH   5   6
ATOM      6  C   LIG    1        1.871  -1.382   0.490  0.00  0.00    +0.038 C 
BRANCH   6   7
ATOM      7  C   LIG    1        1.591  -1.113   1.982  0.00  0.00    +0.109 C 
BRANCH   7  13
ATOM      8  O   LIG    1        4.151  -1.255   3.377  0.00  0.00    -0.276 OA
ATOM      9  C   LIG    1        3.311  -2.155   3.413  0.00  0.00    +0.216 C 
ATOM     10  C   LIG    1        3.502  -3.516   4.081  0.00  0.00    +0.097 C 
ATOM     11  C   LIG    1        2.137  -4.177   4.079  0.00  0.00    +0.028 C 
ATOM     12  C   LIG    1        1.359  -3.440   3.007  0.00  0.00    +0.108 C 
ATOM     13  N   LIG    1        2.076  -2.178   2.861  0.00  0.00    -0.301 N 
ENDBRANCH   7  13
ENDBRANCH   6   7
ENDBRANCH   5   6
ENDBRANCH   1   5
BRANCH   3  14
ATOM     14  C   LIG    1       -2.317   0.714   0.054  0.00  0.00    +0.117 C 
BRANCH  14  15
ATOM     15  C   LIG    1       -3.156   0.499   1.340  0.00  0.00    +0.134 C 
BRANCH  15  16
ATOM     16  N   LIG    1       -3.029   1.597   2.297  0.00  0.00    -0.314 N 
ATOM     17  C   LIG    1       -2.378   1.588   3.512  0.00  0.00    +0.201 A 
ATOM     18  N   LIG    1       -2.422   2.736   4.156  0.00  0.00    -0.229 NA
ATOM     19  C   LIG    1       -3.115   3.531   3.359  0.00  0.00    +0.172 A 
ATOM     20  C   LIG    1       -3.483   4.936   3.547  0.00  0.00    +0.279 A 
ATOM     21  N   LIG    1       -4.207   5.379   2.462  0.00  0.00    -0.312 N 
ATOM     22  H   LIG    1       -4.498   6.344   2.513  0.00  0.00    +0.170 HD
ATOM     23  C   LIG    1       -4.571   4.661   1.332  0.00  0.00    +0.201 A 
ATOM     24  N   LIG    1       -4.245   3.419   1.177  0.00  0.00    -0.218 NA
ATOM     25  O   LIG    1       -3.225   5.674   4.496  0.00  0.00    -0.265 OA
ATOM     26  C   LIG    1       -3.518   2.876   2.198  0.00  0.00    +0.167 A 
ENDBRANCH  15  16
ENDBRANCH  14  15
ENDBRANCH   3  14
TORSDOF 7
