REMARK  Name = DB06176
REMARK                            x       y       z     vdW  Elec       q    Type
REMARK                         _______ _______ _______ _____ _____    ______ ____
ROOT
ATOM      1  O   LIG    1       -1.730  -0.760   1.496  0.00  0.00    -0.455 OA
ATOM      2  C   LIG    1       -2.328  -1.514   2.557  0.00  0.00    +0.208 C 
ATOM      3  C   LIG    1       -3.615  -2.192   2.088  0.00  0.00    +0.013 C 
ATOM      4  C   LIG    1       -4.251  -1.992   0.916  0.00  0.00    -0.027 C 
ATOM      5  C   LIG    1       -5.562  -2.648   0.531  0.00  0.00    +0.038 C 
ATOM      6  C   LIG    1       -6.774  -1.699   0.550  0.00  0.00    +0.085 C 
ATOM      7  S   LIG    1       -6.918  -0.511  -0.820  0.00  0.00    -0.093 S 
ATOM      8  S   LIG    1       -6.626   1.336   0.006  0.00  0.00    -0.091 S 
ATOM      9  C   LIG    1       -4.891   1.722  -0.354  0.00  0.00    +0.112 C 
ATOM     10  C   LIG    1       -4.296   2.934   0.399  0.00  0.00    +0.170 C 
ATOM     11  N   LIG    1       -4.399   2.631   1.831  0.00  0.00    -0.302 N 
ATOM     12  H   LIG    1       -4.417   1.645   2.050  0.00  0.00    +0.150 HD
ATOM     13  C   LIG    1       -4.309   3.491   2.859  0.00  0.00    +0.234 C 
ATOM     14  O   LIG    1       -4.302   4.715   2.727  0.00  0.00    -0.274 OA
ATOM     15  C   LIG    1       -4.072   2.883   4.263  0.00  0.00    +0.161 C 
ATOM     16  N   LIG    1       -3.242   1.659   4.242  0.00  0.00    -0.304 N 
ATOM     17  H   LIG    1       -2.289   1.803   4.543  0.00  0.00    +0.149 HD
ATOM     18  C   LIG    1       -3.585   0.422   3.829  0.00  0.00    +0.217 C 
ATOM     19  O   LIG    1       -4.724   0.131   3.466  0.00  0.00    -0.276 OA
ATOM     20  C   LIG    1       -2.836   3.221  -0.063  0.00  0.00    +0.238 C 
ATOM     21  O   LIG    1       -2.528   3.022  -1.241  0.00  0.00    -0.273 OA
ATOM     22  N   LIG    1       -1.955   3.627   0.883  0.00  0.00    -0.280 N 
ATOM     23  H   LIG    1       -2.366   4.103   1.674  0.00  0.00    +0.155 HD
ATOM     24  C   LIG    1       -0.583   3.688   0.816  0.00  0.00    +0.092 C 
ATOM     25  C   LIG    1        0.228   2.484   0.557  0.00  0.00    +0.259 C 
ATOM     26  O   LIG    1        1.449   2.464   0.729  0.00  0.00    -0.269 OA
ATOM     27  N   LIG    1       -0.454   1.379   0.176  0.00  0.00    -0.297 N 
ATOM     28  H   LIG    1       -1.445   1.502   0.028  0.00  0.00    +0.150 HD
ATOM     29  C   LIG    1       -0.015  -0.017  -0.001  0.00  0.00    +0.185 C 
ATOM     30  C   LIG    1        0.052   4.839   1.151  0.00  0.00    -0.002 C 
ATOM     31  C   LIG    1       -0.597   6.160   1.536  0.00  0.00    +0.037 C 
ATOM     32  C   LIG    1       -2.482  -0.657   3.850  0.00  0.00    +0.144 C 
ATOM     33  C   LIG    1       -0.378  -0.732   1.298  0.00  0.00    +0.328 C 
ATOM     34  O   LIG    1        0.452  -1.265   2.037  0.00  0.00    -0.249 OA
ENDROOT
BRANCH  15  35
ATOM     35  C   LIG    1       -5.428   2.737   5.030  0.00  0.00    +0.012 C 
ATOM     36  C   LIG    1       -5.194   2.302   6.488  0.00  0.00    +0.009 C 
ATOM     37  C   LIG    1       -6.317   4.000   5.016  0.00  0.00    +0.009 C 
ENDBRANCH  15  35
BRANCH  29  38
ATOM     38  C   LIG    1        1.422  -0.266  -0.580  0.00  0.00    +0.014 C 
ATOM     39  C   LIG    1        1.741  -1.760  -0.811  0.00  0.00    +0.009 C 
ATOM     40  C   LIG    1        1.672   0.499  -1.897  0.00  0.00    +0.009 C 
ENDBRANCH  29  38
TORSDOF 2
