REMARK  Name = DB06716
REMARK                            x       y       z     vdW  Elec       q    Type
REMARK                         _______ _______ _______ _____ _____    ______ ____
ROOT
ATOM      1  C   LIG    1        1.483  -0.020  -0.034  0.00  0.00    +0.130 A 
ATOM      2  C   LIG    1        2.233   0.007  -1.228  0.00  0.00    -0.003 A 
ATOM      3  C   LIG    1        3.632   0.023  -1.146  0.00  0.00    +0.007 A 
ATOM      4  C   LIG    1        4.274   0.002   0.087  0.00  0.00    +0.001 A 
ATOM      5  C   LIG    1        3.529  -0.046   1.260  0.00  0.00    +0.007 A 
ATOM      6  C   LIG    1        2.130  -0.068   1.218  0.00  0.00    -0.003 A 
ENDROOT
BRANCH   2   7
ATOM      7  C   LIG    1        1.518   0.007  -2.593  0.00  0.00    +0.016 C 
ATOM      8  C   LIG    1        2.371   0.509  -3.779  0.00  0.00    +0.012 C 
ATOM      9  C   LIG    1        0.910  -1.373  -2.910  0.00  0.00    +0.012 C 
ENDBRANCH   2   7
BRANCH   6  10
ATOM     10  C   LIG    1        1.325  -0.143   2.525  0.00  0.00    +0.016 C 
ATOM     11  C   LIG    1        1.909  -1.135   3.554  0.00  0.00    +0.012 C 
ATOM     12  C   LIG    1        1.124   1.251   3.147  0.00  0.00    +0.012 C 
ENDBRANCH   6  10
BRANCH   1  13
ATOM     13  O   LIG    1        0.108  -0.040  -0.093  0.00  0.00    -0.465 OA
BRANCH  13  14
ATOM     14  C   LIG    1       -0.527   1.239  -0.082  0.00  0.00    +0.406 C 
BRANCH  14  15
ATOM     15  O   LIG    1       -1.484   1.347   0.958  0.00  0.00    -0.249 OA
BRANCH  15  16
ATOM     16  P   LIG    1       -2.672   0.242   1.119  0.00  0.00    +0.475 P 
ATOM     17  O   LIG    1       -2.232  -1.150   1.411  0.00  0.00    -0.227 OA
BRANCH  16  18
ATOM     18  O   LIG    1       -3.532   0.422  -0.247  0.00  0.00    -0.303 OA
ATOM     19  H   LIG    1       -3.667  -0.390  -0.772  0.00  0.00    +0.222 HD
ENDBRANCH  16  18
BRANCH  16  20
ATOM     20  O   LIG    1       -3.632   0.909   2.246  0.00  0.00    -0.303 OA
ATOM     21  H   LIG    1       -3.805   0.359   3.034  0.00  0.00    +0.222 HD
ENDBRANCH  16  20
ENDBRANCH  15  16
ENDBRANCH  14  15
ENDBRANCH  13  14
ENDBRANCH   1  13
TORSDOF 8
