REMARK  Name = DB06211
REMARK                            x       y       z     vdW  Elec       q    Type
REMARK                         _______ _______ _______ _____ _____    ______ ____
ROOT
ATOM      1  N   LIG    1       -1.953   0.723  -0.169  0.00  0.00    -0.260 N 
ATOM      2  C   LIG    1       -1.979  -0.637   0.398  0.00  0.00    +0.104 C 
ATOM      3  C   LIG    1       -2.309  -1.163  -1.028  0.00  0.00    +0.125 C 
ATOM      4  C   LIG    1       -0.565  -0.746   1.014  0.00  0.00    +0.046 C 
ATOM      5  C   LIG    1        0.271  -1.946   0.525  0.00  0.00    +0.015 C 
ATOM      6  C   LIG    1        0.077   0.612   0.725  0.00  0.00    +0.019 C 
ATOM      7  C   LIG    1       -2.560   0.334  -1.367  0.00  0.00    +0.228 C 
ATOM      8  O   LIG    1       -3.054   0.955  -2.306  0.00  0.00    -0.275 OA
ATOM      9  C   LIG    1       -0.778   1.374   0.003  0.00  0.00    +0.131 C 
ENDROOT
BRANCH   3  10
ATOM     10  C   LIG    1       -3.581  -2.032  -1.167  0.00  0.00    +0.125 C 
ATOM     11  C   LIG    1       -4.011  -2.285  -2.624  0.00  0.00    +0.038 C 
BRANCH  10  12
ATOM     12  O   LIG    1       -3.323  -3.285  -0.565  0.00  0.00    -0.391 OA
ATOM     13  H   LIG    1       -2.619  -3.719  -1.052  0.00  0.00    +0.210 HD
ENDBRANCH  10  12
ENDBRANCH   3  10
BRANCH   9  14
ATOM     14  C   LIG    1       -0.572   2.724  -0.490  0.00  0.00    +0.352 C 
ATOM     15  O   LIG    1       -1.462   3.570  -0.560  0.00  0.00    -0.244 OA
BRANCH  14  16
ATOM     16  O   LIG    1        0.704   2.949  -0.920  0.00  0.00    -0.476 OA
ATOM     17  H   LIG    1        0.821   3.838  -1.262  0.00  0.00    +0.295 HD
ENDBRANCH  14  16
ENDBRANCH   9  14
BRANCH   6  18
ATOM     18  S   LIG    1        1.751   0.976   1.243  0.00  0.00    -0.122 S 
BRANCH  18  19
ATOM     19  C   LIG    1        1.570   1.174   3.050  0.00  0.00    +0.066 C 
ATOM     20  C   LIG    1        2.796   1.889   3.620  0.00  0.00    +0.095 C 
ATOM     21  N   LIG    1        3.849   0.890   3.712  0.00  0.00    -0.311 NA
ATOM     22  H   LIG    1        4.247   0.782   2.789  0.00  0.00    +0.122 HD
ATOM     23  C   LIG    1        3.185  -0.360   4.070  0.00  0.00    +0.070 C 
ATOM     24  C   LIG    1        1.679  -0.154   3.797  0.00  0.00    +0.035 C 
BRANCH  23  25
ATOM     25  C   LIG    1        3.823  -1.526   3.289  0.00  0.00    +0.125 C 
BRANCH  25  26
ATOM     26  N   LIG    1        3.230  -2.823   3.671  0.00  0.00    -0.179 NA
ATOM     27  H   LIG    1        2.208  -2.793   3.651  0.00  0.00    +0.149 HD
BRANCH  26  28
ATOM     28  S   LIG    1        3.873  -4.260   2.886  0.00  0.00    +0.092 S 
ATOM     29  O   LIG    1        3.123  -5.417   3.385  0.00  0.00    -0.142 OA
ATOM     30  O   LIG    1        5.337  -4.210   2.972  0.00  0.00    -0.142 OA
BRANCH  28  31
ATOM     31  N   LIG    1        3.430  -4.024   1.207  0.00  0.00    -0.193 NA
ATOM     32  H   LIG    1        4.069  -3.385   0.726  0.00  0.00    +0.145 HD
ATOM     33  H   LIG    1        3.407  -4.907   0.690  0.00  0.00    +0.145 HD
ENDBRANCH  28  31
ENDBRANCH  26  28
ENDBRANCH  25  26
ENDBRANCH  23  25
ENDBRANCH  18  19
ENDBRANCH   6  18
TORSDOF 10
