REMARK  Name = DB06772
REMARK                            x       y       z     vdW  Elec       q    Type
REMARK                         _______ _______ _______ _____ _____    ______ ____
ROOT
ATOM      1  C   LIG    1       -2.432   2.582  -1.987  0.00  0.00    +0.217 C 
ATOM      2  C   LIG    1       -1.283   2.152  -3.024  0.00  0.00    +0.097 C 
ATOM      3  C   LIG    1       -1.769   1.377  -4.342  0.00  0.00    +0.065 C 
ATOM      4  C   LIG    1       -2.491   2.342  -5.346  0.00  0.00    +0.022 C 
ATOM      5  C   LIG    1       -0.522   0.745  -5.056  0.00  0.00    +0.134 C 
ATOM      6  C   LIG    1        0.641   1.712  -5.401  0.00  0.00    +0.068 C 
ATOM      7  C   LIG    1        0.777   3.004  -4.575  0.00  0.00    +0.167 C 
ATOM      8  O   LIG    1        0.169   4.175  -5.264  0.00  0.00    -0.368 OA
ATOM      9  C   LIG    1       -0.576   4.534  -4.026  0.00  0.00    +0.211 C 
ATOM     10  C   LIG    1       -2.756   0.163  -4.090  0.00  0.00    +0.175 C 
ATOM     11  O   LIG    1       -3.829   0.083  -4.698  0.00  0.00    -0.294 OA
ATOM     12  C   LIG    1       -2.396  -0.994  -3.120  0.00  0.00    +0.211 C 
ATOM     13  C   LIG    1       -2.177  -0.492  -1.686  0.00  0.00    -0.023 C 
ATOM     14  C   LIG    1       -3.314   0.288  -0.960  0.00  0.00    +0.022 C 
ATOM     15  C   LIG    1       -3.681  -0.494   0.345  0.00  0.00    +0.018 C 
ATOM     16  C   LIG    1       -4.676   0.414  -1.725  0.00  0.00    +0.018 C 
ATOM     17  C   LIG    1       -0.955  -0.609  -1.085  0.00  0.00    -0.030 C 
ATOM     18  C   LIG    1        0.176  -1.484  -1.630  0.00  0.00    +0.043 C 
ATOM     19  C   LIG    1       -0.631   0.211   0.180  0.00  0.00    +0.205 C 
ATOM     20  C   LIG    1       -1.361   1.595   0.174  0.00  0.00    +0.088 C 
ATOM     21  C   LIG    1       -0.143   3.216  -3.343  0.00  0.00    +0.170 C 
ATOM     22  C   LIG    1       -2.692   1.698  -0.655  0.00  0.00    +0.116 C 
ENDROOT
BRANCH   5  23
ATOM     23  O   LIG    1       -0.894   0.000  -6.224  0.00  0.00    -0.379 OA
ATOM     24  C   LIG    1        0.046  -0.963  -6.686  0.00  0.00    +0.194 C 
ENDBRANCH   5  23
BRANCH  12  25
ATOM     25  O   LIG    1       -3.390  -2.019  -3.167  0.00  0.00    -0.368 OA
ATOM     26  C   LIG    1       -2.977  -3.277  -2.650  0.00  0.00    +0.195 C 
ENDBRANCH  12  25
BRANCH  22  27
ATOM     27  O   LIG    1       -3.612   2.491   0.090  0.00  0.00    -0.384 OA
ATOM     28  H   LIG    1       -3.749   2.077   0.945  0.00  0.00    +0.210 HD
ENDBRANCH  22  27
BRANCH   1  29
ATOM     29  O   LIG    1       -2.164   3.942  -1.597  0.00  0.00    -0.454 OA
BRANCH  29  30
ATOM     30  C   LIG    1       -3.062   4.961  -1.736  0.00  0.00    +0.340 C 
ATOM     31  O   LIG    1       -4.190   4.817  -2.214  0.00  0.00    -0.245 OA
BRANCH  30  32
ATOM     32  C   LIG    1       -2.518   6.281  -1.274  0.00  0.00    +0.059 A 
ATOM     33  C   LIG    1       -3.297   7.436  -1.433  0.00  0.00    +0.015 A 
ATOM     34  C   LIG    1       -2.817   8.675  -1.018  0.00  0.00    +0.001 A 
ATOM     35  C   LIG    1       -1.554   8.768  -0.440  0.00  0.00    +0.000 A 
ATOM     36  C   LIG    1       -0.767   7.632  -0.273  0.00  0.00    +0.001 A 
ATOM     37  C   LIG    1       -1.246   6.393  -0.687  0.00  0.00    +0.015 A 
ENDBRANCH  30  32
ENDBRANCH  29  30
ENDBRANCH   1  29
BRANCH  19  38
ATOM     38  O   LIG    1        0.774   0.454   0.307  0.00  0.00    -0.455 OA
BRANCH  38  39
ATOM     39  C   LIG    1        1.544  -0.162   1.239  0.00  0.00    +0.339 C 
ATOM     40  O   LIG    1        1.146  -0.952   2.098  0.00  0.00    -0.248 OA
BRANCH  39  41
ATOM     41  C   LIG    1        3.022   0.256   1.131  0.00  0.00    +0.247 C 
BRANCH  41  42
ATOM     42  O   LIG    1        3.608  -0.574   0.141  0.00  0.00    -0.379 OA
ATOM     43  H   LIG    1        3.156  -0.422  -0.692  0.00  0.00    +0.211 HD
ENDBRANCH  41  42
BRANCH  41  44
ATOM     44  C   LIG    1        3.821   0.210   2.470  0.00  0.00    +0.146 C 
BRANCH  44  45
ATOM     45  C   LIG    1        3.224   1.159   3.521  0.00  0.00    -0.024 A 
ATOM     46  C   LIG    1        3.278   2.545   3.331  0.00  0.00    +0.005 A 
ATOM     47  C   LIG    1        2.728   3.402   4.280  0.00  0.00    +0.000 A 
ATOM     48  C   LIG    1        2.124   2.873   5.418  0.00  0.00    +0.000 A 
ATOM     49  C   LIG    1        2.064   1.496   5.616  0.00  0.00    +0.000 A 
ATOM     50  C   LIG    1        2.614   0.638   4.667  0.00  0.00    +0.005 A 
ENDBRANCH  44  45
BRANCH  44  51
ATOM     51  N   LIG    1        5.256   0.447   2.244  0.00  0.00    -0.271 N 
ATOM     52  H   LIG    1        5.554   0.694   1.312  0.00  0.00    +0.153 HD
ATOM     53  C   LIG    1        6.222   0.317   3.232  0.00  0.00    +0.401 C 
ATOM     54  O   LIG    1        6.023  -0.019   4.401  0.00  0.00    -0.226 OA
BRANCH  53  55
ATOM     55  O   LIG    1        7.435   0.625   2.698  0.00  0.00    -0.445 OA
BRANCH  55  56
ATOM     56  C   LIG    1        8.685   0.628   3.415  0.00  0.00    +0.107 C 
ATOM     57  C   LIG    1        9.728   1.063   2.365  0.00  0.00    +0.055 C 
ATOM     58  C   LIG    1        8.671   1.656   4.573  0.00  0.00    +0.055 C 
ATOM     59  C   LIG    1        9.039  -0.788   3.934  0.00  0.00    +0.055 C 
ENDBRANCH  55  56
ENDBRANCH  53  55
ENDBRANCH  44  51
ENDBRANCH  41  44
ENDBRANCH  39  41
ENDBRANCH  38  39
ENDBRANCH  19  38
BRANCH  21  60
ATOM     60  O   LIG    1        0.581   3.584  -2.156  0.00  0.00    -0.453 OA
BRANCH  60  61
ATOM     61  C   LIG    1        1.624   2.882  -1.652  0.00  0.00    +0.305 C 
ATOM     62  O   LIG    1        2.067   1.816  -2.081  0.00  0.00    -0.251 OA
ATOM     63  C   LIG    1        2.231   3.562  -0.431  0.00  0.00    +0.136 C 
ENDBRANCH  60  61
ENDBRANCH  21  60
TORSDOF 17
