REMARK  Name = DB06804
REMARK                            x       y       z     vdW  Elec       q    Type
REMARK                         _______ _______ _______ _____ _____    ______ ____
ROOT
ATOM      1  O   LIG    1       -1.949   1.432   0.480  0.00  0.00    -0.375 OA
ENDROOT
BRANCH   1   2
ATOM      2  C   LIG    1       -2.585   2.697   0.642  0.00  0.00    +0.188 C 
BRANCH   2   3
ATOM      3  C   LIG    1       -2.300   3.333   2.014  0.00  0.00    +0.188 C 
BRANCH   3   4
ATOM      4  O   LIG    1       -2.923   4.609   2.066  0.00  0.00    -0.374 OA
BRANCH   4   5
ATOM      5  C   LIG    1       -2.797   5.259   3.324  0.00  0.00    +0.201 C 
BRANCH   5   6
ATOM      6  C   LIG    1       -3.394   6.669   3.234  0.00  0.00    +0.257 C 
BRANCH   6   7
ATOM      7  O   LIG    1       -4.765   6.584   2.854  0.00  0.00    -0.490 OA
BRANCH   7   9
ATOM      8  C   LIG    1       -6.793   7.592   2.186  0.00  0.00    +0.046 A 
ATOM      9  C   LIG    1       -5.478   7.746   2.627  0.00  0.00    +0.121 A 
ATOM     10  C   LIG    1       -4.964   9.040   2.812  0.00  0.00    +0.046 A 
ATOM     11  C   LIG    1       -5.758  10.153   2.552  0.00  0.00    +0.007 A 
ATOM     12  C   LIG    1       -7.069   9.988   2.104  0.00  0.00    -0.047 A 
ATOM     13  C   LIG    1       -7.587   8.704   1.924  0.00  0.00    +0.007 A 
BRANCH  12  14
ATOM     14  C   LIG    1       -7.931  11.209   1.805  0.00  0.00    +0.035 C 
BRANCH  14  15
ATOM     15  C   LIG    1       -7.577  11.910   0.478  0.00  0.00    +0.005 C 
BRANCH  15  16
ATOM     16  C   LIG    1       -7.793  11.034  -0.772  0.00  0.00    +0.000 C 
BRANCH  16  17
ATOM     17  C   LIG    1       -7.487  11.775  -2.086  0.00  0.00    +0.000 C 
BRANCH  17  18
ATOM     18  C   LIG    1       -7.689  10.891  -3.329  0.00  0.00    +0.000 C 
BRANCH  18  19
ATOM     19  C   LIG    1       -7.384  11.626  -4.647  0.00  0.00    -0.000 C 
BRANCH  19  20
ATOM     20  C   LIG    1       -7.586  10.737  -5.888  0.00  0.00    -0.000 C 
BRANCH  20  21
ATOM     21  C   LIG    1       -7.293  11.472  -7.208  0.00  0.00    -0.003 C 
ATOM     22  C   LIG    1       -7.507  10.590  -8.445  0.00  0.00    +0.004 C 
ENDBRANCH  20  21
ENDBRANCH  19  20
ENDBRANCH  18  19
ENDBRANCH  17  18
ENDBRANCH  16  17
ENDBRANCH  15  16
ENDBRANCH  14  15
ENDBRANCH  12  14
ENDBRANCH   7   9
ENDBRANCH   6   7
ENDBRANCH   5   6
ENDBRANCH   4   5
ENDBRANCH   3   4
ENDBRANCH   2   3
ENDBRANCH   1   2
BRANCH   1  23
ATOM     23  C   LIG    1       -0.556   1.491   0.192  0.00  0.00    +0.188 C 
BRANCH  23  24
ATOM     24  C   LIG    1       -0.021   0.064  -0.017  0.00  0.00    +0.188 C 
BRANCH  24  25
ATOM     25  O   LIG    1        1.393   0.036  -0.192  0.00  0.00    -0.375 OA
BRANCH  25  26
ATOM     26  C   LIG    1        1.854   0.463  -1.469  0.00  0.00    +0.188 C 
BRANCH  26  27
ATOM     27  C   LIG    1        3.386   0.413  -1.508  0.00  0.00    +0.188 C 
BRANCH  27  28
ATOM     28  O   LIG    1        3.834  -0.919  -1.287  0.00  0.00    -0.375 OA
BRANCH  28  29
ATOM     29  C   LIG    1        5.249  -1.051  -1.317  0.00  0.00    +0.188 C 
BRANCH  29  30
ATOM     30  C   LIG    1        5.626  -2.523  -1.073  0.00  0.00    +0.188 C 
BRANCH  30  31
ATOM     31  O   LIG    1        7.027  -2.714  -0.898  0.00  0.00    -0.375 OA
BRANCH  31  32
ATOM     32  C   LIG    1        7.816  -2.545  -2.071  0.00  0.00    +0.188 C 
BRANCH  32  33
ATOM     33  C   LIG    1        9.283  -2.841  -1.737  0.00  0.00    +0.188 C 
BRANCH  33  34
ATOM     34  O   LIG    1       10.069  -2.599  -2.896  0.00  0.00    -0.375 OA
BRANCH  34  35
ATOM     35  C   LIG    1       11.464  -2.777  -2.692  0.00  0.00    +0.188 C 
BRANCH  35  36
ATOM     36  C   LIG    1       12.198  -2.460  -4.000  0.00  0.00    +0.188 C 
BRANCH  36  37
ATOM     37  O   LIG    1       13.598  -2.556  -3.782  0.00  0.00    -0.375 OA
BRANCH  37  38
ATOM     38  C   LIG    1       14.375  -2.269  -4.938  0.00  0.00    +0.188 C 
BRANCH  38  39
ATOM     39  C   LIG    1       15.866  -2.340  -4.586  0.00  0.00    +0.188 C 
BRANCH  39  40
ATOM     40  O   LIG    1       16.162  -1.375  -3.585  0.00  0.00    -0.375 OA
BRANCH  40  41
ATOM     41  C   LIG    1       17.532  -1.344  -3.207  0.00  0.00    +0.187 C 
BRANCH  41  42
ATOM     42  C   LIG    1       17.750  -0.271  -2.130  0.00  0.00    +0.184 C 
BRANCH  42  43
ATOM     43  O   LIG    1       17.585   1.025  -2.668  0.00  0.00    -0.393 OA
ATOM     44  H   LIG    1       17.686   1.666  -1.960  0.00  0.00    +0.209 HD
ENDBRANCH  42  43
ENDBRANCH  41  42
ENDBRANCH  40  41
ENDBRANCH  39  40
ENDBRANCH  38  39
ENDBRANCH  37  38
ENDBRANCH  36  37
ENDBRANCH  35  36
ENDBRANCH  34  35
ENDBRANCH  33  34
ENDBRANCH  32  33
ENDBRANCH  31  32
ENDBRANCH  30  31
ENDBRANCH  29  30
ENDBRANCH  28  29
ENDBRANCH  27  28
ENDBRANCH  26  27
ENDBRANCH  25  26
ENDBRANCH  24  25
ENDBRANCH  23  24
ENDBRANCH   1  23
TORSDOF 36
