REMARK  Name = DB06395
REMARK                            x       y       z     vdW  Elec       q    Type
REMARK                         _______ _______ _______ _____ _____    ______ ____
ROOT
ATOM      1  S   LIG    1        1.485   4.277  -1.145  0.00  0.00    -0.060 S 
ATOM      2  C   LIG    1       -0.105   4.545  -0.522  0.00  0.00    +0.161 A 
ATOM      3  N   LIG    1       -0.780   3.453  -0.257  0.00  0.00    -0.225 NA
ATOM      4  C   LIG    1       -0.110   2.342  -0.531  0.00  0.00    +0.084 A 
ATOM      5  C   LIG    1        1.169   2.572  -1.047  0.00  0.00    +0.077 A 
ENDROOT
BRANCH   4   6
ATOM      6  C   LIG    1       -0.742   1.003  -0.283  0.00  0.00    +0.043 A 
ATOM      7  C   LIG    1       -2.116   0.844  -0.521  0.00  0.00    +0.014 A 
ATOM      8  C   LIG    1       -2.741  -0.383  -0.309  0.00  0.00    +0.001 A 
ATOM      9  C   LIG    1       -2.000  -1.471   0.142  0.00  0.00    +0.004 A 
ATOM     10  C   LIG    1       -0.637  -1.329   0.386  0.00  0.00    +0.047 A 
ATOM     11  C   LIG    1        0.003  -0.094   0.189  0.00  0.00    +0.138 A 
BRANCH  11  12
ATOM     12  O   LIG    1        1.356   0.060   0.420  0.00  0.00    -0.455 OA
BRANCH  12  13
ATOM     13  C   LIG    1        1.979  -0.640   1.428  0.00  0.00    +0.131 A 
ATOM     14  C   LIG    1        2.964  -1.588   1.120  0.00  0.00    -0.008 A 
ATOM     15  C   LIG    1        3.336  -1.868  -0.327  0.00  0.00    +0.047 C 
ATOM     16  C   LIG    1        3.603  -2.283   2.152  0.00  0.00    +0.010 A 
ATOM     17  C   LIG    1        3.271  -2.033   3.487  0.00  0.00    -0.050 A 
ATOM     18  C   LIG    1        3.959  -2.794   4.606  0.00  0.00    +0.044 C 
ATOM     19  C   LIG    1        2.290  -1.085   3.789  0.00  0.00    +0.007 A 
ATOM     20  C   LIG    1        1.651  -0.389   2.765  0.00  0.00    +0.047 A 
ENDBRANCH  12  13
ENDBRANCH  11  12
ENDBRANCH   4   6
BRANCH   2  21
ATOM     21  N   LIG    1       -0.589   5.803  -0.291  0.00  0.00    -0.289 N 
ATOM     22  H   LIG    1        0.103   6.537  -0.262  0.00  0.00    +0.151 HD
BRANCH  21  23
ATOM     23  C   LIG    1       -1.837   6.266  -0.100  0.00  0.00    +0.191 C 
ATOM     24  N   LIG    1       -1.945   7.574   0.191  0.00  0.00    -0.279 NA
ATOM     25  H   LIG    1       -1.083   8.098   0.252  0.00  0.00    +0.125 HD
ATOM     26  C   LIG    1       -3.206   8.297   0.416  0.00  0.00    +0.085 C 
ATOM     27  C   LIG    1       -4.331   7.536  -0.324  0.00  0.00    +0.030 C 
ATOM     28  C   LIG    1       -4.335   6.008  -0.080  0.00  0.00    +0.085 C 
ATOM     29  N   LIG    1       -2.954   5.511  -0.191  0.00  0.00    -0.279 NA
ATOM     30  H   LIG    1       -2.816   4.526  -0.011  0.00  0.00    +0.125 HD
ENDBRANCH  21  23
ENDBRANCH   2  21
TORSDOF 5
