REMARK  Name = DB06268
REMARK                            x       y       z     vdW  Elec       q    Type
REMARK                         _______ _______ _______ _____ _____    ______ ____
ROOT
ATOM      1  C   LIG    1        1.478   0.243   0.097  0.00  0.00    +0.126 A 
ATOM      2  C   LIG    1        2.086   0.371   1.355  0.00  0.00    +0.037 A 
ATOM      3  C   LIG    1        3.173   1.225   1.364  0.00  0.00    +0.048 A 
ATOM      4  S   LIG    1        3.456   1.917  -0.191  0.00  0.00    -0.092 S 
ATOM      5  C   LIG    1        2.088   1.068  -0.872  0.00  0.00    +0.081 A 
ENDROOT
BRANCH   1   6
ATOM      6  S   LIG    1        0.041  -0.855  -0.138  0.00  0.00    +0.076 S 
ATOM      7  O   LIG    1       -0.104  -1.164  -1.564  0.00  0.00    -0.150 OA
ATOM      8  O   LIG    1        0.150  -1.919   0.866  0.00  0.00    -0.150 OA
BRANCH   6   9
ATOM      9  N   LIG    1       -1.300   0.188   0.348  0.00  0.00    -0.182 N 
ATOM     10  H   LIG    1       -1.387   0.261   1.350  0.00  0.00    +0.177 HD
BRANCH   9  17
ATOM     11 CL   LIG    1       -0.767   3.501   0.825  0.00  0.00    -0.076 Cl
ATOM     12  C   LIG    1       -1.576   2.585  -0.385  0.00  0.00    +0.126 A 
ATOM     13  C   LIG    1       -2.198   3.047  -1.549  0.00  0.00    +0.101 A 
ATOM     14  C   LIG    1       -2.341   4.465  -2.051  0.00  0.00    +0.071 C 
ATOM     15  N   LIG    1       -2.694   2.057  -2.261  0.00  0.00    -0.080 NA
ATOM     16  O   LIG    1       -2.390   0.883  -1.574  0.00  0.00    -0.336 OA
ATOM     17  C   LIG    1       -1.728   1.217  -0.441  0.00  0.00    +0.255 A 
ENDBRANCH   9  17
ENDBRANCH   6   9
ENDBRANCH   1   6
BRANCH   5  18
ATOM     18  C   LIG    1        1.731   1.333  -2.269  0.00  0.00    +0.176 C 
ATOM     19  O   LIG    1        0.562   1.294  -2.651  0.00  0.00    -0.291 OA
BRANCH  18  20
ATOM     20  C   LIG    1        2.860   1.677  -3.269  0.00  0.00    +0.115 C 
BRANCH  20  21
ATOM     21  C   LIG    1        2.363   1.777  -4.713  0.00  0.00    -0.033 A 
ATOM     22  C   LIG    1        2.472   0.641  -5.533  0.00  0.00    +0.054 A 
ATOM     23  C   LIG    1        2.012   0.731  -6.840  0.00  0.00    +0.167 A 
ATOM     24  C   LIG    1        1.478   1.884  -7.337  0.00  0.00    +0.166 A 
ATOM     25  C   LIG    1        1.364   3.031  -6.561  0.00  0.00    +0.053 A 
ATOM     26  O   LIG    1        1.144   1.700  -8.641  0.00  0.00    -0.453 OA
ATOM     27  C   LIG    1        1.290   0.326  -8.878  0.00  0.00    +0.466 C 
ATOM     28  O   LIG    1        2.032  -0.214  -7.817  0.00  0.00    -0.453 OA
ATOM     29  C   LIG    1        1.810   2.977  -5.229  0.00  0.00    -0.043 A 
ATOM     30  C   LIG    1        1.681   4.225  -4.366  0.00  0.00    +0.044 C 
ENDBRANCH  20  21
ENDBRANCH  18  20
ENDBRANCH   5  18
TORSDOF 6
