REMARK  Name = DB06770
REMARK                            x       y       z     vdW  Elec       q    Type
REMARK                         _______ _______ _______ _____ _____    ______ ____
ROOT
ATOM      1  C   LIG    1        1.872  -1.428   0.000  0.00  0.00    -0.022 A 
ATOM      2  C   LIG    1        2.108  -2.084   1.211  0.00  0.00    +0.006 A 
ATOM      3  C   LIG    1        2.587  -3.392   1.211  0.00  0.00    +0.000 A 
ATOM      4  C   LIG    1        2.825  -4.039   0.000  0.00  0.00    +0.000 A 
ATOM      5  C   LIG    1        2.587  -3.392  -1.211  0.00  0.00    +0.000 A 
ATOM      6  C   LIG    1        2.108  -2.084  -1.211  0.00  0.00    +0.006 A 
ENDROOT
BRANCH   1   7
ATOM      7  C   LIG    1        1.339  -0.004   0.000  0.00  0.00    +0.191 C 
BRANCH   7   8
ATOM      8  O   LIG    1       -0.071   0.051   0.000  0.00  0.00    -0.390 OA
ATOM      9  H   LIG    1       -0.341   0.973   0.000  0.00  0.00    +0.210 HD
ENDBRANCH   7   8
ENDBRANCH   1   7
TORSDOF 2
