REMARK  Name = DB06626
REMARK                            x       y       z     vdW  Elec       q    Type
REMARK                         _______ _______ _______ _____ _____    ______ ____
ROOT
ATOM      1  C   LIG    1       -0.228  -0.182  -0.469  0.00  0.00    +0.015 A 
ATOM      2  C   LIG    1       -0.953  -1.365  -0.305  0.00  0.00    +0.042 A 
ATOM      3  C   LIG    1       -2.347  -1.260  -0.305  0.00  0.00    +0.067 A 
ATOM      4  N   LIG    1       -3.346  -2.199  -0.180  0.00  0.00    -0.276 N 
ATOM      5  H   LIG    1       -3.247  -3.196  -0.057  0.00  0.00    +0.189 HD
ATOM      6  N   LIG    1       -4.565  -1.639  -0.238  0.00  0.00    -0.173 NA
ATOM      7  C   LIG    1       -4.419  -0.342  -0.395  0.00  0.00    +0.093 A 
ATOM      8  C   LIG    1       -3.021  -0.023  -0.450  0.00  0.00    +0.027 A 
ATOM      9  C   LIG    1       -2.261   1.149  -0.602  0.00  0.00    +0.013 A 
ATOM     10  C   LIG    1       -0.870   1.052  -0.607  0.00  0.00    +0.016 A 
ENDROOT
BRANCH   7  11
ATOM     11  C   LIG    1       -5.530   0.591  -0.493  0.00  0.00    +0.032 C 
ATOM     12  C   LIG    1       -6.846   0.290  -0.514  0.00  0.00    +0.030 C 
BRANCH  12  13
ATOM     13  C   LIG    1       -7.966   1.248  -0.610  0.00  0.00    +0.064 A 
ATOM     14  C   LIG    1       -9.280   0.768  -0.678  0.00  0.00    +0.028 A 
ATOM     15  C   LIG    1      -10.333   1.681  -0.769  0.00  0.00    +0.004 A 
ATOM     16  C   LIG    1      -10.056   3.049  -0.789  0.00  0.00    +0.020 A 
ATOM     17  C   LIG    1       -8.724   3.458  -0.718  0.00  0.00    +0.111 A 
ATOM     18  N   LIG    1       -7.689   2.583  -0.631  0.00  0.00    -0.256 NA
ENDBRANCH  12  13
ENDBRANCH   7  11
BRANCH   1  19
ATOM     19  S   LIG    1        1.542  -0.276  -0.457  0.00  0.00    -0.089 S 
BRANCH  19  20
ATOM     20  C   LIG    1        2.044   0.928  -1.674  0.00  0.00    +0.025 A 
ATOM     21  C   LIG    1        1.535   0.778  -2.969  0.00  0.00    +0.016 A 
ATOM     22  C   LIG    1        1.919   1.642  -3.990  0.00  0.00    +0.001 A 
ATOM     23  C   LIG    1        2.823   2.665  -3.728  0.00  0.00    +0.001 A 
ATOM     24  C   LIG    1        3.339   2.826  -2.444  0.00  0.00    +0.014 A 
ATOM     25  C   LIG    1        2.963   1.970  -1.394  0.00  0.00    +0.050 A 
BRANCH  25  26
ATOM     26  C   LIG    1        3.530   2.218  -0.010  0.00  0.00    +0.245 C 
ATOM     27  O   LIG    1        2.826   2.110   0.997  0.00  0.00    -0.270 OA
ATOM     28  N   LIG    1        4.831   2.561   0.032  0.00  0.00    -0.314 N 
ATOM     29  H   LIG    1        5.346   2.602  -0.836  0.00  0.00    +0.149 HD
ATOM     30  C   LIG    1        5.585   2.855   1.246  0.00  0.00    +0.128 C 
ENDBRANCH  25  26
ENDBRANCH  19  20
ENDBRANCH   1  19
TORSDOF 5
