REMARK  Name = DB06698
REMARK                            x       y       z     vdW  Elec       q    Type
REMARK                         _______ _______ _______ _____ _____    ______ ____
ROOT
ATOM      1  C   LIG    1        3.508  -1.397   0.117  0.00  0.00    +0.042 A 
ATOM      2  N   LIG    1        4.071  -1.174  -1.101  0.00  0.00    -0.260 NA
ATOM      3  C   LIG    1        5.426  -1.196  -1.189  0.00  0.00    +0.111 A 
ATOM      4  C   LIG    1        6.254  -1.436  -0.090  0.00  0.00    +0.020 A 
ATOM      5  C   LIG    1        5.660  -1.663   1.153  0.00  0.00    +0.003 A 
ATOM      6  C   LIG    1        4.268  -1.645   1.266  0.00  0.00    +0.023 A 
ENDROOT
BRANCH   1   7
ATOM      7  C   LIG    1        1.988  -1.357   0.171  0.00  0.00    +0.070 C 
BRANCH   7   8
ATOM      8  C   LIG    1        1.418   0.058  -0.035  0.00  0.00    +0.087 C 
BRANCH   8  10
ATOM      9  C   LIG    1       -0.577   1.371  -0.147  0.00  0.00    +0.101 C 
ATOM     10  N   LIG    1       -0.037   0.033   0.029  0.00  0.00    -0.319 NA
ATOM     11  H   LIG    1       -0.335  -0.343   0.918  0.00  0.00    +0.122 HD
ENDBRANCH   8  10
ENDBRANCH   7   8
ENDBRANCH   1   7
TORSDOF 3
