REMARK  Name = DB06543
REMARK                            x       y       z     vdW  Elec       q    Type
REMARK                         _______ _______ _______ _____ _____    ______ ____
ROOT
ATOM      1  C   LIG    1        1.422   0.178  -0.265  0.00  0.00    +0.000 C 
ATOM      2  C   LIG    1        2.175  -0.919  -0.070  0.00  0.00    +0.000 C 
ENDROOT
BRANCH   1   5
ATOM      3  C   LIG    1       -0.872   1.196  -0.383  0.00  0.00    -0.050 C 
ATOM      4  C   LIG    1       -0.408   2.508  -1.006  0.00  0.00    +0.044 C 
ATOM      5  C   LIG    1       -0.023   0.179  -0.093  0.00  0.00    +0.003 C 
BRANCH   3   7
ATOM      6  C   LIG    1       -3.009  -0.094  -0.348  0.00  0.00    +0.001 C 
ATOM      7  C   LIG    1       -2.305   1.039  -0.153  0.00  0.00    +0.003 C 
BRANCH   6  10
ATOM      8  C   LIG    1       -5.199  -1.306  -0.149  0.00  0.00    -0.050 C 
ATOM      9  C   LIG    1       -4.633  -2.688  -0.451  0.00  0.00    +0.044 C 
ATOM     10  C   LIG    1       -4.439  -0.184  -0.099  0.00  0.00    +0.003 C 
BRANCH   8  11
ATOM     11  C   LIG    1       -6.630  -1.214   0.105  0.00  0.00    +0.003 C 
ATOM     12  C   LIG    1       -7.451  -0.289  -0.436  0.00  0.00    +0.005 C 
BRANCH  12  13
ATOM     13  C   LIG    1       -8.890  -0.176  -0.176  0.00  0.00    -0.035 C 
ATOM     14  C   LIG    1       -9.405   1.236   0.228  0.00  0.00    -0.007 C 
ATOM     15  C   LIG    1       -9.494   2.092  -1.060  0.00  0.00    +0.016 C 
ATOM     16  C   LIG    1       -8.464   1.862   1.292  0.00  0.00    +0.016 C 
ATOM     17  C   LIG    1      -10.812   1.131   0.883  0.00  0.00    +0.050 C 
ATOM     18  C   LIG    1      -11.781   0.222   0.117  0.00  0.00    +0.186 C 
ATOM     19  C   LIG    1      -11.185  -1.191  -0.034  0.00  0.00    +0.187 C 
ATOM     20  O   LIG    1      -11.861  -2.204   0.176  0.00  0.00    -0.290 OA
ATOM     21  C   LIG    1       -9.726  -1.259  -0.287  0.00  0.00    -0.002 C 
ATOM     22  C   LIG    1       -9.275  -2.662  -0.724  0.00  0.00    +0.048 C 
BRANCH  18  23
ATOM     23  O   LIG    1      -13.057   0.176   0.731  0.00  0.00    -0.384 OA
ATOM     24  H   LIG    1      -13.361  -0.736   0.725  0.00  0.00    +0.210 HD
ENDBRANCH  18  23
ENDBRANCH  12  13
ENDBRANCH   8  11
ENDBRANCH   6  10
ENDBRANCH   3   7
ENDBRANCH   1   5
BRANCH   2  25
ATOM     25  C   LIG    1        3.622  -0.918  -0.229  0.00  0.00    +0.003 C 
ATOM     26  C   LIG    1        4.456  -1.979  -0.098  0.00  0.00    -0.050 C 
ATOM     27  C   LIG    1        3.980  -3.380   0.267  0.00  0.00    +0.044 C 
BRANCH  26  28
ATOM     28  C   LIG    1        5.891  -1.791  -0.271  0.00  0.00    +0.003 C 
ATOM     29  C   LIG    1        6.604  -0.774   0.252  0.00  0.00    +0.001 C 
BRANCH  29  30
ATOM     30  C   LIG    1        8.037  -0.627   0.040  0.00  0.00    +0.003 C 
ATOM     31  C   LIG    1        8.854   0.300   0.596  0.00  0.00    -0.050 C 
ATOM     32  C   LIG    1        8.359   1.344   1.599  0.00  0.00    +0.044 C 
BRANCH  31  33
ATOM     33  C   LIG    1       10.264   0.264   0.213  0.00  0.00    +0.003 C 
ATOM     34  C   LIG    1       11.220   1.106   0.659  0.00  0.00    +0.005 C 
BRANCH  34  35
ATOM     35  C   LIG    1       12.628   1.069   0.252  0.00  0.00    -0.035 C 
ATOM     36  C   LIG    1       13.224   2.403  -0.284  0.00  0.00    -0.007 C 
ATOM     37  C   LIG    1       13.514   3.315   0.933  0.00  0.00    +0.016 C 
ATOM     38  C   LIG    1       12.243   3.053  -1.295  0.00  0.00    +0.016 C 
ATOM     39  C   LIG    1       14.547   2.131  -1.057  0.00  0.00    +0.050 C 
ATOM     40  C   LIG    1       15.499   1.175  -0.329  0.00  0.00    +0.186 C 
ATOM     41  C   LIG    1       14.797  -0.166  -0.041  0.00  0.00    +0.187 C 
ATOM     42  O   LIG    1       15.357  -1.247  -0.252  0.00  0.00    -0.290 OA
ATOM     43  C   LIG    1       13.370  -0.081   0.351  0.00  0.00    -0.002 C 
ATOM     44  C   LIG    1       12.839  -1.412   0.906  0.00  0.00    +0.048 C 
BRANCH  40  45
ATOM     45  O   LIG    1       16.704   0.978  -1.049  0.00  0.00    -0.384 OA
ATOM     46  H   LIG    1       16.931   0.045  -1.010  0.00  0.00    +0.210 HD
ENDBRANCH  40  45
ENDBRANCH  34  35
ENDBRANCH  31  33
ENDBRANCH  29  30
ENDBRANCH  26  28
ENDBRANCH   2  25
TORSDOF 12
