REMARK  Name = DB06082
REMARK                            x       y       z     vdW  Elec       q    Type
REMARK                         _______ _______ _______ _____ _____    ______ ____
ROOT
ATOM      1  C   LIG    1       -2.056   1.331  -0.136  0.00  0.00    +0.005 A 
ATOM      2  C   LIG    1       -2.775   0.145   0.020  0.00  0.00    -0.048 A 
ATOM      3  C   LIG    1       -2.100  -1.071   0.130  0.00  0.00    +0.005 A 
ATOM      4  C   LIG    1       -0.709  -1.103   0.092  0.00  0.00    +0.026 A 
ATOM      5  C   LIG    1        0.024   0.088  -0.049  0.00  0.00    +0.044 A 
ATOM      6  C   LIG    1       -0.665   1.305  -0.173  0.00  0.00    +0.026 A 
ENDROOT
BRANCH   2   7
ATOM      7  C   LIG    1       -4.298   0.174   0.075  0.00  0.00    +0.030 C 
BRANCH   7   8
ATOM      8  CA  LIG    1       -4.884  -0.001   1.502  0.00  0.00    +0.040 C 
BRANCH   8   9
ATOM      9  N   LIG    1       -6.390  -0.291   1.376  0.00  0.00    +0.387 N 
ATOM     10  H1  LIG    1       -6.857   0.484   0.927  0.00  0.00    -0.089 HD
ATOM     11  H2  LIG    1       -6.534  -1.122   0.821  0.00  0.00    -0.089 HD
ATOM     12  H3  LIG    1       -6.793  -0.440   2.291  0.00  0.00    -0.089 HD
ENDBRANCH   8   9
BRANCH   8  13
ATOM     13  C   LIG    1       -4.693   1.261   2.389  0.00  0.00    +0.290 C 
ATOM     14  O   LIG    1       -3.574   1.384   2.934  0.00  0.00    -0.253 OA
BRANCH  13  15
ATOM     15  OXT LIG    1       -5.621   2.095   2.508  0.00  0.00    -0.482 OA
ATOM     16  HXT LIG    1       -6.440   1.951   2.075  0.00  0.00    +0.295 HD
ENDBRANCH  13  15
ENDBRANCH   8  13
ENDBRANCH   7   8
ENDBRANCH   2   7
BRANCH   5  17
ATOM     17  N   LIG    1        1.535   0.058  -0.103  0.00  0.00    -0.329 NA
BRANCH  17  18
ATOM     18  O   LIG    1        2.064   1.311  -0.154  0.00  0.00    -0.305 OA
ATOM     19  H   LIG    1        1.733   1.771  -0.941  0.00  0.00    +0.242 HD
ENDBRANCH  17  18
BRANCH  17  20
ATOM     20  C   LIG    1        2.058  -0.678   1.147  0.00  0.00    +0.140 C 
BRANCH  20  21
ATOM     21  C   LIG    1        1.588   0.001   2.455  0.00  0.00    +0.130 C 
ATOM     22 CL   LIG    1        2.329  -0.810   3.857  0.00  0.00    -0.124 Cl
ENDBRANCH  20  21
ENDBRANCH  17  20
BRANCH  17  23
ATOM     23  C   LIG    1        1.882  -0.714  -1.395  0.00  0.00    +0.140 C 
BRANCH  23  24
ATOM     24  C   LIG    1        3.404  -0.765  -1.681  0.00  0.00    +0.130 C 
ATOM     25 CL   LIG    1        4.186  -2.164  -0.895  0.00  0.00    -0.124 Cl
ENDBRANCH  23  24
ENDBRANCH  17  23
ENDBRANCH   5  17
TORSDOF 11
