REMARK  Name = DB06174
REMARK                            x       y       z     vdW  Elec       q    Type
REMARK                         _______ _______ _______ _____ _____    ______ ____
ROOT
ATOM      1  C   LIG    1        1.593  -0.003  -0.059  0.00  0.00    +0.136 C 
ATOM      2  C   LIG    1        2.162  -1.428   0.103  0.00  0.00    +0.022 A 
ATOM      3  C   LIG    1        1.931  -2.168   1.283  0.00  0.00    +0.170 A 
ATOM      4  C   LIG    1        2.358  -3.488   1.348  0.00  0.00    +0.208 A 
ATOM      5  O   LIG    1        2.213  -4.388   2.356  0.00  0.00    -0.449 OA
ATOM      6  C   LIG    1        2.982  -5.499   1.982  0.00  0.00    +0.467 C 
ATOM      7  O   LIG    1        3.274  -5.372   0.615  0.00  0.00    -0.452 OA
ATOM      8  C   LIG    1        2.994  -4.081   0.302  0.00  0.00    +0.170 A 
ATOM      9  C   LIG    1        3.244  -3.396  -0.878  0.00  0.00    +0.053 A 
ATOM     10  C   LIG    1        2.836  -2.056  -0.983  0.00  0.00    -0.034 A 
ATOM     11  C   LIG    1        3.142  -1.275  -2.260  0.00  0.00    +0.051 C 
ATOM     12  C   LIG    1        2.327   0.032  -2.383  0.00  0.00    +0.089 C 
ATOM     13  N   LIG    1        2.253   0.782  -1.125  0.00  0.00    -0.295 NA
ATOM     14  C   LIG    1        3.571   1.265  -0.705  0.00  0.00    +0.105 C 
ENDROOT
BRANCH   1  16
ATOM     15  O   LIG    1       -0.425   1.348  -0.032  0.00  0.00    -0.451 OA
ATOM     16  C   LIG    1        0.032   0.003  -0.055  0.00  0.00    +0.229 C 
ATOM     17  C   LIG    1       -0.673  -0.612  -1.231  0.00  0.00    +0.012 A 
ATOM     18  C   LIG    1       -1.428   0.370  -1.846  0.00  0.00    +0.111 A 
ATOM     19  C   LIG    1       -2.178   0.075  -2.995  0.00  0.00    +0.176 A 
ATOM     20  C   LIG    1       -2.204  -1.236  -3.494  0.00  0.00    +0.162 A 
ATOM     21  C   LIG    1       -1.442  -2.226  -2.846  0.00  0.00    +0.050 A 
ATOM     22  C   LIG    1       -0.677  -1.916  -1.722  0.00  0.00    +0.012 A 
ATOM     23  C   LIG    1       -1.272   1.615  -1.054  0.00  0.00    +0.344 C 
ATOM     24  O   LIG    1       -1.778   2.724  -1.212  0.00  0.00    -0.245 OA
BRANCH  19  25
ATOM     25  O   LIG    1       -2.923   1.051  -3.615  0.00  0.00    -0.491 OA
ATOM     26  C   LIG    1       -2.170   1.993  -4.371  0.00  0.00    +0.277 C 
ENDBRANCH  19  25
BRANCH  20  27
ATOM     27  O   LIG    1       -2.981  -1.468  -4.615  0.00  0.00    -0.491 OA
ATOM     28  C   LIG    1       -3.028  -2.777  -5.172  0.00  0.00    +0.277 C 
ENDBRANCH  20  27
ENDBRANCH   1  16
BRANCH   3  29
ATOM     29  O   LIG    1        1.266  -1.639   2.361  0.00  0.00    -0.491 OA
ATOM     30  C   LIG    1        2.119  -1.055   3.336  0.00  0.00    +0.277 C 
ENDBRANCH   3  29
TORSDOF 4
