REMARK  Name = DB06527
REMARK                            x       y       z     vdW  Elec       q    Type
REMARK                         _______ _______ _______ _____ _____    ______ ____
ROOT
ATOM      1  C   LIG    1        0.036   0.033   0.000  0.00  0.00    +0.006 C 
ENDROOT
BRANCH   1   2
ATOM      2  C   LIG    1       -0.515   1.468   0.000  0.00  0.00    +0.196 C 
BRANCH   2   3
ATOM      3  S   LIG    1       -2.409   1.454   0.000  0.00  0.00    +0.080 S 
ATOM      4  O   LIG    1       -2.753   0.742   1.235  0.00  0.00    -0.147 OA
ATOM      5  O   LIG    1       -2.753   0.742  -1.235  0.00  0.00    -0.147 OA
BRANCH   3   6
ATOM      6  O   LIG    1       -2.759   2.879   0.000  0.00  0.00    -0.254 OA
ATOM      7  H   LIG    1       -2.500   3.275  -0.847  0.00  0.00    +0.244 HD
ENDBRANCH   3   6
ENDBRANCH   2   3
ENDBRANCH   1   2
BRANCH   1   8
ATOM      8  C   LIG    1        1.571   0.001   0.000  0.00  0.00    -0.085 C 
BRANCH   8   9
ATOM      9  N   LIG    1        2.060  -1.450   0.000  0.00  0.00    +0.378 N 
ATOM     10  H   LIG    1        1.720  -1.930   0.821  0.00  0.00    -0.090 HD
ATOM     11  H   LIG    1        1.720  -1.930  -0.821  0.00  0.00    -0.090 HD
ATOM     12  H   LIG    1        3.070  -1.478   0.000  0.00  0.00    -0.090 HD
ENDBRANCH   8   9
ENDBRANCH   1   8
TORSDOF 5
