REMARK  Name = DB06486
REMARK                            x       y       z     vdW  Elec       q    Type
REMARK                         _______ _______ _______ _____ _____    ______ ____
ROOT
ATOM      1  C   LIG    1        1.434  -0.090   0.038  0.00  0.00    +0.013 A 
ATOM      2  C   LIG    1        2.253  -0.868   0.927  0.00  0.00    +0.008 A 
ATOM      3  C   LIG    1        1.979  -1.756   1.981  0.00  0.00    +0.010 A 
ATOM      4  C   LIG    1        3.037  -2.344   2.668  0.00  0.00    +0.001 A 
ATOM      5  C   LIG    1        4.356  -2.061   2.332  0.00  0.00    +0.002 A 
ATOM      6  C   LIG    1        4.681  -1.183   1.299  0.00  0.00    +0.026 A 
ATOM      7  C   LIG    1        3.620  -0.590   0.596  0.00  0.00    +0.050 A 
ATOM      8  N   LIG    1        3.615   0.313  -0.462  0.00  0.00    -0.343 N 
ATOM      9  C   LIG    1        2.303   0.581  -0.793  0.00  0.00    +0.095 A 
ENDROOT
BRANCH   1  17
ATOM     10  C   LIG    1       -0.798   1.097  -0.104  0.00  0.00    +0.059 C 
ATOM     11  C   LIG    1       -2.161   0.650  -0.247  0.00  0.00    +0.252 C 
ATOM     12  O   LIG    1       -3.192   1.314  -0.354  0.00  0.00    -0.270 OA
ATOM     13  N   LIG    1       -2.094  -0.687  -0.230  0.00  0.00    -0.248 N 
ATOM     14  H   LIG    1       -2.906  -1.282  -0.312  0.00  0.00    +0.158 HD
ATOM     15  C   LIG    1       -0.849  -1.163  -0.116  0.00  0.00    +0.252 C 
ATOM     16  O   LIG    1       -0.524  -2.350  -0.108  0.00  0.00    -0.270 OA
ATOM     17  C   LIG    1       -0.020   0.005  -0.024  0.00  0.00    +0.059 C 
BRANCH  10  26
ATOM     18  C   LIG    1       -0.925   6.014  -1.113  0.00  0.00    +0.149 C 
ATOM     19  N   LIG    1       -0.481   4.750  -0.546  0.00  0.00    -0.349 N 
ATOM     20  C   LIG    1        0.616   4.569   0.276  0.00  0.00    +0.049 A 
ATOM     21  C   LIG    1        1.562   5.490   0.746  0.00  0.00    +0.026 A 
ATOM     22  C   LIG    1        2.550   5.011   1.604  0.00  0.00    +0.002 A 
ATOM     23  C   LIG    1        2.592   3.679   1.997  0.00  0.00    +0.001 A 
ATOM     24  C   LIG    1        1.655   2.762   1.530  0.00  0.00    +0.010 A 
ATOM     25  C   LIG    1        0.656   3.181   0.630  0.00  0.00    +0.008 A 
ATOM     26  C   LIG    1       -0.432   2.526  -0.063  0.00  0.00    +0.013 A 
ATOM     27  C   LIG    1       -1.115   3.544  -0.711  0.00  0.00    +0.095 A 
ENDBRANCH  10  26
ENDBRANCH   1  17
BRANCH   8  28
ATOM     28  C   LIG    1        4.796   0.920  -1.099  0.00  0.00    +0.084 C 
ATOM     29  C   LIG    1        4.766   0.624  -2.619  0.00  0.00    +0.006 C 
ATOM     30  C   LIG    1        5.861   1.389  -3.382  0.00  0.00    -0.076 C 
ATOM     31  N   LIG    1        5.718   2.900  -3.087  0.00  0.00    +0.383 N 
ATOM     32  H   LIG    1        4.792   3.191  -3.372  0.00  0.00    -0.081 HD
ATOM     33  C   LIG    1        5.873   3.194  -1.576  0.00  0.00    -0.076 C 
ATOM     34  C   LIG    1        4.777   2.440  -0.806  0.00  0.00    +0.006 C 
BRANCH  31  35
ATOM     35  C   LIG    1        6.754   3.709  -3.909  0.00  0.00    -0.022 C 
BRANCH  35  36
ATOM     36  C   LIG    1        6.564   5.223  -3.956  0.00  0.00    +0.025 A 
ATOM     37  N   LIG    1        5.305   5.708  -3.772  0.00  0.00    -0.262 NA
ATOM     38  C   LIG    1        5.124   7.053  -3.823  0.00  0.00    +0.111 A 
ATOM     39  C   LIG    1        6.167   7.949  -4.058  0.00  0.00    +0.020 A 
ATOM     40  C   LIG    1        7.452   7.439  -4.252  0.00  0.00    +0.003 A 
ATOM     41  C   LIG    1        7.659   6.059  -4.204  0.00  0.00    +0.021 A 
ENDBRANCH  35  36
ENDBRANCH  31  35
ENDBRANCH   8  28
TORSDOF 5
