REMARK  Name = DB06313
REMARK                            x       y       z     vdW  Elec       q    Type
REMARK                         _______ _______ _______ _____ _____    ______ ____
ROOT
ATOM      1  C   LIG    1        4.223  -1.722  -0.223  0.00  0.00    +0.087 C 
ATOM      2  C   LIG    1        3.279  -1.671   0.956  0.00  0.00    +0.114 A 
ATOM      3  O   LIG    1        3.572  -2.545   1.958  0.00  0.00    -0.455 OA
ATOM      4  C   LIG    1        2.623  -2.379   2.923  0.00  0.00    +0.181 A 
ATOM      5  C   LIG    1        2.529  -3.081   4.137  0.00  0.00    +0.216 A 
ATOM      6  C   LIG    1        1.523  -2.713   5.035  0.00  0.00    +0.166 A 
ATOM      7  C   LIG    1        0.630  -1.682   4.693  0.00  0.00    +0.050 A 
ATOM      8  C   LIG    1        0.710  -1.006   3.474  0.00  0.00    +0.016 A 
ATOM      9  C   LIG    1        1.720  -1.358   2.561  0.00  0.00    +0.035 A 
ATOM     10  C   LIG    1        2.129  -0.936   1.246  0.00  0.00    +0.071 A 
ENDROOT
BRANCH   6  11
ATOM     11  O   LIG    1        1.471  -3.412   6.227  0.00  0.00    -0.491 OA
ATOM     12  C   LIG    1        0.444  -3.119   7.167  0.00  0.00    +0.277 C 
ENDBRANCH   6  11
BRANCH  10  13
ATOM     13  C   LIG    1        1.494   0.076   0.398  0.00  0.00    +0.197 C 
ATOM     14  O   LIG    1        2.209   0.894  -0.185  0.00  0.00    -0.287 OA
BRANCH  13  15
ATOM     15  C   LIG    1       -0.003   0.096   0.246  0.00  0.00    +0.030 A 
ATOM     16  C   LIG    1       -0.632   1.220  -0.306  0.00  0.00    +0.061 A 
ATOM     17  C   LIG    1       -2.025   1.268  -0.477  0.00  0.00    +0.166 A 
ATOM     18  C   LIG    1       -2.793   0.163  -0.089  0.00  0.00    +0.204 A 
ATOM     19  C   LIG    1       -2.190  -0.987   0.435  0.00  0.00    +0.166 A 
ATOM     20  C   LIG    1       -0.796  -1.010   0.584  0.00  0.00    +0.061 A 
BRANCH  17  21
ATOM     21  O   LIG    1       -2.702   2.351  -1.009  0.00  0.00    -0.491 OA
ATOM     22  C   LIG    1       -1.969   3.497  -1.430  0.00  0.00    +0.277 C 
ENDBRANCH  17  21
BRANCH  18  23
ATOM     23  O   LIG    1       -4.158   0.197  -0.251  0.00  0.00    -0.488 OA
ATOM     24  C   LIG    1       -4.862   0.682   0.884  0.00  0.00    +0.277 C 
ENDBRANCH  18  23
BRANCH  19  25
ATOM     25  O   LIG    1       -3.020  -2.040   0.778  0.00  0.00    -0.491 OA
ATOM     26  C   LIG    1       -2.459  -3.210   1.365  0.00  0.00    +0.277 C 
ENDBRANCH  19  25
ENDBRANCH  13  15
ENDBRANCH  10  13
BRANCH   5  27
ATOM     27  O   LIG    1        3.413  -4.088   4.435  0.00  0.00    -0.396 OA
BRANCH  27  28
ATOM     28  P   LIG    1        4.170  -5.276   3.372  0.00  0.00    +0.528 P 
ATOM     29  O   LIG    1        4.299  -6.556   4.217  0.00  0.00    -0.216 OA
BRANCH  28  30
ATOM     30  O   LIG    1        3.223  -5.452   2.170  0.00  0.00    -0.293 OA
ATOM     31  H   LIG    1        3.599  -6.100   1.554  0.00  0.00    +0.223 HD
ENDBRANCH  28  30
BRANCH  28  32
ATOM     32  O   LIG    1        5.534  -4.677   2.982  0.00  0.00    -0.293 OA
ATOM     33  H   LIG    1        6.000  -5.290   2.393  0.00  0.00    +0.223 HD
ENDBRANCH  28  32
ENDBRANCH  27  28
ENDBRANCH   5  27
TORSDOF 10
