REMARK  Name = DB06588
REMARK                            x       y       z     vdW  Elec       q    Type
REMARK                         _______ _______ _______ _____ _____    ______ ____
ROOT
ATOM      1  C   LIG    1        1.408   0.084   0.056  0.00  0.00    +0.063 C 
ATOM      2  C   LIG    1        1.969   0.066   1.507  0.00  0.00    +0.068 C 
ATOM      3  C   LIG    1        1.967   1.496   2.097  0.00  0.00    +0.238 C 
ATOM      4  O   LIG    1        2.818   2.351   1.330  0.00  0.00    -0.491 OA
ATOM      5  C   LIG    1        2.619   2.332  -0.039  0.00  0.00    +0.128 A 
ATOM      6  C   LIG    1        3.134   3.427  -0.734  0.00  0.00    +0.091 A 
ATOM      7  C   LIG    1        3.038   3.479  -2.123  0.00  0.00    +0.120 A 
ATOM      8  C   LIG    1        2.434   2.431  -2.816  0.00  0.00    +0.046 A 
ATOM      9  C   LIG    1        1.926   1.335  -2.120  0.00  0.00    +0.011 A 
ATOM     10  C   LIG    1        2.010   1.260  -0.724  0.00  0.00    +0.003 A 
ENDROOT
BRANCH   1  14
ATOM     11  C   LIG    1       -2.932  -0.061  -0.145  0.00  0.00    +0.120 A 
ATOM     12  C   LIG    1       -2.173  -1.241  -0.174  0.00  0.00    +0.046 A 
ATOM     13  C   LIG    1       -0.784  -1.182  -0.114  0.00  0.00    +0.008 A 
ATOM     14  C   LIG    1       -0.130   0.050  -0.018  0.00  0.00    -0.039 A 
ATOM     15  C   LIG    1       -0.888   1.226   0.004  0.00  0.00    +0.008 A 
ATOM     16  C   LIG    1       -2.277   1.167  -0.058  0.00  0.00    +0.046 A 
BRANCH  11  18
ATOM     17  C   LIG    1       -5.040  -1.242  -0.283  0.00  0.00    +0.277 C 
ATOM     18  O   LIG    1       -4.312  -0.021  -0.195  0.00  0.00    -0.495 OA
ENDBRANCH  11  18
ENDBRANCH   1  14
BRANCH   2  19
ATOM     19  C   LIG    1        1.349  -1.013   2.407  0.00  0.00    -0.040 A 
ATOM     20  C   LIG    1        1.830  -2.325   2.327  0.00  0.00    +0.007 A 
ATOM     21  C   LIG    1        1.271  -3.327   3.115  0.00  0.00    +0.045 A 
ATOM     22  C   LIG    1        0.225  -3.021   3.983  0.00  0.00    +0.117 A 
ATOM     23  C   LIG    1       -0.265  -1.719   4.068  0.00  0.00    +0.045 A 
ATOM     24  C   LIG    1        0.295  -0.717   3.280  0.00  0.00    +0.007 A 
BRANCH  22  25
ATOM     25  O   LIG    1       -0.327  -4.006   4.758  0.00  0.00    -0.507 OA
ATOM     26  H   LIG    1        0.087  -4.861   4.625  0.00  0.00    +0.292 HD
ENDBRANCH  22  25
ENDBRANCH   2  19
BRANCH   7  27
ATOM     27  O   LIG    1        3.540   4.555  -2.805  0.00  0.00    -0.507 OA
ATOM     28  H   LIG    1        3.421   4.483  -3.754  0.00  0.00    +0.292 HD
ENDBRANCH   7  27
TORSDOF 5
