REMARK  Name = DB06264
REMARK                            x       y       z     vdW  Elec       q    Type
REMARK                         _______ _______ _______ _____ _____    ______ ____
ROOT
ATOM      1  C   LIG    1        1.547  -0.001  -0.119  0.00  0.00    +0.041 C 
ATOM      2  C   LIG    1        2.060   0.078  -1.572  0.00  0.00    +0.014 C 
ENDROOT
BRANCH   1   3
ATOM      3  C   LIG    1       -0.001  -0.094  -0.105  0.00  0.00    +0.164 C 
ATOM      4  O   LIG    1       -0.654   0.949  -0.023  0.00  0.00    -0.292 OA
BRANCH   3   6
ATOM      5  C   LIG    1        0.074  -2.615  -0.409  0.00  0.00    +0.011 A 
ATOM      6  C   LIG    1       -0.637  -1.453  -0.072  0.00  0.00    +0.018 A 
ATOM      7  C   LIG    1       -1.992  -1.564   0.275  0.00  0.00    +0.011 A 
ATOM      8  C   LIG    1       -2.618  -2.808   0.297  0.00  0.00    +0.004 A 
ATOM      9  C   LIG    1       -1.897  -3.956  -0.030  0.00  0.00    -0.050 A 
ATOM     10  C   LIG    1       -2.579  -5.312  -0.026  0.00  0.00    +0.044 C 
ATOM     11  C   LIG    1       -0.553  -3.858  -0.387  0.00  0.00    +0.004 A 
ENDBRANCH   3   6
ENDBRANCH   1   3
BRANCH   1  12
ATOM     12  C   LIG    1        2.133   1.176   0.716  0.00  0.00    -0.068 C 
BRANCH  12  13
ATOM     13  N   LIG    1        1.579   1.241   2.165  0.00  0.00    +0.380 N 
ATOM     14  H   LIG    1        0.569   1.249   2.118  0.00  0.00    -0.082 HD
ATOM     15  C   LIG    1        2.014   0.010   2.999  0.00  0.00    -0.079 C 
ATOM     16  C   LIG    1        1.401   0.113   4.407  0.00  0.00    -0.019 C 
ATOM     17  C   LIG    1        1.772   1.432   5.105  0.00  0.00    -0.004 C 
ATOM     18  C   LIG    1        1.403   2.650   4.241  0.00  0.00    -0.019 C 
ATOM     19  C   LIG    1        2.019   2.565   2.833  0.00  0.00    -0.079 C 
ENDBRANCH  12  13
ENDBRANCH   1  12
TORSDOF 4
