REMARK  Name = DB06590
REMARK                            x       y       z     vdW  Elec       q    Type
REMARK                         _______ _______ _______ _____ _____    ______ ____
ROOT
ATOM      1  C   LIG    1       -2.438  -2.583  -2.302  0.00  0.00    +0.169 C 
ATOM      2  CA  LIG    1       -2.063  -1.509  -1.243  0.00  0.00    +0.191 C 
ATOM      3  C   LIG    1       -3.056  -2.256  -0.307  0.00  0.00    +0.244 C 
ATOM      4  O   LIG    1       -3.501  -2.062   0.823  0.00  0.00    -0.273 OA
ATOM      5  S   LIG    1       -1.161  -3.646  -3.058  0.00  0.00    -0.130 S 
ATOM      6  C   LIG    1       -2.273  -5.045  -3.423  0.00  0.00    +0.115 C 
ATOM      7  C   LIG    1       -3.019  -5.508  -2.165  0.00  0.00    +0.030 C 
ATOM      8  CA  LIG    1       -3.421  -4.650  -1.186  0.00  0.00    +0.133 C 
ATOM      9  N   LIG    1       -3.149  -3.309  -1.223  0.00  0.00    -0.248 N 
ENDROOT
BRANCH   2  10
ATOM     10  N   LIG    1       -0.695  -1.561  -0.712  0.00  0.00    -0.296 N 
ATOM     11  H   LIG    1       -0.472  -2.370  -0.150  0.00  0.00    +0.150 HD
ATOM     12  C   LIG    1        0.288  -0.683  -0.979  0.00  0.00    +0.270 C 
ATOM     13  O   LIG    1        0.148   0.326  -1.671  0.00  0.00    -0.268 OA
BRANCH  12  14
ATOM     14  C   LIG    1        1.570  -1.024  -0.339  0.00  0.00    +0.208 C 
ATOM     15  N   LIG    1        1.978  -0.366   0.695  0.00  0.00    -0.076 NA
BRANCH  14  16
ATOM     16  C   LIG    1        2.396  -2.133  -0.894  0.00  0.00    +0.197 A 
ATOM     17  N   LIG    1        3.589  -2.391  -0.371  0.00  0.00    -0.202 NA
ATOM     18  C   LIG    1        4.144  -3.403  -0.974  0.00  0.00    +0.187 A 
ATOM     19  S   LIG    1        3.150  -4.057  -2.225  0.00  0.00    +0.050 S 
ATOM     20  N   LIG    1        1.954  -2.879  -1.900  0.00  0.00    -0.185 NA
BRANCH  18  21
ATOM     21  N   LIG    1        5.406  -3.884  -0.620  0.00  0.00    -0.230 N 
ATOM     22  H   LIG    1        5.896  -3.308   0.066  0.00  0.00    +0.160 HD
BRANCH  21  23
ATOM     23  P   LIG    1        6.215  -5.265  -1.196  0.00  0.00    +0.423 P 
ATOM     24  O   LIG    1        5.526  -6.573  -1.028  0.00  0.00    -0.237 OA
BRANCH  23  25
ATOM     25  O   LIG    1        7.666  -5.176  -0.471  0.00  0.00    -0.310 OA
ATOM     26  H   LIG    1        7.663  -5.184   0.505  0.00  0.00    +0.221 HD
ENDBRANCH  23  25
BRANCH  23  27
ATOM     27  O   LIG    1        6.562  -4.883  -2.735  0.00  0.00    -0.310 OA
ATOM     28  H   LIG    1        5.803  -4.646  -3.302  0.00  0.00    +0.221 HD
ENDBRANCH  23  27
ENDBRANCH  21  23
ENDBRANCH  18  21
ENDBRANCH  14  16
BRANCH  15  29
ATOM     29  O   LIG    1        1.112   0.654   1.162  0.00  0.00    -0.393 OA
BRANCH  29  30
ATOM     30  C   LIG    1        1.693   1.307   2.285  0.00  0.00    +0.259 C 
ATOM     31  C   LIG    1        2.882   2.203   1.894  0.00  0.00    +0.051 C 
ENDBRANCH  29  30
ENDBRANCH  15  29
ENDBRANCH  12  14
ENDBRANCH   2  10
BRANCH   8  32
ATOM     32  C   LIG    1       -4.134  -5.202   0.085  0.00  0.00    +0.352 C 
ATOM     33  OXT LIG    1       -3.368  -5.512   1.027  0.00  0.00    -0.244 OA
BRANCH  32  34
ATOM     34  O   LIG    1       -5.382  -5.249   0.003  0.00  0.00    -0.476 OA
ATOM     35  H   LIG    1       -5.887  -5.568   0.724  0.00  0.00    +0.295 HD
ENDBRANCH  32  34
ENDBRANCH   8  32
BRANCH   7  36
ATOM     36  S   LIG    1       -3.132  -7.299  -2.114  0.00  0.00    -0.064 S 
BRANCH  36  37
ATOM     37  C   LIG    1       -1.525  -7.659  -1.480  0.00  0.00    +0.139 A 
ATOM     38  N   LIG    1       -0.802  -6.819  -0.781  0.00  0.00    -0.237 NA
ATOM     39  C   LIG    1        0.366  -7.292  -0.388  0.00  0.00    +0.057 A 
ATOM     40  C   LIG    1        0.599  -8.604  -0.814  0.00  0.00    +0.071 A 
ATOM     41  S   LIG    1       -0.763  -9.192  -1.726  0.00  0.00    -0.069 S 
BRANCH  39  42
ATOM     42  C   LIG    1        1.275  -6.427   0.438  0.00  0.00    +0.034 C 
ATOM     43  C   LIG    1        0.840  -5.194   0.956  0.00  0.00    +0.026 C 
ATOM     44  C   LIG    1        1.703  -4.412   1.725  0.00  0.00    +0.078 C 
ATOM     45  N   LIG    1        2.967  -4.834   1.961  0.00  0.00    -0.296 NA
ATOM     46  C   LIG    1        3.856  -4.000   2.791  0.00  0.00    +0.105 C 
ATOM     47  C   LIG    1        3.420  -6.022   1.495  0.00  0.00    +0.078 C 
ATOM     48  C   LIG    1        2.587  -6.833   0.721  0.00  0.00    +0.026 C 
ENDBRANCH  39  42
ENDBRANCH  36  37
ENDBRANCH   7  36
TORSDOF 14
