REMARK  Name = DB06257
REMARK                            x       y       z     vdW  Elec       q    Type
REMARK                         _______ _______ _______ _____ _____    ______ ____
ROOT
ATOM      1  C   LIG    1        1.491   0.091   0.026  0.00  0.00    +0.121 C 
ATOM      2  C   LIG    1        2.061  -0.637   1.262  0.00  0.00    +0.032 C 
ATOM      3  C   LIG    1        3.158  -1.585   0.739  0.00  0.00    +0.007 C 
ATOM      4  C   LIG    1        3.315  -1.216  -0.744  0.00  0.00    +0.004 C 
ATOM      5  C   LIG    1        3.977  -2.214  -1.746  0.00  0.00    +0.029 C 
ATOM      6  C   LIG    1        5.387  -2.656  -1.259  0.00  0.00    +0.141 C 
ATOM      7  C   LIG    1        6.202  -3.276  -2.382  0.00  0.00    +0.004 C 
ATOM      8  C   LIG    1        5.907  -3.249  -3.699  0.00  0.00    -0.062 C 
ATOM      9  C   LIG    1        6.794  -3.978  -4.716  0.00  0.00    +0.062 C 
ATOM     10  C   LIG    1        7.192  -3.048  -5.876  0.00  0.00    +0.119 C 
ATOM     11  C   LIG    1        5.963  -2.412  -6.541  0.00  0.00    +0.032 C 
ATOM     12  C   LIG    1        5.090  -1.681  -5.506  0.00  0.00    +0.014 C 
ATOM     13  C   LIG    1        4.652  -2.532  -4.268  0.00  0.00    -0.008 C 
ATOM     14  C   LIG    1        3.632  -3.622  -4.700  0.00  0.00    +0.016 C 
ATOM     15  C   LIG    1        4.050  -1.566  -3.173  0.00  0.00    +0.005 C 
ATOM     16  C   LIG    1        2.709  -0.878  -3.608  0.00  0.00    +0.005 C 
ATOM     17  C   LIG    1        2.090   0.015  -2.509  0.00  0.00    +0.010 C 
ATOM     18  C   LIG    1        1.903  -0.773  -1.191  0.00  0.00    -0.003 C 
ATOM     19  C   LIG    1        0.882  -1.942  -1.369  0.00  0.00    +0.014 C 
ENDROOT
BRANCH   1  20
ATOM     20  O   LIG    1        0.139   0.494   0.134  0.00  0.00    -0.391 OA
ATOM     21  H   LIG    1       -0.031   1.169  -0.527  0.00  0.00    +0.210 HD
ENDBRANCH   1  20
BRANCH  10  22
ATOM     22  O   LIG    1        7.973  -3.740  -6.829  0.00  0.00    -0.391 OA
ATOM     23  H   LIG    1        8.826  -3.305  -6.899  0.00  0.00    +0.210 HD
ENDBRANCH  10  22
BRANCH   6  24
ATOM     24  O   LIG    1        5.311  -3.577  -0.190  0.00  0.00    -0.387 OA
ATOM     25  H   LIG    1        6.199  -3.737   0.138  0.00  0.00    +0.210 HD
ENDBRANCH   6  24
TORSDOF 3
