REMARK  Name = DB06201
REMARK                            x       y       z     vdW  Elec       q    Type
REMARK                         _______ _______ _______ _____ _____    ______ ____
ROOT
ATOM      1  N   LIG    1        0.026  -0.031   0.121  0.00  0.00    -0.246 N 
ATOM      2  C   LIG    1       -0.828  -1.101   0.063  0.00  0.00    +0.143 A 
ATOM      3  C   LIG    1       -2.109  -0.557   0.141  0.00  0.00    +0.167 A 
ATOM      4  N   LIG    1       -1.997   0.765   0.227  0.00  0.00    -0.125 NA
ATOM      5  N   LIG    1       -0.658   1.114   0.202  0.00  0.00    -0.065 NA
ENDROOT
BRANCH   3   6
ATOM      6  C   LIG    1       -3.337  -1.317   0.122  0.00  0.00    +0.263 C 
ATOM      7  N   LIG    1       -4.465  -0.603   0.216  0.00  0.00    -0.324 N 
ATOM      8  H   LIG    1       -5.361  -1.067   0.210  0.00  0.00    +0.145 HD
ATOM      9  H   LIG    1       -4.424   0.403   0.292  0.00  0.00    +0.145 HD
ATOM     10  O   LIG    1       -3.342  -2.544   0.026  0.00  0.00    -0.269 OA
ENDBRANCH   3   6
BRANCH   1  11
ATOM     11  C   LIG    1        1.478  -0.024   0.019  0.00  0.00    +0.186 C 
BRANCH  11  19
ATOM     12  F   LIG    1        1.971   2.380  -1.454  0.00  0.00    -0.205 F 
ATOM     13  C   LIG    1        2.186   1.204  -2.088  0.00  0.00    +0.131 A 
ATOM     14  C   LIG    1        2.626   1.212  -3.412  0.00  0.00    +0.039 A 
ATOM     15  C   LIG    1        2.848   0.011  -4.083  0.00  0.00    +0.006 A 
ATOM     16  C   LIG    1        2.628  -1.202  -3.431  0.00  0.00    +0.039 A 
ATOM     17  C   LIG    1        2.188  -1.215  -2.107  0.00  0.00    +0.131 A 
ATOM     18  F   LIG    1        1.974  -2.401  -1.491  0.00  0.00    -0.205 F 
ATOM     19  C   LIG    1        1.966  -0.011  -1.425  0.00  0.00    +0.044 A 
ENDBRANCH  11  19
ENDBRANCH   1  11
TORSDOF 3
