REMARK  Name = DB07933
REMARK                            x       y       z     vdW  Elec       q    Type
REMARK                         _______ _______ _______ _____ _____    ______ ____
ROOT
ATOM      1  C   LIG    1       -2.088  -0.677   1.453  0.00  0.00    +0.030 C 
ATOM      2  C   LIG    1       -0.536  -0.729   1.317  0.00  0.00    +0.042 C 
ATOM      3  C   LIG    1        0.001   0.083   0.108  0.00  0.00    +0.207 C 
ATOM      4  O   LIG    1       -0.508   1.417   0.162  0.00  0.00    -0.484 OA
ATOM      5  C   LIG    1       -1.883   1.472   0.089  0.00  0.00    +0.125 A 
ATOM      6  C   LIG    1       -2.428   2.560  -0.592  0.00  0.00    +0.049 A 
ATOM      7  C   LIG    1       -3.811   2.678  -0.714  0.00  0.00    +0.049 A 
ATOM      8  C   LIG    1       -4.644   1.711  -0.152  0.00  0.00    +0.117 A 
ATOM      9  C   LIG    1       -4.091   0.632   0.540  0.00  0.00    +0.053 A 
ATOM     10  C   LIG    1       -0.009  -0.311   2.698  0.00  0.00    +0.008 C 
ATOM     11  C   LIG    1       -1.031  -0.904   3.660  0.00  0.00    +0.001 C 
ATOM     12  C   LIG    1       -2.705   0.495   0.683  0.00  0.00    +0.001 A 
ATOM     13  C   LIG    1       -2.375  -0.650   2.974  0.00  0.00    +0.009 C 
ENDROOT
BRANCH   3  14
ATOM     14  C   LIG    1        1.528   0.058   0.022  0.00  0.00    -0.007 A 
ATOM     15  C   LIG    1        2.293   1.090   0.579  0.00  0.00    +0.011 A 
ATOM     16  C   LIG    1        3.682   1.051   0.500  0.00  0.00    +0.046 A 
ATOM     17  C   LIG    1        4.309  -0.021  -0.132  0.00  0.00    +0.117 A 
ATOM     18  C   LIG    1        3.556  -1.054  -0.688  0.00  0.00    +0.046 A 
ATOM     19  C   LIG    1        2.166  -1.014  -0.610  0.00  0.00    +0.011 A 
BRANCH  17  20
ATOM     20  O   LIG    1        5.676  -0.060  -0.206  0.00  0.00    -0.507 OA
ATOM     21  H   LIG    1        6.005  -0.841  -0.657  0.00  0.00    +0.292 HD
ENDBRANCH  17  20
ENDBRANCH   3  14
BRANCH   8  22
ATOM     22  O   LIG    1       -6.003   1.821  -0.276  0.00  0.00    -0.507 OA
ATOM     23  H   LIG    1       -6.272   2.593  -0.779  0.00  0.00    +0.292 HD
ENDBRANCH   8  22
TORSDOF 3
