REMARK  Name = DB07565
REMARK                            x       y       z     vdW  Elec       q    Type
REMARK                         _______ _______ _______ _____ _____    ______ ____
ROOT
ATOM      1  C   LIG    1        0.066   0.042   0.011  0.00  0.00    +0.143 C 
ENDROOT
BRANCH   1   2
ATOM      2  N   LIG    1       -0.446  -0.710   1.170  0.00  0.00    -0.304 N 
ATOM      3  H   LIG    1        0.046  -0.563   2.039  0.00  0.00    +0.149 HD
ATOM      4  C   LIG    1       -1.445  -1.611   1.154  0.00  0.00    +0.246 C 
ATOM      5  O   LIG    1       -2.071  -1.909   0.136  0.00  0.00    -0.273 OA
BRANCH   4   6
ATOM      6  C   LIG    1       -1.757  -2.297   2.489  0.00  0.00    +0.256 C 
ATOM      7 CL   LIG    1       -3.502  -2.614   2.691  0.00  0.00    -0.094 Cl
ATOM      8 CL   LIG    1       -0.845  -3.821   2.634  0.00  0.00    -0.094 Cl
ENDBRANCH   4   6
ENDBRANCH   1   2
BRANCH   1   9
ATOM      9  C   LIG    1       -0.620   1.432  -0.162  0.00  0.00    +0.168 C 
BRANCH   9  13
ATOM     10  C   LIG    1        0.796   3.578  -3.657  0.00  0.00    +0.122 A 
ATOM     11  C   LIG    1        1.195   3.966  -2.370  0.00  0.00    +0.033 A 
ATOM     12  C   LIG    1        0.738   3.278  -1.250  0.00  0.00    +0.008 A 
ATOM     13  C   LIG    1       -0.127   2.192  -1.397  0.00  0.00    -0.017 A 
ATOM     14  C   LIG    1       -0.525   1.795  -2.676  0.00  0.00    +0.008 A 
ATOM     15  C   LIG    1       -0.069   2.483  -3.796  0.00  0.00    +0.033 A 
BRANCH  10  16
ATOM     16  N   LIG    1        1.280   4.314  -4.852  0.00  0.00    +0.006 N 
ATOM     17  O   LIG    1        2.035   5.269  -4.688  0.00  0.00    -0.130 OA
BRANCH  16  18
ATOM     18  O   LIG    1        0.910   3.942  -5.962  0.00  0.00    -0.396 OA
ATOM     19  H   LIG    1        0.333   3.208  -6.043  0.00  0.00    +0.329 HD
ENDBRANCH  16  18
ENDBRANCH  10  16
ENDBRANCH   9  13
BRANCH   9  20
ATOM     20  O   LIG    1       -2.033   1.311  -0.162  0.00  0.00    -0.385 OA
ATOM     21  H   LIG    1       -2.284   0.653   0.490  0.00  0.00    +0.210 HD
ENDBRANCH   9  20
ENDBRANCH   1   9
BRANCH   1  22
ATOM     22  C   LIG    1        1.605   0.158   0.105  0.00  0.00    +0.257 C 
BRANCH  22  23
ATOM     23  O   LIG    1        2.205  -1.129   0.222  0.00  0.00    -0.463 OA
BRANCH  23  24
ATOM     24  C   LIG    1        3.535  -1.259   0.387  0.00  0.00    +0.308 C 
ATOM     25  O   LIG    1        4.349  -0.334   0.451  0.00  0.00    -0.251 OA
BRANCH  24  26
ATOM     26  C   LIG    1        3.948  -2.733   0.500  0.00  0.00    +0.132 C 
BRANCH  26  27
ATOM     27  C   LIG    1        5.463  -2.966   0.698  0.00  0.00    +0.131 C 
BRANCH  27  28
ATOM     28  C   LIG    1        5.829  -4.451   0.656  0.00  0.00    +0.305 C 
ATOM     29  O   LIG    1        6.366  -4.986  -0.311  0.00  0.00    -0.251 OA
BRANCH  28  30
ATOM     30  O   LIG    1        5.485  -5.088   1.813  0.00  0.00    -0.481 OA
ATOM     31  H   LIG    1        5.712  -6.020   1.796  0.00  0.00    +0.295 HD
ENDBRANCH  28  30
ENDBRANCH  27  28
ENDBRANCH  26  27
ENDBRANCH  24  26
ENDBRANCH  23  24
ENDBRANCH  22  23
ENDBRANCH   1  22
TORSDOF 14
