REMARK  Name = DB07943
REMARK                            x       y       z     vdW  Elec       q    Type
REMARK                         _______ _______ _______ _____ _____    ______ ____
ROOT
ATOM      1  C   LIG    1       -2.060  -0.690  -0.412  0.00  0.00    +0.075 A 
ATOM      2  C   LIG    1       -0.778  -1.234  -0.269  0.00  0.00    +0.049 A 
ATOM      3  C   LIG    1        0.107  -0.173  -0.586  0.00  0.00    +0.076 A 
ATOM      4  N   LIG    1       -0.546   0.927  -0.887  0.00  0.00    -0.177 NA
ATOM      5  N   LIG    1       -1.832   0.605  -0.793  0.00  0.00    -0.276 N 
ATOM      6  H   LIG    1       -2.562   1.281  -0.969  0.00  0.00    +0.189 HD
ENDROOT
BRANCH   3   7
ATOM      7  C   LIG    1        1.627  -0.152  -0.629  0.00  0.00    +0.043 C 
ATOM      8  C   LIG    1        2.265   0.178  -2.012  0.00  0.00    +0.029 C 
ATOM      9  C   LIG    1        3.783   0.481  -1.971  0.00  0.00    +0.108 C 
ATOM     10  N   LIG    1        4.030   1.394  -0.847  0.00  0.00    -0.300 N 
ATOM     11  C   LIG    1        3.967   2.744  -1.011  0.00  0.00    +0.241 C 
ATOM     12  O   LIG    1        3.862   3.263  -2.127  0.00  0.00    -0.273 OA
ATOM     13  C   LIG    1        3.831   0.740   0.453  0.00  0.00    +0.108 C 
ATOM     14  C   LIG    1        2.317   0.468   0.620  0.00  0.00    +0.029 C 
BRANCH  11  15
ATOM     15  C   LIG    1        4.210   3.637   0.228  0.00  0.00    +0.251 C 
BRANCH  15  16
ATOM     16  O   LIG    1        4.188   5.012  -0.117  0.00  0.00    -0.386 OA
ATOM     17  H   LIG    1        4.762   5.144  -0.875  0.00  0.00    +0.210 HD
ENDBRANCH  15  16
ENDBRANCH  11  15
ENDBRANCH   3   7
BRANCH   1  18
ATOM     18  C   LIG    1       -3.433  -1.233  -0.201  0.00  0.00    +0.001 A 
ATOM     19  C   LIG    1       -3.695  -2.073   0.886  0.00  0.00    +0.011 A 
ATOM     20  C   LIG    1       -4.976  -2.579   1.087  0.00  0.00    +0.020 A 
ATOM     21  C   LIG    1       -5.998  -2.243   0.202  0.00  0.00    +0.041 A 
ATOM     22 CL   LIG    1       -7.587  -2.870   0.451  0.00  0.00    -0.084 Cl
ATOM     23  C   LIG    1       -5.748  -1.402  -0.881  0.00  0.00    +0.020 A 
ATOM     24  C   LIG    1       -4.467  -0.896  -1.081  0.00  0.00    +0.011 A 
ENDBRANCH   1  18
BRANCH   2  25
ATOM     25  C   LIG    1       -0.431  -2.636   0.118  0.00  0.00    +0.078 A 
ATOM     26  N   LIG    1        0.633  -2.788   0.955  0.00  0.00    -0.235 NA
ATOM     27  C   LIG    1        0.956  -4.061   1.300  0.00  0.00    +0.221 A 
ATOM     28  N   LIG    1        0.322  -5.188   0.886  0.00  0.00    -0.244 NA
ATOM     29  C   LIG    1       -0.731  -5.005   0.047  0.00  0.00    +0.114 A 
ATOM     30  C   LIG    1       -1.147  -3.738  -0.371  0.00  0.00    +0.048 A 
ENDBRANCH   2  25
TORSDOF 5
