REMARK  Name = DB07425
REMARK                            x       y       z     vdW  Elec       q    Type
REMARK                         _______ _______ _______ _____ _____    ______ ____
ROOT
ATOM      1  C   LIG    1       -2.866  -0.028  -0.181  0.00  0.00    +0.122 A 
ATOM      2  C   LIG    1       -2.116  -1.196   0.013  0.00  0.00    +0.049 A 
ATOM      3  C   LIG    1       -0.719  -1.161   0.050  0.00  0.00    -0.043 A 
ATOM      4  C   LIG    1        0.025  -2.474   0.267  0.00  0.00    +0.044 C 
ATOM      5  C   LIG    1       -0.042   0.068  -0.096  0.00  0.00    -0.037 A 
ATOM      6  C   LIG    1       -0.794   1.243  -0.301  0.00  0.00    -0.043 A 
ATOM      7  C   LIG    1       -0.130   2.603  -0.478  0.00  0.00    +0.044 C 
ATOM      8  C   LIG    1       -2.189   1.179  -0.337  0.00  0.00    +0.049 A 
ENDROOT
BRANCH   1   9
ATOM      9  O   LIG    1       -4.249   0.024  -0.229  0.00  0.00    -0.481 OA
BRANCH   9  10
ATOM     10  C   LIG    1       -5.044  -1.163  -0.064  0.00  0.00    +0.349 C 
BRANCH  10  11
ATOM     11  C   LIG    1       -5.095  -2.019  -1.355  0.00  0.00    +0.343 C 
ATOM     12  O   LIG    1       -5.587  -3.163  -1.238  0.00  0.00    -0.247 OA
BRANCH  11  13
ATOM     13  O   LIG    1       -4.677  -1.540  -2.435  0.00  0.00    -0.478 OA
ATOM     14  H   LIG    1       -5.274  -1.124  -3.025  0.00  0.00    +0.295 HD
ENDBRANCH  11  13
ENDBRANCH  10  11
ENDBRANCH   9  10
ENDBRANCH   1   9
BRANCH   5  15
ATOM     15  C   LIG    1        1.494   0.130  -0.074  0.00  0.00    +0.070 C 
BRANCH  15  16
ATOM     16  C   LIG    1        2.105   0.646   1.228  0.00  0.00    -0.043 A 
ATOM     17  C   LIG    1        3.181   1.538   1.183  0.00  0.00    +0.011 A 
ATOM     18  C   LIG    1        3.762   2.039   2.359  0.00  0.00    -0.003 A 
ATOM     19  C   LIG    1        3.241   1.620   3.597  0.00  0.00    +0.120 A 
ATOM     20  C   LIG    1        2.168   0.730   3.645  0.00  0.00    +0.046 A 
ATOM     21  C   LIG    1        1.602   0.246   2.469  0.00  0.00    +0.007 A 
BRANCH  18  22
ATOM     22  C   LIG    1        4.952   3.016   2.304  0.00  0.00    +0.016 C 
ATOM     23  C   LIG    1        6.279   2.305   2.633  0.00  0.00    +0.012 C 
ATOM     24  C   LIG    1        5.072   3.821   0.991  0.00  0.00    +0.012 C 
ENDBRANCH  18  22
BRANCH  19  25
ATOM     25  O   LIG    1        3.762   2.072   4.783  0.00  0.00    -0.506 OA
ATOM     26  H   LIG    1        3.312   1.710   5.549  0.00  0.00    +0.292 HD
ENDBRANCH  19  25
ENDBRANCH  15  16
ENDBRANCH   5  15
TORSDOF 8
