REMARK  Name = DB07101
REMARK                            x       y       z     vdW  Elec       q    Type
REMARK                         _______ _______ _______ _____ _____    ______ ____
ROOT
ATOM      1  C   LIG    1       -2.047   4.281   1.518  0.00  0.00    +0.082 A 
ATOM      2  C   LIG    1       -2.603   5.548   1.259  0.00  0.00    +0.180 A 
ATOM      3  F   LIG    1       -2.795   6.441   2.260  0.00  0.00    -0.201 F 
ATOM      4  C   LIG    1       -2.977   5.908  -0.034  0.00  0.00    +0.160 A 
ATOM      5  F   LIG    1       -3.498   7.133  -0.275  0.00  0.00    -0.202 F 
ATOM      6  C   LIG    1       -2.822   5.008  -1.081  0.00  0.00    +0.042 A 
ATOM      7  C   LIG    1       -2.306   3.739  -0.837  0.00  0.00    +0.018 A 
ATOM      8  C   LIG    1       -1.921   3.347   0.457  0.00  0.00    +0.063 A 
ENDROOT
BRANCH   8   9
ATOM      9  C   LIG    1       -1.387   1.943   0.666  0.00  0.00    +0.269 C 
ATOM     10  O   LIG    1       -1.719   1.280   1.653  0.00  0.00    -0.268 OA
ATOM     11  N   LIG    1       -0.539   1.498  -0.285  0.00  0.00    -0.190 N 
ATOM     12  H   LIG    1       -0.418   1.920  -1.194  0.00  0.00    +0.183 HD
BRANCH  11  13
ATOM     13  O   LIG    1       -0.098   0.174  -0.247  0.00  0.00    -0.277 OA
BRANCH  13  14
ATOM     14  C   LIG    1        1.180   0.091   0.387  0.00  0.00    +0.223 C 
BRANCH  14  15
ATOM     15  C   LIG    1        1.682  -1.370   0.462  0.00  0.00    +0.168 C 
BRANCH  15  16
ATOM     16  O   LIG    1        0.834  -2.124   1.309  0.00  0.00    -0.387 OA
ATOM     17  H   LIG    1        0.746  -1.660   2.145  0.00  0.00    +0.210 HD
ENDBRANCH  15  16
BRANCH  15  18
ATOM     18  C   LIG    1        1.816  -2.080  -0.905  0.00  0.00    +0.189 C 
BRANCH  18  19
ATOM     19  O   LIG    1        2.821  -1.484  -1.701  0.00  0.00    -0.392 OA
ATOM     20  H   LIG    1        2.878  -1.965  -2.531  0.00  0.00    +0.210 HD
ENDBRANCH  18  19
ENDBRANCH  15  18
ENDBRANCH  14  15
ENDBRANCH  13  14
ENDBRANCH  11  13
ENDBRANCH   8   9
BRANCH   1  21
ATOM     21  N   LIG    1       -1.700   3.934   2.840  0.00  0.00    -0.309 N 
ATOM     22  H   LIG    1       -1.905   2.979   3.095  0.00  0.00    +0.152 HD
BRANCH  21  23
ATOM     23  C   LIG    1       -1.016   4.674   3.819  0.00  0.00    +0.067 A 
ATOM     24  C   LIG    1       -0.038   5.635   3.505  0.00  0.00    +0.145 A 
ATOM     25  F   LIG    1        0.280   5.919   2.220  0.00  0.00    -0.204 F 
ATOM     26  C   LIG    1        0.637   6.305   4.526  0.00  0.00    +0.054 A 
ATOM     27  C   LIG    1        0.361   6.012   5.861  0.00  0.00    +0.016 A 
ATOM     28  I   LIG    1        1.378   7.019   7.386  0.00  0.00    -0.044 I 
ATOM     29  C   LIG    1       -0.587   5.041   6.178  0.00  0.00    +0.016 A 
ATOM     30  C   LIG    1       -1.265   4.369   5.161  0.00  0.00    +0.027 A 
ENDBRANCH  21  23
ENDBRANCH   1  21
TORSDOF 9
