REMARK  Name = DB07776
REMARK                            x       y       z     vdW  Elec       q    Type
REMARK                         _______ _______ _______ _____ _____    ______ ____
ROOT
ATOM      1  O   LIG    1       -0.521   1.221   0.000  0.00  0.00    -0.455 OA
ATOM      2  C   LIG    1       -1.891   1.394   0.000  0.00  0.00    +0.139 A 
ATOM      3  C   LIG    1       -2.364   2.706   0.000  0.00  0.00    +0.047 A 
ATOM      4  C   LIG    1       -3.737   2.944   0.000  0.00  0.00    +0.004 A 
ATOM      5  C   LIG    1       -4.631   1.874   0.000  0.00  0.00    +0.001 A 
ATOM      6  C   LIG    1       -4.156   0.561   0.000  0.00  0.00    +0.015 A 
ATOM      7  C   LIG    1       -2.777   0.303   0.000  0.00  0.00    +0.064 A 
ATOM      8  C   LIG    1       -2.243  -1.094   0.000  0.00  0.00    +0.193 A 
ATOM      9  C   LIG    1       -0.784  -1.154   0.000  0.00  0.00    +0.098 A 
ATOM     10  O   LIG    1       -2.971  -2.086   0.000  0.00  0.00    -0.287 OA
ATOM     11  C   LIG    1       -0.005  -0.043   0.000  0.00  0.00    +0.139 A 
ENDROOT
BRANCH  11  12
ATOM     12  C   LIG    1        1.491  -0.025   0.000  0.00  0.00    +0.017 A 
ATOM     13  C   LIG    1        2.191   1.194   0.000  0.00  0.00    +0.011 A 
ATOM     14  C   LIG    1        3.583   1.223   0.000  0.00  0.00    +0.001 A 
ATOM     15  C   LIG    1        4.298   0.031   0.000  0.00  0.00    +0.000 A 
ATOM     16  C   LIG    1        3.630  -1.189   0.000  0.00  0.00    +0.001 A 
ATOM     17  C   LIG    1        2.238  -1.215   0.000  0.00  0.00    +0.011 A 
ENDBRANCH  11  12
TORSDOF 1
