REMARK  Name = DB07159
REMARK                            x       y       z     vdW  Elec       q    Type
REMARK                         _______ _______ _______ _____ _____    ______ ____
ROOT
ATOM      1  C   LIG    1        2.324  -1.902  -3.105  0.00  0.00    +0.165 A 
ATOM      2  C   LIG    1        3.667  -2.244  -2.900  0.00  0.00    +0.181 A 
ATOM      3  F   LIG    1        4.403  -2.866  -3.851  0.00  0.00    -0.200 F 
ATOM      4  C   LIG    1        4.229  -1.920  -1.662  0.00  0.00    +0.156 A 
ATOM      5  N   LIG    1        3.522  -1.302  -0.679  0.00  0.00    -0.220 NA
ATOM      6  C   LIG    1        2.224  -1.008  -0.952  0.00  0.00    +0.221 A 
ATOM      7  N   LIG    1        1.607  -1.279  -2.133  0.00  0.00    -0.196 NA
ENDROOT
BRANCH   1   8
ATOM      8  N   LIG    1        1.699  -2.223  -4.323  0.00  0.00    -0.282 N 
ATOM      9  H   LIG    1        2.242  -2.831  -4.919  0.00  0.00    +0.155 HD
BRANCH   8  21
ATOM     10  N   LIG    1       -1.675  -3.088  -7.457  0.00  0.00    -0.264 N 
ATOM     11  H   LIG    1       -1.056  -3.755  -7.895  0.00  0.00    +0.156 HD
ATOM     12  C   LIG    1       -2.920  -3.026  -7.976  0.00  0.00    +0.262 C 
ATOM     13  O   LIG    1       -3.265  -3.704  -8.943  0.00  0.00    -0.271 OA
ATOM     14  C   LIG    1       -3.832  -1.980  -7.223  0.00  0.00    +0.180 C 
ATOM     15  C   LIG    1       -4.448  -2.716  -6.004  0.00  0.00    +0.065 C 
ATOM     16  C   LIG    1       -4.864  -1.424  -8.227  0.00  0.00    +0.065 C 
ATOM     17  O   LIG    1       -3.075  -0.832  -6.752  0.00  0.00    -0.474 OA
ATOM     18  C   LIG    1       -1.891  -1.123  -6.104  0.00  0.00    +0.162 A 
ATOM     19  C   LIG    1       -1.392  -0.284  -5.111  0.00  0.00    +0.052 A 
ATOM     20  C   LIG    1       -0.183  -0.625  -4.498  0.00  0.00    +0.047 A 
ATOM     21  C   LIG    1        0.491  -1.795  -4.900  0.00  0.00    +0.126 A 
ATOM     22  N   LIG    1        0.016  -2.592  -5.897  0.00  0.00    -0.213 NA
ATOM     23  C   LIG    1       -1.159  -2.246  -6.479  0.00  0.00    +0.169 A 
ENDBRANCH   8  21
ENDBRANCH   1   8
BRANCH   6  24
ATOM     24  N   LIG    1        1.511  -0.349   0.063  0.00  0.00    -0.283 N 
ATOM     25  H   LIG    1        2.064  -0.123   0.877  0.00  0.00    +0.155 HD
BRANCH  24  26
ATOM     26  C   LIG    1        0.165   0.051   0.145  0.00  0.00    +0.041 A 
ATOM     27  C   LIG    1       -0.144   1.162   0.929  0.00  0.00    +0.073 A 
ATOM     28  C   LIG    1       -1.466   1.623   1.044  0.00  0.00    +0.167 A 
ATOM     29  C   LIG    1       -2.481   0.948   0.353  0.00  0.00    +0.204 A 
ATOM     30  C   LIG    1       -2.198  -0.187  -0.418  0.00  0.00    +0.167 A 
ATOM     31  C   LIG    1       -0.870  -0.631  -0.506  0.00  0.00    +0.073 A 
BRANCH  28  32
ATOM     32  O   LIG    1       -1.839   2.719   1.801  0.00  0.00    -0.491 OA
ATOM     33  C   LIG    1       -0.847   3.443   2.521  0.00  0.00    +0.277 C 
ENDBRANCH  28  32
BRANCH  29  34
ATOM     34  O   LIG    1       -3.779   1.388   0.458  0.00  0.00    -0.488 OA
ATOM     35  C   LIG    1       -4.152   2.326  -0.543  0.00  0.00    +0.277 C 
ENDBRANCH  29  34
BRANCH  30  36
ATOM     36  O   LIG    1       -3.262  -0.803  -1.054  0.00  0.00    -0.491 OA
ATOM     37  C   LIG    1       -3.025  -1.947  -1.869  0.00  0.00    +0.277 C 
ENDBRANCH  30  36
ENDBRANCH  24  26
ENDBRANCH   6  24
TORSDOF 7
