REMARK  Name = DB07232
REMARK                            x       y       z     vdW  Elec       q    Type
REMARK                         _______ _______ _______ _____ _____    ______ ____
ROOT
ATOM      1  C   LIG    1       -2.120  -0.560  -0.106  0.00  0.00    +0.101 A 
ATOM      2  N   LIG    1       -0.862  -1.044  -0.378  0.00  0.00    -0.233 NA
ATOM      3  C   LIG    1       -0.025  -0.104  -0.006  0.00  0.00    +0.097 A 
ATOM      4  N   LIG    1       -0.677   0.990   0.517  0.00  0.00    -0.343 N 
ATOM      5  H   LIG    1       -0.200   1.811   0.860  0.00  0.00    +0.167 HD
ATOM      6  C   LIG    1       -2.027   0.736   0.467  0.00  0.00    +0.067 A 
ATOM      7  C   LIG    1       -3.148   1.473   0.849  0.00  0.00    +0.028 A 
ATOM      8  C   LIG    1       -4.386   0.869   0.637  0.00  0.00    +0.003 A 
ATOM      9  C   LIG    1       -4.502  -0.402   0.077  0.00  0.00    +0.015 A 
ATOM     10  C   LIG    1       -3.385  -1.167  -0.312  0.00  0.00    +0.064 A 
ENDROOT
BRANCH   3  11
ATOM     11  C   LIG    1        1.505  -0.218  -0.118  0.00  0.00    -0.012 C 
ATOM     12  C   LIG    1        1.926   0.021  -1.581  0.00  0.00    -0.002 C 
ATOM     13  N   LIG    1        1.956  -1.580   0.440  0.00  0.00    +0.387 N 
ATOM     14  H   LIG    1        2.889  -1.777   0.108  0.00  0.00    -0.085 HD
ATOM     15  H   LIG    1        1.360  -2.334   0.127  0.00  0.00    -0.085 HD
ATOM     16  C   LIG    1        1.986  -1.444   1.970  0.00  0.00    -0.081 C 
ATOM     17  C   LIG    1        2.212   0.050   2.224  0.00  0.00    -0.020 C 
ATOM     18  C   LIG    1        2.265   0.719   0.848  0.00  0.00    -0.007 C 
ENDBRANCH   3  11
BRANCH  10  19
ATOM     19  C   LIG    1       -3.575  -2.542  -0.920  0.00  0.00    +0.244 C 
ATOM     20  N   LIG    1       -4.746  -3.155  -0.713  0.00  0.00    -0.325 N 
ATOM     21  H   LIG    1       -4.907  -4.077  -1.093  0.00  0.00    +0.145 HD
ATOM     22  H   LIG    1       -5.473  -2.705  -0.177  0.00  0.00    +0.145 HD
ATOM     23  O   LIG    1       -2.677  -3.087  -1.560  0.00  0.00    -0.270 OA
ENDBRANCH  10  19
TORSDOF 2
