REMARK  Name = DB07063
REMARK                            x       y       z     vdW  Elec       q    Type
REMARK                         _______ _______ _______ _____ _____    ______ ____
ROOT
ATOM      1  N   LIG    1        0.130  -0.027   0.266  0.00  0.00    -0.336 N 
ATOM      2  C   LIG    1       -0.786  -0.986  -0.137  0.00  0.00    +0.050 A 
ATOM      3  C   LIG    1       -0.640  -2.364  -0.356  0.00  0.00    +0.026 A 
ATOM      4  C   LIG    1       -1.773  -3.070  -0.760  0.00  0.00    +0.002 A 
ATOM      5  C   LIG    1       -3.002  -2.444  -0.940  0.00  0.00    +0.001 A 
ATOM      6  C   LIG    1       -3.151  -1.077  -0.721  0.00  0.00    +0.010 A 
ATOM      7  C   LIG    1       -2.039  -0.320  -0.316  0.00  0.00    +0.003 A 
ATOM      8  C   LIG    1       -1.844   1.074  -0.015  0.00  0.00    -0.016 A 
ATOM      9  C   LIG    1       -0.514   1.186   0.340  0.00  0.00    +0.091 A 
ENDROOT
BRANCH   1  10
ATOM     10  C   LIG    1        1.552  -0.243   0.571  0.00  0.00    +0.242 C 
BRANCH  10  11
ATOM     11  C   LIG    1        2.461  -0.528  -0.651  0.00  0.00    +0.325 C 
ATOM     12  O   LIG    1        3.644  -0.838  -0.386  0.00  0.00    -0.249 OA
BRANCH  11  13
ATOM     13  O   LIG    1        2.010  -0.428  -1.817  0.00  0.00    -0.479 OA
ATOM     14  H   LIG    1        2.566  -0.602  -2.551  0.00  0.00    +0.295 HD
ENDBRANCH  11  13
ENDBRANCH  10  11
ENDBRANCH   1  10
BRANCH   8  15
ATOM     15  C   LIG    1       -2.884   2.176  -0.067  0.00  0.00    +0.100 C 
BRANCH  15  16
ATOM     16  C   LIG    1       -3.436   2.355  -1.469  0.00  0.00    +0.084 A 
ATOM     17  N   LIG    1       -4.674   2.067  -1.767  0.00  0.00    -0.241 NA
ATOM     18  C   LIG    1       -4.952   2.272  -3.083  0.00  0.00    +0.119 A 
ATOM     19  C   LIG    1       -6.195   2.037  -3.695  0.00  0.00    +0.185 A 
ATOM     20  F   LIG    1       -7.249   1.566  -2.986  0.00  0.00    -0.200 F 
ATOM     21  C   LIG    1       -6.325   2.297  -5.061  0.00  0.00    +0.163 A 
ATOM     22  F   LIG    1       -7.510   2.076  -5.674  0.00  0.00    -0.202 F 
ATOM     23  C   LIG    1       -5.252   2.783  -5.808  0.00  0.00    +0.081 A 
ATOM     24  C   LIG    1       -4.010   3.023  -5.223  0.00  0.00    +0.142 A 
ATOM     25  F   LIG    1       -2.980   3.493  -5.963  0.00  0.00    -0.204 F 
ATOM     26  C   LIG    1       -3.866   2.762  -3.853  0.00  0.00    +0.077 A 
ATOM     27  S   LIG    1       -2.464   2.939  -2.807  0.00  0.00    -0.069 S 
ENDBRANCH  15  16
ENDBRANCH   8  15
TORSDOF 5
