REMARK  Name = DB07615
REMARK                            x       y       z     vdW  Elec       q    Type
REMARK                         _______ _______ _______ _____ _____    ______ ____
ROOT
ATOM      1  N   LIG    1       -2.774   2.516   0.077  0.00  0.00    -0.281 N 
ATOM      2  H   LIG    1       -2.213   3.182  -0.432  0.00  0.00    +0.155 HD
ATOM      3  C   LIG    1       -2.208   1.307   0.283  0.00  0.00    +0.241 C 
ATOM      4  O   LIG    1       -2.841   0.286   0.571  0.00  0.00    -0.270 OA
ENDROOT
BRANCH   1  10
ATOM      5  C   LIG    1       -5.028   2.521   1.228  0.00  0.00    +0.080 A 
ATOM      6  C   LIG    1       -6.403   2.768   1.030  0.00  0.00    +0.017 A 
ATOM      7  C   LIG    1       -6.886   3.334  -0.147  0.00  0.00    +0.001 A 
ATOM      8  C   LIG    1       -6.007   3.676  -1.165  0.00  0.00    +0.002 A 
ATOM      9  C   LIG    1       -4.648   3.419  -1.020  0.00  0.00    +0.024 A 
ATOM     10  C   LIG    1       -4.151   2.808   0.137  0.00  0.00    +0.048 A 
BRANCH   5  11
ATOM     11  C   LIG    1       -4.569   2.052   2.596  0.00  0.00    +0.339 C 
ATOM     12  O   LIG    1       -5.345   1.337   3.275  0.00  0.00    -0.245 OA
BRANCH  11  13
ATOM     13  O   LIG    1       -3.453   2.434   3.021  0.00  0.00    -0.477 OA
ATOM     14  H   LIG    1       -2.904   2.968   2.482  0.00  0.00    +0.295 HD
ENDBRANCH  11  13
ENDBRANCH   5  11
ENDBRANCH   1  10
BRANCH   3  15
ATOM     15  C   LIG    1       -0.769   1.335   0.146  0.00  0.00    +0.068 C 
ATOM     16  C   LIG    1        0.001   0.236   0.313  0.00  0.00    +0.013 C 
BRANCH  16  17
ATOM     17  C   LIG    1        1.474   0.163   0.195  0.00  0.00    -0.021 A 
ATOM     18  C   LIG    1        2.095  -1.079   0.338  0.00  0.00    +0.012 A 
ATOM     19  C   LIG    1        3.478  -1.202   0.232  0.00  0.00    +0.050 A 
ATOM     20  C   LIG    1        4.280  -0.078  -0.021  0.00  0.00    +0.162 A 
ATOM     21  C   LIG    1        3.673   1.178  -0.166  0.00  0.00    +0.162 A 
ATOM     22  C   LIG    1        2.275   1.286  -0.056  0.00  0.00    +0.057 A 
BRANCH  20  23
ATOM     23  O   LIG    1        5.658  -0.130  -0.137  0.00  0.00    -0.491 OA
ATOM     24  C   LIG    1        6.327  -1.379   0.000  0.00  0.00    +0.277 C 
ENDBRANCH  20  23
BRANCH  21  25
ATOM     25  O   LIG    1        4.508   2.254  -0.413  0.00  0.00    -0.491 OA
ATOM     26  C   LIG    1        3.953   3.555  -0.567  0.00  0.00    +0.277 C 
ENDBRANCH  21  25
ENDBRANCH  16  17
ENDBRANCH   3  15
TORSDOF 7
