REMARK  Name = DB07238
REMARK                            x       y       z     vdW  Elec       q    Type
REMARK                         _______ _______ _______ _____ _____    ______ ____
ROOT
ATOM      1  C   LIG    1       -0.856  -1.243  -0.187  0.00  0.00    -0.021 A 
ATOM      2  C   LIG    1       -2.255  -1.322  -0.235  0.00  0.00    +0.018 A 
ATOM      3  C   LIG    1       -3.032  -0.156  -0.113  0.00  0.00    +0.033 A 
ATOM      4  C   LIG    1       -4.443   0.168  -0.097  0.00  0.00    +0.090 A 
ATOM      5  C   LIG    1       -4.479   1.568   0.067  0.00  0.00    +0.148 A 
ATOM      6  O   LIG    1       -3.226   2.099   0.159  0.00  0.00    -0.454 OA
ATOM      7  C   LIG    1       -2.353   1.066   0.047  0.00  0.00    +0.138 A 
ATOM      8  C   LIG    1       -0.962   1.177   0.084  0.00  0.00    +0.072 A 
ATOM      9  C   LIG    1       -0.212   0.003  -0.030  0.00  0.00    +0.058 A 
ENDROOT
BRANCH   5  10
ATOM     10  C   LIG    1       -5.570   2.584   0.136  0.00  0.00    +0.018 A 
ATOM     11  C   LIG    1       -5.569   3.527   1.168  0.00  0.00    +0.014 A 
ATOM     12  C   LIG    1       -6.576   4.486   1.238  0.00  0.00    +0.039 A 
ATOM     13  C   LIG    1       -7.580   4.505   0.273  0.00  0.00    +0.123 A 
ATOM     14  C   LIG    1       -7.584   3.573  -0.763  0.00  0.00    +0.039 A 
ATOM     15  F   LIG    1       -8.558   5.437   0.341  0.00  0.00    -0.205 F 
ATOM     16  C   LIG    1       -6.577   2.614  -0.833  0.00  0.00    +0.014 A 
ENDBRANCH   5  10
BRANCH   4  17
ATOM     17  C   LIG    1       -5.607  -0.691  -0.176  0.00  0.00    +0.248 C 
ATOM     18  N   LIG    1       -5.337  -1.957  -0.536  0.00  0.00    -0.314 N 
ATOM     19  H   LIG    1       -4.381  -2.204  -0.741  0.00  0.00    +0.149 HD
ATOM     20  C   LIG    1       -6.324  -3.023  -0.678  0.00  0.00    +0.128 C 
ATOM     21  O   LIG    1       -6.741  -0.281   0.079  0.00  0.00    -0.270 OA
ENDBRANCH   4  17
BRANCH   1  23
ATOM     22  C   LIG    1        0.666  -3.184   0.816  0.00  0.00    +0.009 C 
ATOM     23  C   LIG    1       -0.061  -2.538  -0.342  0.00  0.00    +0.021 C 
ATOM     24  C   LIG    1       -0.530  -3.871   0.206  0.00  0.00    +0.009 C 
ENDBRANCH   1  23
BRANCH   9  25
ATOM     25  N   LIG    1        1.189   0.135  -0.013  0.00  0.00    -0.205 N 
BRANCH  25  26
ATOM     26  S   LIG    1        2.170  -0.220  -1.460  0.00  0.00    +0.043 S 
ATOM     27  O   LIG    1        2.970  -1.414  -1.165  0.00  0.00    -0.155 OA
ATOM     28  C   LIG    1        3.319   1.273  -1.548  0.00  0.00    +0.218 C 
ATOM     29  O   LIG    1        1.274  -0.183  -2.622  0.00  0.00    -0.155 OA
ENDBRANCH  25  26
BRANCH  25  30
ATOM     30  C   LIG    1        1.851   0.081   1.293  0.00  0.00    +0.159 C 
BRANCH  30  31
ATOM     31  C   LIG    1        1.864   1.384   2.117  0.00  0.00    +0.176 C 
BRANCH  31  32
ATOM     32  O   LIG    1        2.376   2.521   1.454  0.00  0.00    -0.393 OA
ATOM     33  H   LIG    1        2.166   3.300   1.975  0.00  0.00    +0.209 HD
ENDBRANCH  31  32
ENDBRANCH  30  31
ENDBRANCH  25  30
ENDBRANCH   9  25
TORSDOF 8
