REMARK  Name = DB07885
REMARK                            x       y       z     vdW  Elec       q    Type
REMARK                         _______ _______ _______ _____ _____    ______ ____
ROOT
ATOM      1  C   LIG    1        1.738  -1.283   0.706  0.00  0.00    +0.146 C 
ATOM      2  N   LIG    1        1.116   0.074   0.522  0.00  0.00    -0.225 N 
ATOM      3  C   LIG    1       -0.284   0.189   0.718  0.00  0.00    +0.408 C 
ATOM      4  O   LIG    1       -0.892   1.245   0.918  0.00  0.00    -0.226 OA
ATOM      5  C   LIG    1        1.969   1.194   0.278  0.00  0.00    +0.065 A 
ATOM      6  C   LIG    1        1.542   2.364  -0.375  0.00  0.00    +0.071 A 
ATOM      7  C   LIG    1        2.407   3.440  -0.590  0.00  0.00    +0.122 A 
ATOM      8  C   LIG    1        3.737   3.337  -0.152  0.00  0.00    +0.047 A 
ATOM      9  C   LIG    1        4.187   2.180   0.479  0.00  0.00    +0.029 A 
ATOM     10  C   LIG    1        3.313   1.113   0.684  0.00  0.00    +0.054 A 
ATOM     11  N   LIG    1        3.784  -0.046   1.298  0.00  0.00    -0.309 N 
ATOM     12  H   LIG    1        4.700  -0.068   1.723  0.00  0.00    +0.152 HD
ATOM     13  C   LIG    1        3.118  -1.224   1.395  0.00  0.00    +0.075 C 
ATOM     14  S   LIG    1        3.860  -2.436   2.257  0.00  0.00    -0.038 S 
ENDROOT
BRANCH   7  15
ATOM     15  O   LIG    1        1.880   4.543  -1.234  0.00  0.00    -0.495 OA
ATOM     16  C   LIG    1        2.713   5.675  -1.466  0.00  0.00    +0.277 C 
ENDBRANCH   7  15
BRANCH   3  17
ATOM     17  O   LIG    1       -0.921  -1.018   0.640  0.00  0.00    -0.447 OA
BRANCH  17  18
ATOM     18  C   LIG    1       -2.339  -1.150   0.737  0.00  0.00    +0.172 C 
ATOM     19  C   LIG    1       -3.019  -0.756  -0.588  0.00  0.00    +0.052 C 
ATOM     20  C   LIG    1       -2.637  -2.607   1.121  0.00  0.00    +0.052 C 
ENDBRANCH  17  18
ENDBRANCH   3  17
BRANCH   1  21
ATOM     21  C   LIG    1        1.768  -2.091  -0.623  0.00  0.00    +0.098 C 
BRANCH  21  22
ATOM     22  S   LIG    1        1.836  -3.904  -0.499  0.00  0.00    -0.162 S 
ATOM     23  C   LIG    1        1.827  -4.336  -2.258  0.00  0.00    +0.084 C 
ENDBRANCH  21  22
ENDBRANCH   1  21
TORSDOF 5
