REMARK  Name = DB07941
REMARK                            x       y       z     vdW  Elec       q    Type
REMARK                         _______ _______ _______ _____ _____    ______ ____
ROOT
ATOM      1  C   LIG    1       -2.757   0.054   0.026  0.00  0.00    +0.142 A 
ATOM      2  C   LIG    1       -2.001   1.231  -0.397  0.00  0.00    +0.068 A 
ATOM      3  C   LIG    1       -0.651   1.188  -0.390  0.00  0.00    +0.028 A 
ATOM      4  C   LIG    1        0.158   2.411  -0.829  0.00  0.00    +0.064 C 
ATOM      5  N   LIG    1        0.042   0.041   0.011  0.00  0.00    -0.280 N 
ATOM      6  C   LIG    1       -0.602  -1.111   0.427  0.00  0.00    +0.274 A 
ATOM      7  O   LIG    1       -0.019  -2.137   0.791  0.00  0.00    -0.266 OA
ATOM      8  C   LIG    1       -2.065  -1.046   0.412  0.00  0.00    +0.124 A 
ATOM      9 BR   LIG    1       -3.046  -2.668   0.999  0.00  0.00    -0.041 Br
ENDROOT
BRANCH   5  10
ATOM     10  C   LIG    1        1.458   0.039   0.009  0.00  0.00    +0.053 A 
ATOM     11  C   LIG    1        2.191  -0.393  -1.112  0.00  0.00    -0.026 A 
ATOM     12  C   LIG    1        1.503  -0.883  -2.380  0.00  0.00    +0.046 C 
ATOM     13  C   LIG    1        3.586  -0.370  -1.061  0.00  0.00    +0.006 A 
ATOM     14  C   LIG    1        4.248   0.073   0.083  0.00  0.00    +0.013 A 
ATOM     15  C   LIG    1        3.533   0.507   1.208  0.00  0.00    +0.039 A 
ATOM     16  C   LIG    1        2.130   0.481   1.156  0.00  0.00    +0.039 A 
BRANCH  15  17
ATOM     17  C   LIG    1        4.277   0.978   2.440  0.00  0.00    +0.244 C 
ATOM     18  N   LIG    1        3.567   1.699   3.329  0.00  0.00    -0.314 N 
ATOM     19  H   LIG    1        2.594   1.882   3.132  0.00  0.00    +0.149 HD
ATOM     20  C   LIG    1        4.088   2.253   4.574  0.00  0.00    +0.128 C 
ATOM     21  O   LIG    1        5.475   0.723   2.586  0.00  0.00    -0.270 OA
ENDBRANCH  15  17
ENDBRANCH   5  10
BRANCH   1  22
ATOM     22  O   LIG    1       -4.117  -0.007   0.063  0.00  0.00    -0.486 OA
BRANCH  22  23
ATOM     23  C   LIG    1       -4.873   1.143  -0.305  0.00  0.00    +0.267 C 
BRANCH  23  24
ATOM     24  C   LIG    1       -6.347   0.848  -0.080  0.00  0.00    +0.025 A 
ATOM     25  C   LIG    1       -7.161   0.475  -1.155  0.00  0.00    +0.012 A 
ATOM     26  C   LIG    1       -8.512   0.197  -0.950  0.00  0.00    +0.039 A 
ATOM     27  C   LIG    1       -9.058   0.287   0.330  0.00  0.00    +0.126 A 
ATOM     28  F   LIG    1      -10.368   0.016   0.528  0.00  0.00    -0.205 F 
ATOM     29  C   LIG    1       -8.251   0.655   1.407  0.00  0.00    +0.077 A 
ATOM     30  C   LIG    1       -6.899   0.933   1.205  0.00  0.00    +0.132 A 
ATOM     31  F   LIG    1       -6.127   1.284   2.260  0.00  0.00    -0.205 F 
ENDBRANCH  23  24
ENDBRANCH  22  23
ENDBRANCH   1  22
TORSDOF 5
