REMARK  Name = DB07715
REMARK                            x       y       z     vdW  Elec       q    Type
REMARK                         _______ _______ _______ _____ _____    ______ ____
ROOT
ATOM      1  C   LIG    1       -0.015  -0.043   0.000  0.00  0.00    +0.044 C 
ATOM      2  C   LIG    1        1.502   0.001   0.000  0.00  0.00    -0.046 A 
ATOM      3  C   LIG    1        2.175   1.216   0.000  0.00  0.00    +0.049 A 
ATOM      4  C   LIG    1        3.568   1.257   0.000  0.00  0.00    +0.129 A 
ATOM      5  C   LIG    1        4.333   0.061   0.000  0.00  0.00    +0.075 A 
ATOM      6  C   LIG    1        5.850   0.084   0.000  0.00  0.00    +0.202 C 
ATOM      7  O   LIG    1        6.469   1.150   0.000  0.00  0.00    -0.286 OA
ATOM      8  C   LIG    1        6.582  -1.244   0.000  0.00  0.00    +0.075 A 
ATOM      9  C   LIG    1        8.000  -1.316   0.000  0.00  0.00    +0.132 A 
ATOM     10  C   LIG    1        8.655  -2.546   0.000  0.00  0.00    +0.091 A 
ATOM     11  C   LIG    1        7.931  -3.729   0.000  0.00  0.00    +0.121 A 
ATOM     12  C   LIG    1        6.543  -3.684   0.000  0.00  0.00    +0.058 A 
ATOM     13  C   LIG    1        5.852  -2.461   0.000  0.00  0.00    +0.040 A 
ATOM     14  C   LIG    1        4.352  -2.494   0.000  0.00  0.00    +0.195 C 
ATOM     15  O   LIG    1        3.732  -3.563   0.000  0.00  0.00    -0.287 OA
ATOM     16  C   LIG    1        3.638  -1.175   0.000  0.00  0.00    +0.037 A 
ATOM     17  C   LIG    1        2.233  -1.181   0.000  0.00  0.00    +0.016 A 
ENDROOT
BRANCH   4  18
ATOM     18  O   LIG    1        4.128   2.511   0.000  0.00  0.00    -0.506 OA
ATOM     19  H   LIG    1        3.474   3.213   0.000  0.00  0.00    +0.292 HD
ENDBRANCH   4  18
BRANCH   9  20
ATOM     20  O   LIG    1        8.811  -0.207   0.000  0.00  0.00    -0.506 OA
ATOM     21  H   LIG    1        9.745  -0.426   0.000  0.00  0.00    +0.292 HD
ENDBRANCH   9  20
BRANCH  11  22
ATOM     22  O   LIG    1        8.581  -4.934   0.000  0.00  0.00    -0.507 OA
ATOM     23  H   LIG    1        9.536  -4.844   0.000  0.00  0.00    +0.292 HD
ENDBRANCH  11  22
TORSDOF 3
