REMARK  Name = DB07215
REMARK                            x       y       z     vdW  Elec       q    Type
REMARK                         _______ _______ _______ _____ _____    ______ ____
ROOT
ATOM      1  C   LIG    1       -0.659   2.318  -0.530  0.00  0.00    +0.253 C 
ATOM      2  N   LIG    1       -0.570   1.584   0.598  0.00  0.00    -0.307 N 
ATOM      3  H   LIG    1       -0.738   2.042   1.481  0.00  0.00    +0.149 HD
ATOM      4  O   LIG    1       -0.384   1.873  -1.645  0.00  0.00    -0.270 OA
ENDROOT
BRANCH   1  10
ATOM      5  S   LIG    1       -1.253   4.442   1.217  0.00  0.00    -0.062 S 
ATOM      6  C   LIG    1       -1.776   5.912   0.448  0.00  0.00    +0.109 A 
ATOM      7  N   LIG    1       -1.833   5.821  -0.860  0.00  0.00    -0.243 NA
ATOM      8  C   LIG    1       -1.489   4.633  -1.327  0.00  0.00    +0.058 A 
ATOM      9  C   LIG    1       -1.558   4.505  -2.838  0.00  0.00    +0.067 C 
ATOM     10  C   LIG    1       -1.120   3.683  -0.357  0.00  0.00    +0.097 A 
BRANCH   6  11
ATOM     11  C   LIG    1       -2.120   7.159   1.220  0.00  0.00    +0.007 A 
ATOM     12  C   LIG    1       -2.143   7.176   2.622  0.00  0.00    +0.011 A 
ATOM     13  C   LIG    1       -2.466   8.341   3.312  0.00  0.00    +0.013 A 
ATOM     14  C   LIG    1       -2.770   9.513   2.616  0.00  0.00    +0.055 A 
ATOM     15  C   LIG    1       -2.750   9.505   1.218  0.00  0.00    +0.013 A 
ATOM     16  C   LIG    1       -2.428   8.339   0.530  0.00  0.00    +0.011 A 
BRANCH  14  17
ATOM     17  C   LIG    1       -3.128  10.780   3.393  0.00  0.00    +0.417 C 
ATOM     18  F   LIG    1       -2.034  11.252   3.991  0.00  0.00    -0.166 F 
ATOM     19  F   LIG    1       -4.040  10.504   4.327  0.00  0.00    -0.166 F 
ATOM     20  F   LIG    1       -3.622  11.737   2.605  0.00  0.00    -0.166 F 
ENDBRANCH  14  17
ENDBRANCH   6  11
ENDBRANCH   1  10
BRANCH   2  21
ATOM     21  C   LIG    1       -0.123   0.193   0.669  0.00  0.00    +0.139 C 
BRANCH  21  22
ATOM     22  C   LIG    1        1.376   0.012   0.463  0.00  0.00    -0.030 A 
ATOM     23  C   LIG    1        2.259   0.256   1.516  0.00  0.00    +0.009 A 
ATOM     24  C   LIG    1        3.625   0.050   1.345  0.00  0.00    +0.046 A 
ATOM     25  C   LIG    1        4.127  -0.415   0.120  0.00  0.00    +0.122 A 
ATOM     26  C   LIG    1        3.232  -0.658  -0.924  0.00  0.00    +0.046 A 
ATOM     27  C   LIG    1        1.865  -0.458  -0.756  0.00  0.00    +0.009 A 
BRANCH  25  28
ATOM     28  O   LIG    1        5.457  -0.654  -0.186  0.00  0.00    -0.475 OA
BRANCH  28  29
ATOM     29  C   LIG    1        6.554  -0.702   0.758  0.00  0.00    +0.200 C 
ATOM     30  C   LIG    1        6.280  -1.700   1.925  0.00  0.00    +0.067 C 
ATOM     31  C   LIG    1        6.877   0.735   1.267  0.00  0.00    +0.067 C 
BRANCH  29  32
ATOM     32  C   LIG    1        7.809  -1.228  -0.037  0.00  0.00    +0.348 C 
ATOM     33  O   LIG    1        8.915  -1.271   0.556  0.00  0.00    -0.247 OA
BRANCH  32  34
ATOM     34  O   LIG    1        7.678  -1.602  -1.228  0.00  0.00    -0.478 OA
ATOM     35  H   LIG    1        8.421  -1.915  -1.705  0.00  0.00    +0.295 HD
ENDBRANCH  32  34
ENDBRANCH  29  32
ENDBRANCH  28  29
ENDBRANCH  25  28
ENDBRANCH  21  22
ENDBRANCH   2  21
TORSDOF 9
