REMARK  Name = DB07118
REMARK                            x       y       z     vdW  Elec       q    Type
REMARK                         _______ _______ _______ _____ _____    ______ ____
ROOT
ATOM      1  C   LIG    1       -2.054   1.226   0.000  0.00  0.00    +0.015 A 
ATOM      2  C   LIG    1       -2.789   0.029   0.000  0.00  0.00    +0.021 A 
ATOM      3  C   LIG    1       -2.083  -1.189   0.000  0.00  0.00    +0.143 A 
ATOM      4  C   LIG    1       -0.688  -1.213   0.000  0.00  0.00    +0.092 A 
ATOM      5  C   LIG    1        0.024  -0.015   0.000  0.00  0.00    +0.120 A 
ATOM      6  O   LIG    1       -2.725  -2.420   0.000  0.00  0.00    -0.422 OA
ATOM      7  C   LIG    1       -4.104  -2.530   0.000  0.00  0.00    +0.337 A 
ATOM      8  O   LIG    1       -4.559  -3.671   0.000  0.00  0.00    -0.245 OA
ATOM      9  C   LIG    1       -4.866  -1.276   0.000  0.00  0.00    +0.096 A 
ATOM     10  C   LIG    1       -4.273  -0.063   0.000  0.00  0.00    -0.033 A 
ATOM     11  C   LIG    1       -5.137   1.195   0.000  0.00  0.00    +0.045 C 
ATOM     12  C   LIG    1       -0.659   1.201   0.000  0.00  0.00    +0.046 A 
ENDROOT
BRANCH   5  13
ATOM     13  O   LIG    1        1.393  -0.032   0.000  0.00  0.00    -0.507 OA
ATOM     14  H   LIG    1        1.777   0.848   0.000  0.00  0.00    +0.292 HD
ENDBRANCH   5  13
TORSDOF 1
