REMARK  Name = DB08819
REMARK                            x       y       z     vdW  Elec       q    Type
REMARK                         _______ _______ _______ _____ _____    ______ ____
ROOT
ATOM      1  C   LIG    1       -2.344  -1.080  -0.597  0.00  0.00    +0.063 C 
ATOM      2  C   LIG    1       -1.262  -0.527  -1.532  0.00  0.00    +0.121 C 
ATOM      3  C   LIG    1       -0.427   0.360  -0.586  0.00  0.00    +0.031 C 
ATOM      4  C   LIG    1       -0.379  -0.435   0.741  0.00  0.00    +0.046 C 
ATOM      5  C   LIG    1       -1.693  -1.263   0.787  0.00  0.00    +0.124 C 
ENDROOT
BRANCH   2   6
ATOM      6  O   LIG    1       -0.510  -1.601  -2.071  0.00  0.00    -0.391 OA
ATOM      7  H   LIG    1       -0.036  -2.031  -1.355  0.00  0.00    +0.210 HD
ENDBRANCH   2   6
BRANCH   4   8
ATOM      8  C   LIG    1       -0.211   0.451   1.967  0.00  0.00    -0.019 C 
ATOM      9  C   LIG    1        0.750   0.293   2.898  0.00  0.00    +0.047 C 
BRANCH   9  10
ATOM     10  C   LIG    1        0.980   1.146   4.141  0.00  0.00    +0.300 C 
ATOM     11  F   LIG    1        2.205   1.662   4.043  0.00  0.00    -0.197 F 
ATOM     12  F   LIG    1        0.995   0.324   5.191  0.00  0.00    -0.197 F 
BRANCH  10  13
ATOM     13  C   LIG    1       -0.036   2.283   4.383  0.00  0.00    +0.308 C 
BRANCH  13  14
ATOM     14  O   LIG    1       -1.356   1.754   4.513  0.00  0.00    -0.486 OA
BRANCH  14  15
ATOM     15  C   LIG    1       -2.429   2.620   4.602  0.00  0.00    +0.121 A 
ATOM     16  C   LIG    1       -2.313   4.017   4.689  0.00  0.00    +0.045 A 
ATOM     17  C   LIG    1       -3.454   4.811   4.773  0.00  0.00    +0.004 A 
ATOM     18  C   LIG    1       -4.713   4.214   4.770  0.00  0.00    +0.000 A 
ATOM     19  C   LIG    1       -4.839   2.830   4.687  0.00  0.00    +0.004 A 
ATOM     20  C   LIG    1       -3.698   2.037   4.606  0.00  0.00    +0.045 A 
ENDBRANCH  14  15
ENDBRANCH  13  14
ENDBRANCH  10  13
ENDBRANCH   9  10
ENDBRANCH   4   8
BRANCH   5  21
ATOM     21  O   LIG    1       -1.388  -2.621   1.047  0.00  0.00    -0.391 OA
ATOM     22  H   LIG    1       -0.483  -2.790   0.774  0.00  0.00    +0.210 HD
ENDBRANCH   5  21
BRANCH   3  23
ATOM     23  C   LIG    1        0.952   0.791  -1.147  0.00  0.00    +0.033 C 
BRANCH  23  24
ATOM     24  C   LIG    1        1.611   1.925  -0.375  0.00  0.00    -0.031 C 
ATOM     25  C   LIG    1        2.719   1.861   0.388  0.00  0.00    -0.031 C 
BRANCH  25  26
ATOM     26  C   LIG    1        3.563   0.631   0.682  0.00  0.00    +0.027 C 
BRANCH  26  27
ATOM     27  C   LIG    1        4.980   0.678   0.072  0.00  0.00    +0.015 C 
BRANCH  27  28
ATOM     28  C   LIG    1        5.029   0.766  -1.472  0.00  0.00    +0.121 C 
BRANCH  28  29
ATOM     29  C   LIG    1        4.483  -0.455  -2.224  0.00  0.00    +0.307 C 
ATOM     30  O   LIG    1        4.307  -1.546  -1.676  0.00  0.00    -0.251 OA
BRANCH  29  31
ATOM     31  O   LIG    1        4.223  -0.168  -3.521  0.00  0.00    -0.462 OA
BRANCH  31  32
ATOM     32  C   LIG    1        3.693  -1.142  -4.421  0.00  0.00    +0.170 C 
ATOM     33  C   LIG    1        2.188  -1.371  -4.177  0.00  0.00    +0.052 C 
ATOM     34  C   LIG    1        3.970  -0.656  -5.851  0.00  0.00    +0.052 C 
ENDBRANCH  31  32
ENDBRANCH  29  31
ENDBRANCH  28  29
ENDBRANCH  27  28
ENDBRANCH  26  27
ENDBRANCH  25  26
ENDBRANCH  23  24
ENDBRANCH   3  23
TORSDOF 15
