REMARK  Name = DB08912
REMARK                            x       y       z     vdW  Elec       q    Type
REMARK                         _______ _______ _______ _____ _____    ______ ____
ROOT
ATOM      1  C   LIG    1       -2.135   1.144  -0.232  0.00  0.00    +0.084 A 
ATOM      2  C   LIG    1       -0.740   1.136  -0.090  0.00  0.00    +0.155 A 
ATOM      3  F   LIG    1       -0.092   2.285   0.227  0.00  0.00    -0.203 F 
ATOM      4  C   LIG    1       -0.011  -0.052  -0.260  0.00  0.00    +0.039 A 
ATOM      5  C   LIG    1       -0.693  -1.232  -0.576  0.00  0.00    +0.013 A 
ATOM      6  C   LIG    1       -2.078  -1.232  -0.717  0.00  0.00    +0.003 A 
ATOM      7  C   LIG    1       -2.796  -0.051  -0.547  0.00  0.00    +0.027 A 
ENDROOT
BRANCH   4   8
ATOM      8  C   LIG    1        1.477  -0.090  -0.117  0.00  0.00    +0.090 A 
ATOM      9  C   LIG    1        2.225  -0.972   0.682  0.00  0.00    +0.065 A 
ATOM     10  S   LIG    1        3.916  -0.606   0.455  0.00  0.00    -0.069 S 
ATOM     11  C   LIG    1        3.494   0.669  -0.651  0.00  0.00    +0.085 A 
ATOM     12  N   LIG    1        2.196   0.772  -0.816  0.00  0.00    -0.243 NA
BRANCH   9  13
ATOM     13  C   LIG    1        1.816  -2.044   1.643  0.00  0.00    +0.085 A 
ATOM     14  N   LIG    1        0.632  -1.839   2.286  0.00  0.00    -0.214 NA
ATOM     15  C   LIG    1        0.226  -2.799   3.154  0.00  0.00    +0.213 A 
ATOM     16  N   LIG    1        0.899  -3.943   3.438  0.00  0.00    -0.223 NA
ATOM     17  C   LIG    1        2.077  -4.126   2.785  0.00  0.00    +0.116 A 
ATOM     18  C   LIG    1        2.580  -3.198   1.870  0.00  0.00    +0.049 A 
BRANCH  15  19
ATOM     19  N   LIG    1       -0.986  -2.595   3.805  0.00  0.00    -0.327 N 
ATOM     20  H   LIG    1       -1.325  -3.290   4.454  0.00  0.00    +0.145 HD
ATOM     21  H   LIG    1       -1.515  -1.756   3.613  0.00  0.00    +0.145 HD
ENDBRANCH  15  19
ENDBRANCH   9  13
BRANCH  11  22
ATOM     22  C   LIG    1        4.486   1.591  -1.385  0.00  0.00    +0.011 C 
ATOM     23  C   LIG    1        4.144   3.069  -1.080  0.00  0.00    +0.017 C 
ATOM     24  C   LIG    1        5.952   1.339  -0.954  0.00  0.00    +0.017 C 
ATOM     25  C   LIG    1        4.379   1.347  -2.909  0.00  0.00    +0.017 C 
ENDBRANCH  11  22
ENDBRANCH   4   8
BRANCH   1  26
ATOM     26  N   LIG    1       -2.822   2.355  -0.050  0.00  0.00    -0.213 N 
ATOM     27  H   LIG    1       -2.279   3.172   0.187  0.00  0.00    +0.174 HD
BRANCH  26  28
ATOM     28  S   LIG    1       -4.583   2.533  -0.183  0.00  0.00    +0.078 S 
ATOM     29  O   LIG    1       -4.932   2.246  -1.579  0.00  0.00    -0.150 OA
ATOM     30  O   LIG    1       -5.178   1.729   0.891  0.00  0.00    -0.150 OA
BRANCH  28  31
ATOM     31  C   LIG    1       -4.904   4.269   0.171  0.00  0.00    +0.178 A 
ATOM     32  C   LIG    1       -4.851   4.718   1.499  0.00  0.00    +0.153 A 
ATOM     33  F   LIG    1       -4.534   3.873   2.508  0.00  0.00    -0.203 F 
ATOM     34  C   LIG    1       -5.111   6.055   1.801  0.00  0.00    +0.040 A 
ATOM     35  C   LIG    1       -5.424   6.955   0.784  0.00  0.00    +0.006 A 
ATOM     36  C   LIG    1       -5.475   6.518  -0.538  0.00  0.00    +0.040 A 
ATOM     37  C   LIG    1       -5.216   5.182  -0.849  0.00  0.00    +0.153 A 
ATOM     38  F   LIG    1       -5.267   4.802  -2.146  0.00  0.00    -0.203 F 
ENDBRANCH  28  31
ENDBRANCH  26  28
ENDBRANCH   1  26
TORSDOF 7
