REMARK  Name = DB08884
REMARK                            x       y       z     vdW  Elec       q    Type
REMARK                         _______ _______ _______ _____ _____    ______ ____
ROOT
ATOM      1  C   LIG    1        0.991  -0.033  -0.027  0.00  0.00    +0.076 C 
ENDROOT
BRANCH   1   2
ATOM      2  C   LIG    1        1.933   0.170  -1.250  0.00  0.00    +0.055 C 
BRANCH   2   6
ATOM      3  C   LIG    1        0.598  -1.764  -4.886  0.00  0.00    +0.121 A 
ATOM      4  C   LIG    1        0.822  -0.378  -4.861  0.00  0.00    +0.046 A 
ATOM      5  C   LIG    1        1.255   0.241  -3.691  0.00  0.00    +0.007 A 
ATOM      6  C   LIG    1        1.460  -0.511  -2.532  0.00  0.00    -0.046 A 
ATOM      7  C   LIG    1        1.253  -1.893  -2.560  0.00  0.00    +0.007 A 
ATOM      8  C   LIG    1        0.821  -2.511  -3.730  0.00  0.00    +0.046 A 
BRANCH   3   9
ATOM      9  O   LIG    1        0.165  -2.462  -5.997  0.00  0.00    -0.492 OA
BRANCH   9  11
ATOM     10  C   LIG    1       -0.591  -2.753  -8.261  0.00  0.00    +0.048 C 
ATOM     11  C   LIG    1       -0.107  -1.756  -7.204  0.00  0.00    +0.225 C 
ENDBRANCH   9  11
ENDBRANCH   3   9
ENDBRANCH   2   6
ENDBRANCH   1   2
BRANCH   1  12
ATOM     12  N   LIG    1        1.615   0.295   1.271  0.00  0.00    -0.278 NA
BRANCH  12  13
ATOM     13  C   LIG    1        1.168  -0.497   2.434  0.00  0.00    +0.206 C 
BRANCH  13  14
ATOM     14  C   LIG    1        2.028  -1.757   2.637  0.00  0.00    +0.319 C 
ATOM     15  O   LIG    1        2.971  -2.091   1.918  0.00  0.00    -0.250 OA
BRANCH  14  16
ATOM     16  O   LIG    1        1.599  -2.459   3.724  0.00  0.00    -0.480 OA
ATOM     17  H   LIG    1        2.120  -3.250   3.874  0.00  0.00    +0.295 HD
ENDBRANCH  14  16
ENDBRANCH  13  14
ENDBRANCH  12  13
BRANCH  12  18
ATOM     18  C   LIG    1        2.623   1.377   1.346  0.00  0.00    +0.206 C 
BRANCH  18  19
ATOM     19  C   LIG    1        3.196   1.659   2.745  0.00  0.00    +0.319 C 
ATOM     20  O   LIG    1        2.557   2.191   3.649  0.00  0.00    -0.250 OA
BRANCH  19  21
ATOM     21  O   LIG    1        4.496   1.258   2.845  0.00  0.00    -0.480 OA
ATOM     22  H   LIG    1        4.861   1.444   3.712  0.00  0.00    +0.295 HD
ENDBRANCH  19  21
ENDBRANCH  18  19
ENDBRANCH  12  18
ENDBRANCH   1  12
BRANCH   1  23
ATOM     23  C   LIG    1       -0.449   0.548  -0.150  0.00  0.00    +0.104 C 
BRANCH  23  24
ATOM     24  N   LIG    1       -0.557   2.014   0.001  0.00  0.00    -0.290 NA
BRANCH  24  25
ATOM     25  C   LIG    1       -0.471   2.654  -1.331  0.00  0.00    +0.205 C 
BRANCH  25  26
ATOM     26  C   LIG    1        0.161   4.059  -1.310  0.00  0.00    +0.319 C 
ATOM     27  O   LIG    1       -0.574   5.022  -1.627  0.00  0.00    -0.250 OA
BRANCH  26  28
ATOM     28  O   LIG    1        1.384   4.148  -1.055  0.00  0.00    -0.480 OA
ATOM     29  H   LIG    1        1.871   3.382  -0.823  0.00  0.00    +0.295 HD
ENDBRANCH  26  28
ENDBRANCH  25  26
ENDBRANCH  24  25
BRANCH  24  30
ATOM     30  C   LIG    1       -1.843   2.334   0.654  0.00  0.00    +0.100 C 
BRANCH  30  31
ATOM     31  C   LIG    1       -1.946   3.687   1.413  0.00  0.00    +0.101 C 
BRANCH  31  32
ATOM     32  N   LIG    1       -1.037   3.925   2.554  0.00  0.00    -0.281 NA
BRANCH  32  33
ATOM     33  C   LIG    1        0.233   4.538   2.122  0.00  0.00    +0.206 C 
BRANCH  33  34
ATOM     34  C   LIG    1        1.011   5.319   3.216  0.00  0.00    +0.319 C 
ATOM     35  O   LIG    1        2.225   5.522   2.984  0.00  0.00    -0.250 OA
BRANCH  34  36
ATOM     36  O   LIG    1        0.416   5.753   4.232  0.00  0.00    -0.480 OA
ATOM     37  H   LIG    1       -0.495   5.571   4.355  0.00  0.00    +0.295 HD
ENDBRANCH  34  36
ENDBRANCH  33  34
ENDBRANCH  32  33
BRANCH  32  38
ATOM     38  C   LIG    1       -0.811   2.751   3.430  0.00  0.00    +0.206 C 
BRANCH  38  39
ATOM     39  C   LIG    1       -2.058   2.203   4.177  0.00  0.00    +0.319 C 
ATOM     40  O   LIG    1       -1.984   1.012   4.557  0.00  0.00    -0.250 OA
BRANCH  39  41
ATOM     41  O   LIG    1       -3.042   2.946   4.402  0.00  0.00    -0.480 OA
ATOM     42  H   LIG    1       -3.042   3.831   4.092  0.00  0.00    +0.295 HD
ENDBRANCH  39  41
ENDBRANCH  38  39
ENDBRANCH  32  38
ENDBRANCH  31  32
ENDBRANCH  30  31
ENDBRANCH  24  30
ENDBRANCH  23  24
ENDBRANCH   1  23
TORSDOF 25
