REMARK  Name = DB08874
REMARK                            x       y       z     vdW  Elec       q    Type
REMARK                         _______ _______ _______ _____ _____    ______ ____
ROOT
ATOM      1  C   LIG    1       -0.812   5.215  -0.043  0.00  0.00    +0.063 C 
ATOM      2  C   LIG    1       -1.217   3.789  -0.376  0.00  0.00    -0.024 C 
ATOM      3  C   LIG    1       -0.372   2.743  -0.359  0.00  0.00    -0.004 C 
ATOM      4  C   LIG    1       -0.797   1.373  -0.585  0.00  0.00    +0.012 C 
ATOM      5  C   LIG    1       -0.001   0.274  -0.523  0.00  0.00    +0.062 C 
ATOM      6  C   LIG    1       -0.582  -1.086  -0.576  0.00  0.00    +0.338 C 
ATOM      7  O   LIG    1        0.090  -2.091  -0.819  0.00  0.00    -0.245 OA
ATOM      8  O   LIG    1       -1.900  -1.129  -0.236  0.00  0.00    -0.455 OA
ATOM      9  C   LIG    1       -2.572  -2.340   0.128  0.00  0.00    +0.209 C 
ATOM     10  C   LIG    1       -2.301  -2.678   1.627  0.00  0.00    +0.074 C 
ATOM     11  C   LIG    1       -2.380  -1.483   2.575  0.00  0.00    -0.020 C 
ATOM     12  C   LIG    1       -1.362  -0.812   3.165  0.00  0.00    -0.054 C 
ATOM     13  C   LIG    1       -1.635   0.406   3.922  0.00  0.00    +0.004 C 
ATOM     14  C   LIG    1       -2.353   1.482   3.518  0.00  0.00    -0.043 C 
ATOM     15  C   LIG    1       -2.495   2.713   4.429  0.00  0.00    +0.154 C 
ATOM     16  C   LIG    1       -1.377   3.789   4.265  0.00  0.00    +0.045 C 
ATOM     17  C   LIG    1       -1.292   4.386   2.857  0.00  0.00    -0.019 C 
ATOM     18  C   LIG    1       -1.930   5.476   2.366  0.00  0.00    -0.048 C 
ATOM     19  C   LIG    1       -2.939   6.285   3.181  0.00  0.00    +0.041 C 
ATOM     20  C   LIG    1       -3.035   1.592   2.154  0.00  0.00    +0.042 C 
ATOM     21  C   LIG    1        0.101  -1.186   2.971  0.00  0.00    +0.043 C 
ATOM     22  C   LIG    1       -1.772   5.970   0.915  0.00  0.00    +0.144 C 
ENDROOT
BRANCH  16  23
ATOM     23  C   LIG    1        0.000   3.276   4.758  0.00  0.00    +0.007 C 
ATOM     24  C   LIG    1        1.072   4.371   4.885  0.00  0.00    +0.004 C 
ENDBRANCH  16  23
BRANCH   9  25
ATOM     25  C   LIG    1       -4.066  -2.192  -0.275  0.00  0.00    +0.152 C 
ATOM     26  C   LIG    1       -4.855  -3.511  -0.201  0.00  0.00    +0.041 C 
BRANCH  25  27
ATOM     27  O   LIG    1       -4.739  -1.220   0.502  0.00  0.00    -0.388 OA
ATOM     28  H   LIG    1       -4.241  -0.400   0.459  0.00  0.00    +0.210 HD
ENDBRANCH  25  27
ENDBRANCH   9  25
BRANCH  22  29
ATOM     29  O   LIG    1       -1.344   7.319   0.951  0.00  0.00    -0.387 OA
ATOM     30  H   LIG    1       -1.990   7.830   1.444  0.00  0.00    +0.210 HD
ENDBRANCH  22  29
BRANCH   5  31
ATOM     31  C   LIG    1        1.496   0.312  -0.194  0.00  0.00    +0.205 C 
BRANCH  31  32
ATOM     32  O   LIG    1        2.258   0.207  -1.397  0.00  0.00    -0.344 OA
BRANCH  32  33
ATOM     33  C   LIG    1        3.649   0.364  -1.322  0.00  0.00    +0.282 C 
ATOM     34  C   LIG    1        4.027   1.841  -1.542  0.00  0.00    +0.206 C 
ATOM     35  C   LIG    1        5.572   1.912  -1.627  0.00  0.00    +0.191 C 
ATOM     36  C   LIG    1        6.212   1.297  -0.358  0.00  0.00    +0.236 C 
ATOM     37  C   LIG    1        5.625  -0.116  -0.096  0.00  0.00    +0.162 C 
ATOM     38  C   LIG    1        6.072  -0.696   1.255  0.00  0.00    +0.042 C 
ATOM     39  O   LIG    1        4.192  -0.092  -0.104  0.00  0.00    -0.342 OA
BRANCH  34  40
ATOM     40  O   LIG    1        3.508   2.644  -0.478  0.00  0.00    -0.372 OA
ATOM     41  C   LIG    1        3.149   3.976  -0.821  0.00  0.00    +0.194 C 
ENDBRANCH  34  40
BRANCH  35  42
ATOM     42  O   LIG    1        6.037   3.217  -1.913  0.00  0.00    -0.385 OA
ATOM     43  H   LIG    1        6.539   3.191  -2.731  0.00  0.00    +0.210 HD
ENDBRANCH  35  42
BRANCH  36  44
ATOM     44  O   LIG    1        7.633   1.190  -0.489  0.00  0.00    -0.452 OA
BRANCH  44  45
ATOM     45  C   LIG    1        8.478   2.143  -0.021  0.00  0.00    +0.344 C 
ATOM     46  O   LIG    1        8.127   3.121   0.642  0.00  0.00    -0.245 OA
BRANCH  45  47
ATOM     47  C   LIG    1        9.914   1.768  -0.240  0.00  0.00    +0.106 A 
ATOM     48  C   LIG    1       10.759   1.636   0.882  0.00  0.00    +0.153 A 
ATOM     49  C   LIG    1       12.109   1.311   0.720  0.00  0.00    +0.126 A 
ATOM     50 CL   LIG    1       13.138   1.134   2.109  0.00  0.00    -0.076 Cl
ATOM     51  C   LIG    1       12.634   1.130  -0.560  0.00  0.00    +0.157 A 
ATOM     52  C   LIG    1       11.818   1.277  -1.686  0.00  0.00    +0.088 A 
ATOM     53 CL   LIG    1       12.538   1.090  -3.258  0.00  0.00    -0.079 Cl
ATOM     54  C   LIG    1       10.451   1.593  -1.543  0.00  0.00    -0.008 A 
BRANCH  48  55
ATOM     55  O   LIG    1       10.281   1.800   2.165  0.00  0.00    -0.504 OA
ATOM     56  H   LIG    1       10.965   1.705   2.832  0.00  0.00    +0.292 HD
ENDBRANCH  48  55
BRANCH  51  57
ATOM     57  O   LIG    1       13.964   0.816  -0.709  0.00  0.00    -0.504 OA
ATOM     58  H   LIG    1       14.424   0.740   0.130  0.00  0.00    +0.292 HD
ENDBRANCH  51  57
BRANCH  54  59
ATOM     59  C   LIG    1        9.599   1.803  -2.811  0.00  0.00    +0.034 C 
ATOM     60  C   LIG    1        9.548   3.274  -3.248  0.00  0.00    +0.009 C 
ENDBRANCH  54  59
ENDBRANCH  45  47
ENDBRANCH  44  45
ENDBRANCH  36  44
ENDBRANCH  32  33
ENDBRANCH  31  32
ENDBRANCH   5  31
BRANCH  15  61
ATOM     61  O   LIG    1       -3.756   3.364   4.251  0.00  0.00    -0.341 OA
BRANCH  61  62
ATOM     62  C   LIG    1       -4.900   2.704   4.712  0.00  0.00    +0.283 C 
ATOM     63  O   LIG    1       -5.912   2.804   3.739  0.00  0.00    -0.339 OA
ATOM     64  C   LIG    1       -7.164   2.155   4.033  0.00  0.00    +0.106 C 
ATOM     65  C   LIG    1       -8.086   2.608   2.883  0.00  0.00    +0.045 C 
ATOM     66  C   LIG    1       -6.982   0.614   4.058  0.00  0.00    +0.045 C 
ATOM     67  C   LIG    1       -7.726   2.716   5.378  0.00  0.00    +0.239 C 
ATOM     68  C   LIG    1       -6.662   2.709   6.502  0.00  0.00    +0.191 C 
ATOM     69  C   LIG    1       -5.354   3.376   6.017  0.00  0.00    +0.202 C 
BRANCH  68  70
ATOM     70  O   LIG    1       -7.131   3.310   7.698  0.00  0.00    -0.385 OA
ATOM     71  H   LIG    1       -7.327   4.233   7.521  0.00  0.00    +0.210 HD
ENDBRANCH  68  70
BRANCH  69  72
ATOM     72  O   LIG    1       -5.479   4.784   5.871  0.00  0.00    -0.384 OA
ATOM     73  H   LIG    1       -6.266   4.967   5.354  0.00  0.00    +0.210 HD
ENDBRANCH  69  72
BRANCH  67  74
ATOM     74  O   LIG    1       -8.911   2.003   5.753  0.00  0.00    -0.456 OA
BRANCH  74  75
ATOM     75  C   LIG    1      -10.017   2.633   6.224  0.00  0.00    +0.310 C 
ATOM     76  O   LIG    1      -10.138   3.846   6.401  0.00  0.00    -0.251 OA
BRANCH  75  77
ATOM     77  C   LIG    1      -11.173   1.669   6.534  0.00  0.00    +0.092 C 
ATOM     78  C   LIG    1      -11.669   0.945   5.266  0.00  0.00    +0.019 C 
ATOM     79  C   LIG    1      -10.809   0.687   7.666  0.00  0.00    +0.019 C 
ENDBRANCH  75  77
ENDBRANCH  74  75
ENDBRANCH  67  74
ENDBRANCH  61  62
ENDBRANCH  15  61
TORSDOF 22
