REMARK  Name = DB08865
REMARK                            x       y       z     vdW  Elec       q    Type
REMARK                         _______ _______ _______ _____ _____    ______ ____
ROOT
ATOM      1  C   LIG    1        1.475   0.099   0.079  0.00  0.00    +0.161 A 
ATOM      2  C   LIG    1        2.192  -1.101  -0.050  0.00  0.00    +0.158 A 
ATOM      3  N   LIG    1        3.546  -1.149  -0.120  0.00  0.00    -0.236 NA
ATOM      4  C   LIG    1        4.234   0.018  -0.063  0.00  0.00    +0.121 A 
ATOM      5  C   LIG    1        3.617   1.266   0.073  0.00  0.00    +0.007 A 
ATOM      6  C   LIG    1        2.220   1.289   0.154  0.00  0.00    +0.059 A 
ENDROOT
BRANCH   5   7
ATOM      7  C   LIG    1        4.409   2.530   0.124  0.00  0.00    +0.021 A 
ATOM      8  C   LIG    1        3.946   3.838   0.074  0.00  0.00    +0.117 A 
ATOM      9  N   LIG    1        5.044   4.656   0.152  0.00  0.00    -0.268 N 
ATOM     10  N   LIG    1        6.183   3.950   0.245  0.00  0.00    -0.179 NA
ATOM     11  C   LIG    1        5.801   2.694   0.229  0.00  0.00    +0.143 A 
BRANCH   9  12
ATOM     12  C   LIG    1        5.054   6.128   0.135  0.00  0.00    +0.110 C 
ATOM     13  C   LIG    1        5.703   6.659   1.435  0.00  0.00    +0.042 C 
ATOM     14  C   LIG    1        5.949   8.181   1.385  0.00  0.00    +0.083 C 
ATOM     15  N   LIG    1        6.724   8.565   0.205  0.00  0.00    -0.316 NA
ATOM     16  H   LIG    1        6.866   9.565   0.201  0.00  0.00    +0.122 HD
ATOM     17  C   LIG    1        6.096   8.149  -1.049  0.00  0.00    +0.083 C 
ATOM     18  C   LIG    1        5.856   6.626  -1.089  0.00  0.00    +0.042 C 
ENDBRANCH   9  12
ENDBRANCH   5   7
BRANCH   2  19
ATOM     19  N   LIG    1        1.527  -2.326  -0.121  0.00  0.00    -0.340 N 
ATOM     20  H   LIG    1        2.064  -3.175  -0.219  0.00  0.00    +0.144 HD
ATOM     21  H   LIG    1        0.519  -2.344  -0.080  0.00  0.00    +0.144 HD
ENDBRANCH   2  19
BRANCH   1  22
ATOM     22  O   LIG    1        0.090   0.048   0.137  0.00  0.00    -0.481 OA
BRANCH  22  23
ATOM     23  C   LIG    1       -0.697   1.228  -0.069  0.00  0.00    +0.204 C 
ATOM     24  C   LIG    1       -2.175   0.873   0.165  0.00  0.00    +0.057 C 
BRANCH  23  27
ATOM     25 CL   LIG    1       -0.255   4.316  -0.205  0.00  0.00    -0.083 Cl
ATOM     26  C   LIG    1       -0.246   3.256  -1.575  0.00  0.00    +0.049 A 
ATOM     27  C   LIG    1       -0.464   1.866  -1.458  0.00  0.00    +0.032 A 
ATOM     28  C   LIG    1       -0.466   1.083  -2.635  0.00  0.00    +0.084 A 
ATOM     29 CL   LIG    1       -0.761  -0.626  -2.604  0.00  0.00    -0.080 Cl
ATOM     30  C   LIG    1       -0.232   1.678  -3.878  0.00  0.00    +0.142 A 
ATOM     31  F   LIG    1       -0.227   0.932  -5.008  0.00  0.00    -0.204 F 
ATOM     32  C   LIG    1       -0.002   3.047  -3.971  0.00  0.00    +0.041 A 
ATOM     33  C   LIG    1       -0.013   3.832  -2.823  0.00  0.00    +0.023 A 
ENDBRANCH  23  27
ENDBRANCH  22  23
ENDBRANCH   1  22
TORSDOF 6
