REMARK  Name = DB08932
REMARK                            x       y       z     vdW  Elec       q    Type
REMARK                         _______ _______ _______ _____ _____    ______ ____
ROOT
ATOM      1  C   LIG    1        1.883   0.250   0.084  0.00  0.00    +0.153 A 
ATOM      2  C   LIG    1        2.526  -1.008   0.060  0.00  0.00    +0.085 A 
ATOM      3  C   LIG    1        3.933  -0.994   0.131  0.00  0.00    +0.228 A 
ATOM      4  N   LIG    1        4.647   0.166   0.211  0.00  0.00    -0.201 NA
ATOM      5  C   LIG    1        3.934   1.315   0.216  0.00  0.00    +0.227 A 
ATOM      6  N   LIG    1        2.586   1.414   0.154  0.00  0.00    -0.219 NA
ENDROOT
BRANCH   2   7
ATOM      7  C   LIG    1        1.777  -2.296  -0.029  0.00  0.00    -0.009 A 
ATOM      8  C   LIG    1        1.930  -3.272   0.963  0.00  0.00    +0.010 A 
ATOM      9  C   LIG    1        1.237  -4.476   0.882  0.00  0.00    +0.016 A 
ATOM     10  C   LIG    1        0.384  -4.711  -0.193  0.00  0.00    +0.018 A 
ATOM     11 BR   LIG    1       -0.566  -6.356  -0.304  0.00  0.00    -0.050 Br
ATOM     12  C   LIG    1        0.223  -3.751  -1.189  0.00  0.00    +0.016 A 
ATOM     13  C   LIG    1        0.918  -2.547  -1.106  0.00  0.00    +0.010 A 
ENDBRANCH   2   7
BRANCH   1  14
ATOM     14  N   LIG    1        0.480   0.324   0.049  0.00  0.00    -0.189 N 
ATOM     15  H   LIG    1       -0.034  -0.542  -0.024  0.00  0.00    +0.176 HD
BRANCH  14  16
ATOM     16  S   LIG    1       -0.451   1.812   0.319  0.00  0.00    +0.110 S 
ATOM     17  O   LIG    1       -1.867   1.438   0.245  0.00  0.00    -0.138 OA
ATOM     18  O   LIG    1        0.091   2.467   1.514  0.00  0.00    -0.138 OA
BRANCH  16  19
ATOM     19  N   LIG    1       -0.073   2.823  -1.076  0.00  0.00    -0.177 NA
ATOM     20  H   LIG    1        0.904   3.127  -1.068  0.00  0.00    +0.149 HD
BRANCH  19  21
ATOM     21  C   LIG    1       -0.953   3.982  -1.326  0.00  0.00    +0.107 C 
BRANCH  21  22
ATOM     22  C   LIG    1       -0.592   5.167  -0.414  0.00  0.00    +0.013 C 
ATOM     23  C   LIG    1       -1.454   6.403  -0.694  0.00  0.00    +0.005 C 
ENDBRANCH  21  22
ENDBRANCH  19  21
ENDBRANCH  16  19
ENDBRANCH  14  16
ENDBRANCH   1  14
BRANCH   3  24
ATOM     24  O   LIG    1        4.620  -2.196   0.101  0.00  0.00    -0.472 OA
BRANCH  24  25
ATOM     25  C   LIG    1        6.046  -2.213   0.177  0.00  0.00    +0.272 C 
BRANCH  25  26
ATOM     26  C   LIG    1        6.519  -3.669   0.117  0.00  0.00    +0.273 C 
BRANCH  26  27
ATOM     27  O   LIG    1        7.944  -3.705   0.191  0.00  0.00    -0.459 OA
BRANCH  27  28
ATOM     28  C   LIG    1        8.599  -4.921   0.128  0.00  0.00    +0.318 A 
ATOM     29  N   LIG    1        7.882  -6.077  -0.004  0.00  0.00    -0.202 NA
ATOM     30  C   LIG    1        8.602  -7.229  -0.062  0.00  0.00    +0.133 A 
ATOM     31  C   LIG    1        9.996  -7.242   0.010  0.00  0.00    +0.054 A 
ATOM     32 BR   LIG    1       10.980  -8.869  -0.076  0.00  0.00    -0.047 Br
ATOM     33  C   LIG    1       10.637  -6.008   0.148  0.00  0.00    +0.133 A 
ATOM     34  N   LIG    1        9.953  -4.836   0.208  0.00  0.00    -0.202 NA
ENDBRANCH  27  28
ENDBRANCH  26  27
ENDBRANCH  25  26
ENDBRANCH  24  25
ENDBRANCH   3  24
TORSDOF 11
