REMARK  Name = DB08943
REMARK                            x       y       z     vdW  Elec       q    Type
REMARK                         _______ _______ _______ _____ _____    ______ ____
ROOT
ATOM      1  C   LIG    1       -0.073   0.012   0.028  0.00  0.00    +0.170 C 
ENDROOT
BRANCH   1   2
ATOM      2  C   LIG    1       -0.541   1.470   0.170  0.00  0.00    +0.001 A 
ATOM      3  C   LIG    1       -1.582   1.842   1.041  0.00  0.00    +0.048 A 
ATOM      4 CL   LIG    1       -2.416   0.686   2.023  0.00  0.00    -0.083 Cl
ATOM      5  C   LIG    1       -1.974   3.179   1.130  0.00  0.00    +0.040 A 
ATOM      6  C   LIG    1       -1.340   4.154   0.360  0.00  0.00    +0.042 A 
ATOM      7 CL   LIG    1       -1.831   5.804   0.479  0.00  0.00    -0.083 Cl
ATOM      8  C   LIG    1       -0.310   3.793  -0.506  0.00  0.00    +0.020 A 
ATOM      9  C   LIG    1        0.084   2.460  -0.600  0.00  0.00    +0.009 A 
ENDBRANCH   1   2
BRANCH   1  10
ATOM     10  O   LIG    1        1.353  -0.056   0.006  0.00  0.00    -0.365 OA
BRANCH  10  11
ATOM     11  C   LIG    1        2.001   0.180   1.252  0.00  0.00    +0.198 C 
BRANCH  11  16
ATOM     12  C   LIG    1        6.274   0.390   0.552  0.00  0.00    +0.003 A 
ATOM     13  C   LIG    1        5.648  -0.846   0.695  0.00  0.00    +0.020 A 
ATOM     14  C   LIG    1        4.272  -0.918   0.920  0.00  0.00    +0.048 A 
ATOM     15 CL   LIG    1        3.552  -2.486   1.067  0.00  0.00    -0.083 Cl
ATOM     16  C   LIG    1        3.507   0.260   1.011  0.00  0.00    +0.015 A 
ATOM     17  C   LIG    1        4.148   1.504   0.854  0.00  0.00    +0.048 A 
ATOM     18 CL   LIG    1        3.278   3.000   0.917  0.00  0.00    -0.083 Cl
ATOM     19  C   LIG    1        5.524   1.560   0.629  0.00  0.00    +0.020 A 
ENDBRANCH  11  16
ENDBRANCH  10  11
ENDBRANCH   1  10
BRANCH   1  20
ATOM     20  C   LIG    1       -0.576  -0.659  -1.270  0.00  0.00    +0.159 C 
BRANCH  20  21
ATOM     21  N   LIG    1       -2.030  -0.682  -1.344  0.00  0.00    -0.334 N 
ATOM     22  C   LIG    1       -2.852   0.183  -2.026  0.00  0.00    +0.199 A 
ATOM     23  N   LIG    1       -4.129  -0.081  -1.877  0.00  0.00    -0.244 NA
ATOM     24  C   LIG    1       -4.160  -1.136  -1.081  0.00  0.00    +0.130 A 
ATOM     25  C   LIG    1       -2.888  -1.549  -0.717  0.00  0.00    +0.107 A 
ENDBRANCH  20  21
ENDBRANCH   1  20
TORSDOF 6
