REMARK  Name = DB08814
REMARK                            x       y       z     vdW  Elec       q    Type
REMARK                         _______ _______ _______ _____ _____    ______ ____
ROOT
ATOM      1  C   LIG    1       -0.044  -0.081   0.084  0.00  0.00    +0.146 A 
ATOM      2  C   LIG    1       -0.768  -1.295   0.017  0.00  0.00    +0.101 A 
ATOM      3  C   LIG    1       -2.168  -1.230  -0.072  0.00  0.00    +0.019 A 
ATOM      4  C   LIG    1       -2.835  -0.008  -0.099  0.00  0.00    +0.013 A 
ATOM      5  C   LIG    1       -2.121   1.191  -0.050  0.00  0.00    +0.058 A 
ATOM      6  C   LIG    1       -0.727   1.141   0.040  0.00  0.00    +0.059 A 
ENDROOT
BRANCH   5   7
ATOM      7  C   LIG    1       -2.848   2.535  -0.069  0.00  0.00    +0.418 C 
ATOM      8  F   LIG    1       -4.084   2.431   0.422  0.00  0.00    -0.166 F 
ATOM      9  F   LIG    1       -2.927   2.967  -1.327  0.00  0.00    -0.166 F 
ATOM     10  F   LIG    1       -2.196   3.447   0.654  0.00  0.00    -0.166 F 
ENDBRANCH   5   7
BRANCH   2  11
ATOM     11  C   LIG    1       -0.078  -2.646   0.009  0.00  0.00    +0.340 C 
ATOM     12  O   LIG    1        1.114  -2.787  -0.261  0.00  0.00    -0.245 OA
BRANCH  11  13
ATOM     13  O   LIG    1       -0.882  -3.701   0.335  0.00  0.00    -0.477 OA
ATOM     14  H   LIG    1       -0.408  -4.535   0.323  0.00  0.00    +0.295 HD
ENDBRANCH  11  13
ENDBRANCH   2  11
BRANCH   1  15
ATOM     15  O   LIG    1        1.333  -0.043   0.163  0.00  0.00    -0.425 OA
BRANCH  15  17
ATOM     16  C   LIG    1        3.450   0.123   1.268  0.00  0.00    +0.136 C 
ATOM     17  C   LIG    1        1.931   0.087   1.379  0.00  0.00    +0.309 C 
ATOM     18  O   LIG    1        1.370   0.168   2.474  0.00  0.00    -0.251 OA
ENDBRANCH  15  17
ENDBRANCH   1  15
TORSDOF 5
