REMARK  Name = DB08967
REMARK                            x       y       z     vdW  Elec       q    Type
REMARK                         _______ _______ _______ _____ _____    ______ ____
ROOT
ATOM      1  N   LIG    1       -0.755   1.156  -0.044  0.00  0.00    -0.297 N 
ATOM      2  C   LIG    1       -1.160   1.699  -1.287  0.00  0.00    +0.050 A 
ATOM      3  C   LIG    1       -1.931   2.881  -1.340  0.00  0.00    +0.034 A 
ATOM      4  S   LIG    1       -2.618   3.580   0.116  0.00  0.00    -0.086 S 
ATOM      5  C   LIG    1       -1.358   3.148   1.260  0.00  0.00    +0.034 A 
ATOM      6  C   LIG    1       -1.178   3.978   2.370  0.00  0.00    +0.017 A 
ATOM      7  C   LIG    1       -0.215   3.680   3.327  0.00  0.00    +0.001 A 
ATOM      8  C   LIG    1        0.567   2.543   3.181  0.00  0.00    +0.002 A 
ATOM      9  C   LIG    1        0.375   1.702   2.087  0.00  0.00    +0.024 A 
ATOM     10  C   LIG    1       -2.257   3.474  -2.563  0.00  0.00    +0.019 A 
ATOM     11  C   LIG    1       -1.767   2.954  -3.756  0.00  0.00    +0.030 A 
ATOM     12  C   LIG    1       -0.959   1.821  -3.728  0.00  0.00    +0.107 A 
ATOM     13  C   LIG    1       -0.669   1.207  -2.512  0.00  0.00    +0.053 A 
ATOM     14  C   LIG    1       -0.618   1.952   1.118  0.00  0.00    +0.048 A 
ENDROOT
BRANCH  12  15
ATOM     15  S   LIG    1       -0.265   1.143  -5.230  0.00  0.00    +0.060 S 
ATOM     16  O   LIG    1       -0.442   2.131  -6.301  0.00  0.00    -0.153 OA
ATOM     17  O   LIG    1       -0.825  -0.207  -5.367  0.00  0.00    -0.153 OA
BRANCH  15  18
ATOM     18  N   LIG    1        1.471   0.990  -4.907  0.00  0.00    -0.183 NA
ATOM     19  C   LIG    1        2.202   2.254  -4.683  0.00  0.00    +0.131 C 
ATOM     20  C   LIG    1        2.195  -0.030  -5.692  0.00  0.00    +0.131 C 
ENDBRANCH  15  18
ENDBRANCH  12  15
BRANCH   1  21
ATOM     21  C   LIG    1       -0.179  -0.209  -0.046  0.00  0.00    +0.129 C 
BRANCH  21  23
ATOM     22  C   LIG    1        1.465  -1.989  -0.640  0.00  0.00    +0.026 C 
ATOM     23  C   LIG    1        1.362  -0.489  -0.254  0.00  0.00    +0.071 C 
BRANCH  23  24
ATOM     24  N   LIG    1        2.071   0.385  -1.227  0.00  0.00    -0.304 NA
ATOM     25  C   LIG    1        2.349   1.721  -0.692  0.00  0.00    +0.104 C 
ATOM     26  C   LIG    1        3.354  -0.138  -1.709  0.00  0.00    +0.104 C 
ENDBRANCH  23  24
ENDBRANCH  21  23
ENDBRANCH   1  21
TORSDOF 5
