REMARK  Name = DB08810
REMARK                            x       y       z     vdW  Elec       q    Type
REMARK                         _______ _______ _______ _____ _____    ______ ____
ROOT
ATOM      1  O   LIG    1       -0.406   1.095   0.602  0.00  0.00    -0.270 OA
ATOM      2  C   LIG    1        0.183   0.081   0.224  0.00  0.00    +0.248 C 
ATOM      3  N   LIG    1       -0.461  -1.022  -0.211  0.00  0.00    -0.309 N 
ATOM      4  H   LIG    1        0.103  -1.812  -0.491  0.00  0.00    +0.149 HD
ENDROOT
BRANCH   3   5
ATOM      5  C   LIG    1       -1.911  -1.236  -0.244  0.00  0.00    +0.070 C 
ATOM      6  C   LIG    1       -2.621  -1.161   1.131  0.00  0.00    +0.003 C 
ATOM      7  C   LIG    1       -4.132  -1.442   1.064  0.00  0.00    -0.077 C 
ATOM      8  N   LIG    1       -4.791  -0.492   0.038  0.00  0.00    +0.380 N 
ATOM      9  H   LIG    1       -4.609   0.460   0.324  0.00  0.00    -0.082 HD
ATOM     10  C   LIG    1       -4.170  -0.690  -1.364  0.00  0.00    -0.077 C 
ATOM     11  C   LIG    1       -2.660  -0.401  -1.308  0.00  0.00    +0.003 C 
BRANCH   8  12
ATOM     12  C   LIG    1       -6.326  -0.697  -0.046  0.00  0.00    -0.075 C 
BRANCH  12  13
ATOM     13  C   LIG    1       -7.055  -0.317   1.274  0.00  0.00    -0.024 C 
ATOM     14  C   LIG    1       -8.306   0.561   0.979  0.00  0.00    +0.028 C 
ATOM     15  C   LIG    1       -9.214   0.681   2.200  0.00  0.00    -0.031 C 
ATOM     16  C   LIG    1       -9.096  -0.077   3.308  0.00  0.00    -0.031 C 
ATOM     17  C   LIG    1       -8.072  -1.194   3.464  0.00  0.00    +0.027 C 
ATOM     18  C   LIG    1       -7.476  -1.567   2.089  0.00  0.00    +0.006 C 
ENDBRANCH  12  13
ENDBRANCH   8  12
ENDBRANCH   3   5
BRANCH   2  19
ATOM     19  C   LIG    1        1.698   0.014   0.203  0.00  0.00    +0.081 A 
ATOM     20  C   LIG    1        2.342  -1.212   0.438  0.00  0.00    +0.051 A 
ATOM     21  C   LIG    1        3.735  -1.328   0.451  0.00  0.00    +0.143 A 
ATOM     22  C   LIG    1        4.508  -0.180   0.213  0.00  0.00    +0.059 A 
ATOM     23  C   LIG    1        3.882   1.044  -0.018  0.00  0.00    +0.071 A 
ATOM     24  C   LIG    1        2.482   1.165  -0.028  0.00  0.00    +0.134 A 
BRANCH  22  25
ATOM     25  N   LIG    1        5.904  -0.216   0.180  0.00  0.00    -0.356 N 
ATOM     26  H   LIG    1        6.381  -1.090   0.351  0.00  0.00    +0.142 HD
ATOM     27  H   LIG    1        6.421   0.634   0.005  0.00  0.00    +0.142 HD
ENDBRANCH  22  25
BRANCH  21  28
ATOM     28  N   LIG    1        4.340  -2.655   0.711  0.00  0.00    +0.008 N 
ATOM     29  O   LIG    1        3.808  -3.636   0.201  0.00  0.00    -0.130 OA
BRANCH  28  30
ATOM     30  O   LIG    1        5.326  -2.722   1.438  0.00  0.00    -0.396 OA
ATOM     31  H   LIG    1        5.722  -3.552   1.614  0.00  0.00    +0.329 HD
ENDBRANCH  28  30
ENDBRANCH  21  28
BRANCH  24  32
ATOM     32  O   LIG    1        1.840   2.369  -0.275  0.00  0.00    -0.491 OA
BRANCH  32  33
ATOM     33  C   LIG    1        2.596   3.556  -0.499  0.00  0.00    +0.226 C 
ATOM     34  C   LIG    1        1.623   4.722  -0.699  0.00  0.00    +0.048 C 
ENDBRANCH  32  33
ENDBRANCH  24  32
ENDBRANCH   2  19
TORSDOF 9
