REMARK  Name = DB08988
REMARK                            x       y       z     vdW  Elec       q    Type
REMARK                         _______ _______ _______ _____ _____    ______ ____
ROOT
ATOM      1  C   LIG    1        1.341  -0.008  -0.074  0.00  0.00    +0.094 C 
ATOM      2  C   LIG    1        1.933   1.441  -0.100  0.00  0.00    +0.038 C 
ATOM      3  C   LIG    1        1.540   2.466   0.991  0.00  0.00    +0.085 C 
ATOM      4  N   LIG    1        1.723   2.093   2.395  0.00  0.00    -0.305 NA
ATOM      5  C   LIG    1        0.796   1.074   2.883  0.00  0.00    +0.084 C 
ATOM      6  C   LIG    1        1.153  -0.396   2.586  0.00  0.00    +0.017 C 
ATOM      7  C   LIG    1        1.870   3.244   3.281  0.00  0.00    +0.104 C 
ATOM      8  C   LIG    1        1.833  -0.724   1.235  0.00  0.00    +0.024 C 
ENDROOT
BRANCH   1   9
ATOM      9  C   LIG    1        1.883  -0.723  -1.358  0.00  0.00    -0.031 A 
ATOM     10  C   LIG    1        1.224  -0.621  -2.601  0.00  0.00    +0.005 A 
ATOM     11  C   LIG    1        1.736  -1.233  -3.741  0.00  0.00    +0.000 A 
ATOM     12  C   LIG    1        2.929  -1.942  -3.667  0.00  0.00    +0.000 A 
ATOM     13  C   LIG    1        3.619  -2.032  -2.464  0.00  0.00    +0.000 A 
ATOM     14  C   LIG    1        3.105  -1.419  -1.324  0.00  0.00    +0.005 A 
ENDBRANCH   1   9
BRANCH   1  15
ATOM     15  C   LIG    1       -0.224  -0.017  -0.120  0.00  0.00    +0.318 C 
ATOM     16  O   LIG    1       -0.888   1.008  -0.298  0.00  0.00    -0.250 OA
BRANCH  15  17
ATOM     17  O   LIG    1       -0.744  -1.258   0.048  0.00  0.00    -0.464 OA
BRANCH  17  19
ATOM     18  C   LIG    1       -2.441  -2.961   0.204  0.00  0.00    +0.048 C 
ATOM     19  C   LIG    1       -2.149  -1.468   0.024  0.00  0.00    +0.229 C 
ENDBRANCH  17  19
ENDBRANCH  15  17
ENDBRANCH   1  15
TORSDOF 4
