REMARK  Name = DB08490
REMARK                            x       y       z     vdW  Elec       q    Type
REMARK                         _______ _______ _______ _____ _____    ______ ____
ROOT
ATOM      1  S   LIG    1       -0.317  -0.148   0.303  0.00  0.00    -0.002 S 
ATOM      2  O   LIG    1       -0.886  -0.771  -0.898  0.00  0.00    -0.169 OA
ATOM      3  O   LIG    1       -0.686  -0.635   1.637  0.00  0.00    -0.169 OA
ENDROOT
BRANCH   1   7
ATOM      4  C   LIG    1       -1.404   4.301   0.129  0.00  0.00    +0.129 A 
ATOM      5  C   LIG    1       -1.229   3.666   1.368  0.00  0.00    +0.048 A 
ATOM      6  C   LIG    1       -0.904   2.314   1.424  0.00  0.00    +0.030 A 
ATOM      7  C   LIG    1       -0.748   1.589   0.241  0.00  0.00    +0.088 A 
ATOM      8  C   LIG    1       -0.906   2.217  -0.995  0.00  0.00    +0.030 A 
ATOM      9  C   LIG    1       -1.230   3.570  -1.047  0.00  0.00    +0.048 A 
BRANCH   4  10
ATOM     10  O   LIG    1       -1.706   5.642  -0.003  0.00  0.00    -0.456 OA
BRANCH  10  13
ATOM     11  C   LIG    1       -4.120   6.726   2.554  0.00  0.00    +0.023 A 
ATOM     12  C   LIG    1       -3.545   5.989   1.523  0.00  0.00    +0.048 A 
ATOM     13  C   LIG    1       -2.287   6.346   1.028  0.00  0.00    +0.129 A 
ATOM     14  C   LIG    1       -1.617   7.454   1.549  0.00  0.00    +0.048 A 
ATOM     15  C   LIG    1       -2.192   8.191   2.581  0.00  0.00    +0.023 A 
ATOM     16  C   LIG    1       -3.440   7.824   3.081  0.00  0.00    +0.041 A 
ATOM     17 CL   LIG    1       -4.152   8.737   4.361  0.00  0.00    -0.084 Cl
ENDBRANCH  10  13
ENDBRANCH   4  10
ENDBRANCH   1   7
BRANCH   1  18
ATOM     18  C   LIG    1        1.583  -0.102   0.147  0.00  0.00    +0.188 C 
BRANCH  18  19
ATOM     19  C   LIG    1        2.297  -1.488   0.044  0.00  0.00    +0.073 C 
ATOM     20  C   LIG    1        3.850  -1.290   0.057  0.00  0.00    +0.046 C 
ATOM     21  C   LIG    1        4.644  -2.576  -0.270  0.00  0.00    +0.161 C 
ATOM     22  O   LIG    1        4.218  -3.099  -1.525  0.00  0.00    -0.380 OA
ATOM     23  C   LIG    1        2.844  -3.474  -1.554  0.00  0.00    +0.161 C 
ATOM     24  C   LIG    1        1.948  -2.243  -1.283  0.00  0.00    +0.046 C 
BRANCH  19  25
ATOM     25  C   LIG    1        1.877  -2.365   1.276  0.00  0.00    +0.243 C 
ATOM     26  O   LIG    1        1.011  -3.237   1.154  0.00  0.00    -0.273 OA
ATOM     27  N   LIG    1        2.469  -2.099   2.459  0.00  0.00    -0.197 N 
ATOM     28  H   LIG    1        3.194  -1.426   2.658  0.00  0.00    +0.182 HD
BRANCH  27  29
ATOM     29  O   LIG    1        2.119  -2.872   3.571  0.00  0.00    -0.295 OA
ATOM     30  H   LIG    1        2.894  -3.422   3.710  0.00  0.00    +0.241 HD
ENDBRANCH  27  29
ENDBRANCH  19  25
ENDBRANCH  18  19
ENDBRANCH   1  18
TORSDOF 7
