REMARK  Name = DB08871
REMARK                            x       y       z     vdW  Elec       q    Type
REMARK                         _______ _______ _______ _____ _____    ______ ____
ROOT
ATOM      1  C   LIG    1       -2.001   0.182   1.815  0.00  0.00    +0.128 C 
ATOM      2  O   LIG    1       -0.963  -0.570   1.198  0.00  0.00    -0.370 OA
ATOM      3  C   LIG    1       -0.416   0.187   0.133  0.00  0.00    +0.150 C 
ATOM      4  C   LIG    1       -0.355   1.598   0.737  0.00  0.00    +0.153 C 
ATOM      5  C   LIG    1       -2.233  -0.299   3.269  0.00  0.00    +0.068 C 
ATOM      6  C   LIG    1       -2.318  -1.840   3.447  0.00  0.00    +0.147 C 
ATOM      7  C   LIG    1       -0.967  -2.586   3.522  0.00  0.00    -0.045 C 
ATOM      8  C   LIG    1        0.245  -1.989   3.505  0.00  0.00    +0.010 C 
ATOM      9  C   LIG    1       -1.173  -4.108   3.629  0.00  0.00    +0.016 C 
ATOM     10  C   LIG    1        0.131  -4.936   3.644  0.00  0.00    +0.012 C 
ATOM     11  C   LIG    1       -2.124  -4.582   2.509  0.00  0.00    +0.039 C 
ATOM     12  C   LIG    1       -3.419  -3.749   2.423  0.00  0.00    +0.120 C 
ATOM     13  C   LIG    1       -4.264  -4.122   1.186  0.00  0.00    +0.034 C 
ATOM     14  C   LIG    1       -5.734  -3.643   1.209  0.00  0.00    +0.038 C 
ATOM     15  C   LIG    1       -6.015  -2.142   1.478  0.00  0.00    +0.144 C 
ATOM     16  C   LIG    1       -5.779  -1.177   0.322  0.00  0.00    -0.046 C 
ATOM     17  C   LIG    1       -4.765  -1.124  -0.558  0.00  0.00    +0.010 C 
ATOM     18  C   LIG    1       -6.978  -0.251   0.363  0.00  0.00    +0.064 C 
ATOM     19  C   LIG    1       -7.811  -0.710   1.565  0.00  0.00    +0.123 C 
ATOM     20  C   LIG    1       -7.597   0.085   2.877  0.00  0.00    +0.037 C 
ATOM     21  C   LIG    1       -8.256  -0.595   4.098  0.00  0.00    +0.067 C 
ATOM     22  C   LIG    1       -8.377   0.298   5.337  0.00  0.00    +0.174 C 
ATOM     23  O   LIG    1       -9.342   1.273   5.090  0.00  0.00    -0.340 OA
ATOM     24  C   LIG    1       -9.839   1.807   6.314  0.00  0.00    +0.182 C 
ATOM     25  C   LIG    1       -9.485   0.717   7.338  0.00  0.00    +0.155 C 
ATOM     26  O   LIG    1       -8.464   1.283   8.157  0.00  0.00    -0.365 OA
ATOM     27  C   LIG    1       -7.872   2.369   7.463  0.00  0.00    +0.181 C 
ATOM     28  C   LIG    1       -6.777   1.938   6.453  0.00  0.00    +0.184 C 
ATOM     29  C   LIG    1       -6.408   3.212   5.671  0.00  0.00    +0.179 C 
ATOM     30  O   LIG    1       -5.356   2.951   4.743  0.00  0.00    -0.368 OA
ATOM     31  C   LIG    1       -4.888   4.117   4.049  0.00  0.00    +0.126 C 
ATOM     32  C   LIG    1       -6.036   4.848   3.293  0.00  0.00    +0.034 C 
ATOM     33  C   LIG    1       -7.290   5.051   4.168  0.00  0.00    +0.037 C 
ATOM     34  C   LIG    1       -3.668   3.786   3.159  0.00  0.00    +0.106 C 
ATOM     35  C   LIG    1       -3.880   2.763   2.034  0.00  0.00    +0.136 C 
ATOM     36  O   LIG    1       -4.919   2.116   1.909  0.00  0.00    -0.297 OA
ATOM     37  C   LIG    1       -2.711   2.563   1.067  0.00  0.00    +0.083 C 
ATOM     38  C   LIG    1       -7.638   3.755   4.909  0.00  0.00    +0.150 C 
ATOM     39  O   LIG    1       -8.802   3.954   5.726  0.00  0.00    -0.365 OA
ATOM     40  C   LIG    1       -9.078   3.035   6.798  0.00  0.00    +0.181 C 
ATOM     41  C   LIG    1       -8.910  -0.443   6.552  0.00  0.00    +0.099 C 
ATOM     42  O   LIG    1       -7.095   0.835   5.577  0.00  0.00    -0.340 OA
ATOM     43  O   LIG    1       -7.406  -2.055   1.734  0.00  0.00    -0.369 OA
ATOM     44  O   LIG    1       -3.091  -2.366   2.369  0.00  0.00    -0.369 OA
ATOM     45  C   LIG    1       -1.592   1.662   1.640  0.00  0.00    +0.056 C 
ENDROOT
BRANCH   4  46
ATOM     46  O   LIG    1        0.829   1.696   1.532  0.00  0.00    -0.377 OA
ATOM     47  C   LIG    1        1.233   3.024   1.838  0.00  0.00    +0.194 C 
ENDBRANCH   4  46
BRANCH   3  48
ATOM     48  C   LIG    1        0.924  -0.438  -0.323  0.00  0.00    +0.066 C 
BRANCH  48  49
ATOM     49  C   LIG    1        0.801  -1.837  -0.973  0.00  0.00    +0.131 C 
BRANCH  49  50
ATOM     50  O   LIG    1        0.354  -2.774  -0.007  0.00  0.00    -0.390 OA
ATOM     51  H   LIG    1       -0.425  -2.415   0.427  0.00  0.00    +0.210 HD
ENDBRANCH  49  50
BRANCH  49  52
ATOM     52  C   LIG    1        2.149  -2.318  -1.553  0.00  0.00    +0.109 C 
BRANCH  52  53
ATOM     53  N   LIG    1        1.979  -3.468  -2.425  0.00  0.00    -0.328 NA
ATOM     54  H   LIG    1        1.588  -4.233  -1.894  0.00  0.00    +0.118 HD
ATOM     55  H   LIG    1        2.881  -3.780  -2.755  0.00  0.00    +0.118 HD
ENDBRANCH  52  53
ENDBRANCH  49  52
ENDBRANCH  48  49
ENDBRANCH   3  48
TORSDOF 6
