REMARK  Name = DB08826
REMARK                            x       y       z     vdW  Elec       q    Type
REMARK                         _______ _______ _______ _____ _____    ______ ____
ROOT
ATOM      1  N   LIG    1        0.017  -0.032  -0.002  0.00  0.00    -0.351 N 
ATOM      2  C   LIG    1        1.476   0.070   0.018  0.00  0.00    +0.148 C 
ATOM      3  C   LIG    1       -0.647  -1.180   0.451  0.00  0.00    +0.061 A 
ATOM      4  C   LIG    1        0.137  -2.491   0.384  0.00  0.00    +0.067 C 
ATOM      5  C   LIG    1       -1.925  -1.104   0.921  0.00  0.00    +0.183 A 
ATOM      6  C   LIG    1       -2.700   0.169   0.965  0.00  0.00    +0.223 A 
ATOM      7  O   LIG    1       -3.837   0.293   1.421  0.00  0.00    -0.284 OA
ATOM      8  C   LIG    1       -1.956   1.295   0.374  0.00  0.00    +0.072 A 
ATOM      9  C   LIG    1       -0.690   1.159  -0.078  0.00  0.00    +0.089 A 
ENDROOT
BRANCH   5  10
ATOM     10  O   LIG    1       -2.626  -2.175   1.389  0.00  0.00    -0.502 OA
ATOM     11  H   LIG    1       -3.499  -1.887   1.665  0.00  0.00    +0.292 HD
ENDBRANCH   5  10
TORSDOF 1
