REMARK  Name = DB08897
REMARK                            x       y       z     vdW  Elec       q    Type
REMARK                         _______ _______ _______ _____ _____    ______ ____
ROOT
ATOM      1  C   LIG    1        1.386   0.181  -0.087  0.00  0.00    +0.164 C 
ATOM      2  C   LIG    1        1.991   0.938   1.132  0.00  0.00    -0.030 C 
ATOM      3  N   LIG    1        2.811  -0.056   2.004  0.00  0.00    +0.383 N 
ATOM      4  C   LIG    1        1.873  -1.216   2.462  0.00  0.00    -0.075 C 
ATOM      5  C   LIG    1        1.310  -1.959   1.224  0.00  0.00    -0.011 C 
ATOM      6  C   LIG    1        3.960  -0.656   1.139  0.00  0.00    -0.075 C 
ATOM      7  C   LIG    1        3.353  -1.373  -0.096  0.00  0.00    -0.011 C 
ATOM      8  C   LIG    1        1.806  -1.314  -0.091  0.00  0.00    +0.025 C 
ENDROOT
BRANCH   1   9
ATOM      9  O   LIG    1       -0.037   0.282  -0.116  0.00  0.00    -0.460 OA
BRANCH   9  10
ATOM     10  C   LIG    1       -0.677   1.382  -0.594  0.00  0.00    +0.350 C 
ATOM     11  O   LIG    1       -0.105   2.365  -1.077  0.00  0.00    -0.247 OA
BRANCH  10  12
ATOM     12  C   LIG    1       -2.229   1.277  -0.490  0.00  0.00    +0.226 C 
BRANCH  12  13
ATOM     13  C   LIG    1       -2.835   0.400  -1.606  0.00  0.00    +0.037 A 
ATOM     14  C   LIG    1       -3.906   0.685  -2.467  0.00  0.00    +0.015 A 
ATOM     15  C   LIG    1       -4.229  -0.322  -3.379  0.00  0.00    +0.008 A 
ATOM     16  C   LIG    1       -3.415  -1.428  -3.254  0.00  0.00    +0.045 A 
ATOM     17  S   LIG    1       -2.248  -1.212  -1.999  0.00  0.00    -0.098 S 
ENDBRANCH  12  13
BRANCH  12  18
ATOM     18  C   LIG    1       -2.669   0.762   0.900  0.00  0.00    +0.037 A 
ATOM     19  S   LIG    1       -3.345   1.803   2.148  0.00  0.00    -0.098 S 
ATOM     20  C   LIG    1       -3.498   0.503   3.276  0.00  0.00    +0.045 A 
ATOM     21  C   LIG    1       -3.035  -0.682   2.743  0.00  0.00    +0.008 A 
ATOM     22  C   LIG    1       -2.570  -0.532   1.435  0.00  0.00    +0.015 A 
ENDBRANCH  12  18
BRANCH  12  23
ATOM     23  O   LIG    1       -2.731   2.599  -0.673  0.00  0.00    -0.369 OA
ATOM     24  H   LIG    1       -2.447   2.915  -1.534  0.00  0.00    +0.212 HD
ENDBRANCH  12  23
ENDBRANCH  10  12
ENDBRANCH   9  10
ENDBRANCH   1   9
BRANCH   3  25
ATOM     25  C   LIG    1        3.359   0.628   3.294  0.00  0.00    -0.072 C 
BRANCH  25  26
ATOM     26  C   LIG    1        4.301   1.828   3.041  0.00  0.00    +0.023 C 
BRANCH  26  27
ATOM     27  C   LIG    1        4.790   2.456   4.353  0.00  0.00    +0.227 C 
BRANCH  27  28
ATOM     28  O   LIG    1        5.651   3.548   4.045  0.00  0.00    -0.492 OA
BRANCH  28  29
ATOM     29  C   LIG    1        6.203   4.287   5.075  0.00  0.00    +0.120 A 
ATOM     30  C   LIG    1        5.973   4.039   6.439  0.00  0.00    +0.045 A 
ATOM     31  C   LIG    1        6.573   4.838   7.408  0.00  0.00    +0.004 A 
ATOM     32  C   LIG    1        7.404   5.887   7.021  0.00  0.00    +0.000 A 
ATOM     33  C   LIG    1        7.640   6.143   5.673  0.00  0.00    +0.004 A 
ATOM     34  C   LIG    1        7.039   5.343   4.705  0.00  0.00    +0.045 A 
ENDBRANCH  28  29
ENDBRANCH  27  28
ENDBRANCH  26  27
ENDBRANCH  25  26
ENDBRANCH   3  25
TORSDOF 11
