REMARK  Name = DB08843
REMARK                            x       y       z     vdW  Elec       q    Type
REMARK                         _______ _______ _______ _____ _____    ______ ____
ROOT
ATOM      1  C   LIG    1       -1.097   2.068   1.202  0.00  0.00    +0.201 A 
ATOM      2  N   LIG    1       -0.678   1.356   0.138  0.00  0.00    -0.313 N 
ATOM      3  C   LIG    1       -0.805   2.171  -0.950  0.00  0.00    +0.167 A 
ATOM      4  N   LIG    1       -0.513   1.924  -2.250  0.00  0.00    -0.195 NA
ATOM      5  C   LIG    1       -0.778   2.981  -3.035  0.00  0.00    +0.216 A 
ATOM      6  N   LIG    1       -1.270   4.176  -2.678  0.00  0.00    -0.198 NA
ATOM      7  C   LIG    1       -1.553   4.398  -1.366  0.00  0.00    +0.149 A 
ATOM      8  C   LIG    1       -1.316   3.353  -0.444  0.00  0.00    +0.147 A 
ATOM      9  N   LIG    1       -1.496   3.277   0.886  0.00  0.00    -0.231 NA
ENDROOT
BRANCH   5  10
ATOM     10  N   LIG    1       -0.512   2.816  -4.378  0.00  0.00    -0.327 N 
ATOM     11  H   LIG    1       -0.672   3.536  -5.067  0.00  0.00    +0.145 HD
ATOM     12  H   LIG    1       -0.140   1.964  -4.769  0.00  0.00    +0.145 HD
ENDBRANCH   5  10
BRANCH   7  13
ATOM     13  N   LIG    1       -2.063   5.640  -0.993  0.00  0.00    -0.341 N 
ATOM     14  H   LIG    1       -2.210   6.346  -1.699  0.00  0.00    +0.144 HD
ATOM     15  H   LIG    1       -2.268   5.818  -0.020  0.00  0.00    +0.144 HD
ENDBRANCH   7  13
BRANCH   2  16
ATOM     16  C   LIG    1       -0.153  -0.019   0.158  0.00  0.00    +0.153 C 
BRANCH  16  17
ATOM     17  C   LIG    1        1.377  -0.039   0.008  0.00  0.00    +0.182 C 
BRANCH  17  18
ATOM     18  O   LIG    1        1.958   0.637   1.113  0.00  0.00    -0.366 OA
BRANCH  18  19
ATOM     19  C   LIG    1        3.373   0.735   1.053  0.00  0.00    +0.286 C 
BRANCH  19  20
ATOM     20  P   LIG    1        3.975   1.655   2.572  0.00  0.00    +0.353 P 
ATOM     21  O   LIG    1        3.370   1.027   3.809  0.00  0.00    -0.256 OA
BRANCH  20  22
ATOM     22  O   LIG    1        3.142   3.121   2.261  0.00  0.00    -0.323 OA
ATOM     23  H   LIG    1        3.484   3.821   1.673  0.00  0.00    +0.220 HD
ENDBRANCH  20  22
BRANCH  20  24
ATOM     24  O   LIG    1        5.456   1.925   2.430  0.00  0.00    -0.323 OA
ATOM     25  H   LIG    1        5.951   1.109   2.601  0.00  0.00    +0.220 HD
ENDBRANCH  20  24
ENDBRANCH  19  20
ENDBRANCH  18  19
ENDBRANCH  17  18
ENDBRANCH  16  17
ENDBRANCH   2  16
TORSDOF 9
