REMARK  Name = DB08896
REMARK                            x       y       z     vdW  Elec       q    Type
REMARK                         _______ _______ _______ _____ _____    ______ ____
ROOT
ATOM      1  C   LIG    1       -2.647   0.211   0.387  0.00  0.00    +0.070 A 
ATOM      2  C   LIG    1       -1.813  -0.760   0.950  0.00  0.00    +0.030 A 
ATOM      3  C   LIG    1       -0.431  -0.682   0.780  0.00  0.00    +0.048 A 
ATOM      4  C   LIG    1        0.127   0.354   0.029  0.00  0.00    +0.131 A 
ATOM      5  C   LIG    1       -0.705   1.317  -0.550  0.00  0.00    +0.086 A 
ATOM      6  C   LIG    1       -2.089   1.243  -0.387  0.00  0.00    +0.148 A 
ATOM      7  F   LIG    1       -2.873   2.166  -0.992  0.00  0.00    -0.203 F 
ENDROOT
BRANCH   1  12
ATOM      8  N   LIG    1       -6.121   0.543   1.106  0.00  0.00    -0.269 N 
ATOM      9  H   LIG    1       -6.277  -0.361   0.687  0.00  0.00    +0.156 HD
ATOM     10  C   LIG    1       -4.849   0.992   1.094  0.00  0.00    +0.308 C 
ATOM     11  O   LIG    1       -4.470   2.090   1.507  0.00  0.00    -0.252 OA
ATOM     12  N   LIG    1       -4.031   0.066   0.557  0.00  0.00    -0.267 N 
ATOM     13  H   LIG    1       -4.411  -0.850   0.365  0.00  0.00    +0.156 HD
BRANCH   8  18
ATOM     14  C   LIG    1       -9.734   2.231   2.470  0.00  0.00    +0.053 A 
ATOM     15 CL   LIG    1      -11.205   2.945   3.039  0.00  0.00    -0.083 Cl
ATOM     16  C   LIG    1       -9.724   1.028   1.741  0.00  0.00    +0.075 A 
ATOM     17  C   LIG    1       -8.493   0.511   1.311  0.00  0.00    +0.037 A 
ATOM     18  C   LIG    1       -7.289   1.165   1.589  0.00  0.00    +0.035 A 
ATOM     19  C   LIG    1       -7.320   2.360   2.325  0.00  0.00    +0.025 A 
ATOM     20  C   LIG    1       -8.536   2.885   2.757  0.00  0.00    +0.022 A 
BRANCH  16  21
ATOM     21  C   LIG    1      -11.025   0.285   1.413  0.00  0.00    +0.419 C 
ATOM     22  F   LIG    1      -11.825   1.071   0.691  0.00  0.00    -0.166 F 
ATOM     23  F   LIG    1      -11.655  -0.045   2.541  0.00  0.00    -0.166 F 
ATOM     24  F   LIG    1      -10.818  -0.836   0.718  0.00  0.00    -0.166 F 
ENDBRANCH  16  21
ENDBRANCH   8  18
ENDBRANCH   1  12
BRANCH   4  25
ATOM     25  O   LIG    1        1.491   0.425  -0.123  0.00  0.00    -0.456 OA
BRANCH  25  26
ATOM     26  C   LIG    1        2.094   0.075  -1.315  0.00  0.00    +0.132 A 
ATOM     27  C   LIG    1        1.424  -0.524  -2.396  0.00  0.00    +0.079 A 
ATOM     28  C   LIG    1        2.135  -0.847  -3.563  0.00  0.00    +0.129 A 
ATOM     29  N   LIG    1        3.473  -0.593  -3.670  0.00  0.00    -0.250 NA
ATOM     30  C   LIG    1        4.112  -0.021  -2.620  0.00  0.00    +0.115 A 
ATOM     31  C   LIG    1        3.463   0.323  -1.436  0.00  0.00    +0.066 A 
BRANCH  28  32
ATOM     32  C   LIG    1        1.426  -1.490  -4.740  0.00  0.00    +0.262 C 
ATOM     33  O   LIG    1        0.223  -1.754  -4.677  0.00  0.00    -0.269 OA
ATOM     34  N   LIG    1        2.174  -1.746  -5.832  0.00  0.00    -0.313 N 
ATOM     35  H   LIG    1        3.152  -1.498  -5.810  0.00  0.00    +0.149 HD
ATOM     36  C   LIG    1        1.689  -2.356  -7.066  0.00  0.00    +0.128 C 
ENDBRANCH  28  32
ENDBRANCH  25  26
ENDBRANCH   4  25
TORSDOF 6
