REMARK  Name = DB08916
REMARK                            x       y       z     vdW  Elec       q    Type
REMARK                         _______ _______ _______ _____ _____    ______ ____
ROOT
ATOM      1  C   LIG    1       -4.932  -1.010  -0.759  0.00  0.00    +0.223 A 
ATOM      2  N   LIG    1       -4.257   0.149  -0.575  0.00  0.00    -0.235 NA
ATOM      3  C   LIG    1       -2.897   0.067  -0.549  0.00  0.00    +0.080 A 
ATOM      4  C   LIG    1       -2.148   1.251  -0.361  0.00  0.00    +0.076 A 
ATOM      5  C   LIG    1       -0.745   1.221  -0.319  0.00  0.00    +0.144 A 
ATOM      6  C   LIG    1       -0.078  -0.004  -0.466  0.00  0.00    +0.077 A 
ATOM      7  C   LIG    1       -0.798  -1.188  -0.675  0.00  0.00    +0.040 A 
ATOM      8  C   LIG    1       -2.216  -1.177  -0.712  0.00  0.00    +0.042 A 
ATOM      9  C   LIG    1       -3.042  -2.328  -0.905  0.00  0.00    +0.134 A 
ATOM     10  N   LIG    1       -4.396  -2.241  -0.922  0.00  0.00    -0.220 NA
ENDROOT
BRANCH   6  11
ATOM     11  N   LIG    1        1.331   0.005  -0.444  0.00  0.00    -0.279 N 
ATOM     12  H   LIG    1        1.761   0.855  -0.778  0.00  0.00    +0.155 HD
ATOM     13  C   LIG    1        2.147  -0.922   0.102  0.00  0.00    +0.241 C 
ATOM     14  O   LIG    1        1.758  -1.941   0.679  0.00  0.00    -0.271 OA
BRANCH  13  15
ATOM     15  C   LIG    1        3.545  -0.595  -0.070  0.00  0.00    +0.064 C 
ATOM     16  C   LIG    1        4.540  -1.364   0.422  0.00  0.00    -0.007 C 
BRANCH  16  17
ATOM     17  C   LIG    1        6.038  -1.108   0.289  0.00  0.00    +0.111 C 
BRANCH  17  18
ATOM     18  N   LIG    1        6.469   0.061  -0.484  0.00  0.00    -0.305 NA
ATOM     19  C   LIG    1        7.846   0.411  -0.150  0.00  0.00    +0.104 C 
ATOM     20  C   LIG    1        6.370  -0.194  -1.920  0.00  0.00    +0.104 C 
ENDBRANCH  17  18
ENDBRANCH  16  17
ENDBRANCH  13  15
ENDBRANCH   6  11
BRANCH   9  21
ATOM     21  N   LIG    1       -2.450  -3.598  -1.052  0.00  0.00    -0.299 N 
ATOM     22  H   LIG    1       -1.451  -3.591  -0.910  0.00  0.00    +0.154 HD
BRANCH  21  23
ATOM     23  C   LIG    1       -2.966  -4.876  -1.332  0.00  0.00    +0.034 A 
ATOM     24  C   LIG    1       -2.200  -5.982  -0.949  0.00  0.00    +0.026 A 
ATOM     25  C   LIG    1       -2.645  -7.278  -1.206  0.00  0.00    +0.041 A 
ATOM     26  C   LIG    1       -3.860  -7.484  -1.858  0.00  0.00    +0.142 A 
ATOM     27  F   LIG    1       -4.283  -8.747  -2.101  0.00  0.00    -0.204 F 
ATOM     28  C   LIG    1       -4.628  -6.388  -2.260  0.00  0.00    +0.078 A 
ATOM     29 CL   LIG    1       -6.129  -6.623  -3.082  0.00  0.00    -0.081 Cl
ATOM     30  C   LIG    1       -4.180  -5.091  -2.001  0.00  0.00    +0.046 A 
ENDBRANCH  21  23
ENDBRANCH   9  21
BRANCH   5  31
ATOM     31  O   LIG    1        0.028   2.360  -0.149  0.00  0.00    -0.485 OA
BRANCH  31  32
ATOM     32  C   LIG    1       -0.566   3.593   0.266  0.00  0.00    +0.201 C 
ATOM     33  C   LIG    1        0.552   4.633   0.313  0.00  0.00    +0.204 C 
ATOM     34  O   LIG    1        1.069   4.534   1.632  0.00  0.00    -0.376 OA
ATOM     35  C   LIG    1       -0.023   4.317   2.518  0.00  0.00    +0.163 C 
ATOM     36  C   LIG    1       -1.072   3.553   1.705  0.00  0.00    +0.075 C 
ENDBRANCH  31  32
ENDBRANCH   5  31
TORSDOF 8
