REMARK  Name = DB08329
REMARK                            x       y       z     vdW  Elec       q    Type
REMARK                         _______ _______ _______ _____ _____    ______ ____
ROOT
ATOM      1  C   LIG    1       -2.724  -0.240   0.007  0.00  0.00    +0.051 A 
ATOM      2  C   LIG    1       -2.106   0.920  -0.472  0.00  0.00    +0.026 A 
ATOM      3  C   LIG    1       -0.720   1.043  -0.446  0.00  0.00    +0.030 A 
ATOM      4  C   LIG    1        0.059   0.006   0.067  0.00  0.00    +0.105 A 
ATOM      5  C   LIG    1       -0.546  -1.152   0.557  0.00  0.00    +0.030 A 
ATOM      6  C   LIG    1       -1.933  -1.273   0.527  0.00  0.00    +0.026 A 
ENDROOT
BRANCH   1   7
ATOM      7  N   LIG    1       -4.129  -0.345  -0.026  0.00  0.00    -0.207 N 
ATOM      8  C   LIG    1       -4.837  -1.043   1.056  0.00  0.00    +0.131 C 
ATOM      9  C   LIG    1       -6.276  -0.524   1.253  0.00  0.00    +0.022 C 
ATOM     10  C   LIG    1       -7.166  -0.571   0.003  0.00  0.00    +0.026 C 
ATOM     11  C   LIG    1       -6.612   0.284  -1.140  0.00  0.00    +0.189 C 
ATOM     12  S   LIG    1       -4.909  -0.359  -1.640  0.00  0.00    +0.045 S 
ATOM     13  O   LIG    1       -5.042  -1.742  -2.111  0.00  0.00    -0.155 OA
ATOM     14  O   LIG    1       -4.282   0.618  -2.537  0.00  0.00    -0.155 OA
ENDBRANCH   1   7
BRANCH   4  15
ATOM     15  S   LIG    1        1.839   0.185   0.094  0.00  0.00    +0.056 S 
ATOM     16  O   LIG    1        2.416  -1.081   0.561  0.00  0.00    -0.153 OA
ATOM     17  O   LIG    1        2.125   1.447   0.785  0.00  0.00    -0.153 OA
BRANCH  15  18
ATOM     18  N   LIG    1        2.293   0.390  -1.587  0.00  0.00    -0.204 NA
ATOM     19  H   LIG    1        1.953   1.253  -2.018  0.00  0.00    +0.144 HD
ATOM     20  H   LIG    1        2.146  -0.439  -2.170  0.00  0.00    +0.144 HD
ENDBRANCH  15  18
ENDBRANCH   4  15
TORSDOF 3
