REMARK  Name = DB08934
REMARK                            x       y       z     vdW  Elec       q    Type
REMARK                         _______ _______ _______ _____ _____    ______ ____
ROOT
ATOM      1  O   LIG    1       -0.530  -0.507   2.325  0.00  0.00    -0.284 OA
ENDROOT
BRANCH   1   2
ATOM      2  P   LIG    1       -0.956  -0.048   0.818  0.00  0.00    +0.462 P 
ATOM      3  O   LIG    1       -1.846   1.145   0.768  0.00  0.00    -0.228 OA
BRANCH   2   4
ATOM      4  N   LIG    1        0.531   0.058  -0.006  0.00  0.00    -0.199 NA
ATOM      5  H   LIG    1        0.900  -0.754  -0.502  0.00  0.00    +0.135 HD
BRANCH   4   6
ATOM      6  C   LIG    1        1.299   1.294  -0.131  0.00  0.00    +0.171 C 
ATOM      7  C   LIG    1        2.775   1.096   0.270  0.00  0.00    +0.036 C 
BRANCH   6   8
ATOM      8  C   LIG    1        1.169   1.851  -1.534  0.00  0.00    +0.325 C 
ATOM      9  O   LIG    1        1.945   1.575  -2.453  0.00  0.00    -0.249 OA
BRANCH   8  10
ATOM     10  O   LIG    1        0.101   2.683  -1.635  0.00  0.00    -0.461 OA
BRANCH  10  11
ATOM     11  C   LIG    1       -0.232   3.340  -2.858  0.00  0.00    +0.170 C 
ATOM     12  C   LIG    1       -0.972   2.390  -3.819  0.00  0.00    +0.052 C 
ATOM     13  C   LIG    1       -1.085   4.568  -2.507  0.00  0.00    +0.052 C 
ENDBRANCH  10  11
ENDBRANCH   8  10
ENDBRANCH   6   8
ENDBRANCH   4   6
ENDBRANCH   2   4
BRANCH   2  14
ATOM     14  O   LIG    1       -1.621  -1.415   0.221  0.00  0.00    -0.413 OA
BRANCH  14  15
ATOM     15  C   LIG    1       -1.894  -1.681  -1.099  0.00  0.00    +0.131 A 
ATOM     16  C   LIG    1       -1.828  -3.010  -1.522  0.00  0.00    +0.046 A 
ATOM     17  C   LIG    1       -2.103  -3.337  -2.847  0.00  0.00    +0.004 A 
ATOM     18  C   LIG    1       -2.449  -2.331  -3.747  0.00  0.00    +0.000 A 
ATOM     19  C   LIG    1       -2.527  -1.004  -3.333  0.00  0.00    +0.004 A 
ATOM     20  C   LIG    1       -2.253  -0.678  -2.007  0.00  0.00    +0.046 A 
ENDBRANCH  14  15
ENDBRANCH   2  14
ENDBRANCH   1   2
BRANCH   1  21
ATOM     21  C   LIG    1        0.099   0.394   3.224  0.00  0.00    +0.206 C 
BRANCH  21  22
ATOM     22  C   LIG    1       -0.951   1.154   4.056  0.00  0.00    +0.179 C 
ATOM     23  C   LIG    1       -0.357   2.112   5.095  0.00  0.00    +0.187 C 
ATOM     24  C   LIG    1       -1.354   2.079   6.255  0.00  0.00    +0.182 C 
ATOM     25  C   LIG    1       -1.951   0.661   6.130  0.00  0.00    +0.263 C 
ATOM     26  C   LIG    1       -0.801   2.449   7.648  0.00  0.00    +0.055 C 
ATOM     27  F   LIG    1       -2.341   2.950   6.010  0.00  0.00    -0.235 F 
ATOM     28  O   LIG    1       -1.720   0.226   4.817  0.00  0.00    -0.345 OA
BRANCH  25  29
ATOM     29  N   LIG    1       -1.629  -0.378   7.113  0.00  0.00    -0.271 N 
ATOM     30  C   LIG    1       -2.596  -0.818   7.993  0.00  0.00    +0.098 A 
ATOM     31  C   LIG    1       -2.380  -1.764   8.927  0.00  0.00    +0.088 A 
ATOM     32  C   LIG    1       -1.066  -2.371   9.032  0.00  0.00    +0.254 A 
ATOM     33  N   LIG    1       -0.178  -1.870   8.124  0.00  0.00    -0.275 N 
ATOM     34  H   LIG    1        0.748  -2.269   8.168  0.00  0.00    +0.173 HD
ATOM     35  O   LIG    1       -0.772  -3.243   9.846  0.00  0.00    -0.268 OA
ATOM     36  C   LIG    1       -0.351  -0.909   7.159  0.00  0.00    +0.331 A 
ATOM     37  O   LIG    1        0.598  -0.603   6.439  0.00  0.00    -0.246 OA
ENDBRANCH  25  29
BRANCH  23  38
ATOM     38  O   LIG    1       -0.123   3.408   4.573  0.00  0.00    -0.386 OA
ATOM     39  H   LIG    1       -0.964   3.782   4.299  0.00  0.00    +0.210 HD
ENDBRANCH  23  38
ENDBRANCH  21  22
ENDBRANCH   1  21
TORSDOF 12
