REMARK  Name = DB08633
REMARK                            x       y       z     vdW  Elec       q    Type
REMARK                         _______ _______ _______ _____ _____    ______ ____
ROOT
ATOM      1  C   LIG    1        0.106  -2.357  -0.763  0.00  0.00    +0.207 C 
ATOM      2  C   LIG    1       -0.241  -0.863  -1.040  0.00  0.00    +0.167 C 
ATOM      3  C   LIG    1       -0.126   0.007   0.254  0.00  0.00    +0.090 C 
ATOM      4  C   LIG    1       -1.038  -0.616   1.347  0.00  0.00    +0.101 C 
ATOM      5  C   LIG    1       -2.434  -0.100   1.510  0.00  0.00    +0.196 C 
ATOM      6  O   LIG    1       -1.410   0.189   2.433  0.00  0.00    -0.368 OA
ATOM      7  C   LIG    1       -0.760  -2.109   1.624  0.00  0.00    +0.041 C 
ATOM      8  C   LIG    1       -0.811  -2.947   0.332  0.00  0.00    +0.050 C 
ENDROOT
BRANCH   3   9
ATOM      9  C   LIG    1        1.325   0.366   0.725  0.00  0.00    +0.101 C 
ATOM     10  C   LIG    1        1.398   1.649   1.581  0.00  0.00    +0.045 C 
ATOM     11  C   LIG    1        2.535  -0.077  -0.065  0.00  0.00    +0.155 C 
ATOM     12  O   LIG    1        2.153  -0.700   1.132  0.00  0.00    -0.364 OA
BRANCH  11  13
ATOM     13  C   LIG    1        3.864   0.698  -0.073  0.00  0.00    +0.061 C 
BRANCH  13  14
ATOM     14  C   LIG    1        5.055  -0.201  -0.358  0.00  0.00    -0.026 C 
ATOM     15  C   LIG    1        5.557  -0.524  -1.569  0.00  0.00    -0.080 C 
ATOM     16  C   LIG    1        4.973  -0.055  -2.894  0.00  0.00    +0.038 C 
ATOM     17  C   LIG    1        6.772  -1.425  -1.707  0.00  0.00    +0.038 C 
ENDBRANCH  13  14
ENDBRANCH  11  13
ENDBRANCH   3   9
BRANCH   2  18
ATOM     18  O   LIG    1       -1.569  -0.819  -1.572  0.00  0.00    -0.376 OA
ATOM     19  C   LIG    1       -1.868   0.293  -2.406  0.00  0.00    +0.194 C 
ENDBRANCH   2  18
BRANCH   1  20
ATOM     20  O   LIG    1        0.006  -3.173  -1.936  0.00  0.00    -0.444 OA
BRANCH  20  25
ATOM     21  N   LIG    1        0.708  -3.974  -3.846  0.00  0.00    -0.221 N 
ATOM     22  H   LIG    1       -0.189  -4.427  -3.758  0.00  0.00    +0.161 HD
ATOM     23  C   LIG    1        1.422  -4.257  -4.960  0.00  0.00    +0.236 C 
ATOM     24  O   LIG    1        2.528  -3.785  -5.240  0.00  0.00    -0.274 OA
ATOM     25  C   LIG    1        1.058  -3.152  -2.833  0.00  0.00    +0.407 C 
ATOM     26  O   LIG    1        2.112  -2.512  -2.743  0.00  0.00    -0.226 OA
BRANCH  23  27
ATOM     27  C   LIG    1        0.760  -5.236  -5.935  0.00  0.00    +0.204 C 
ATOM     28 CL   LIG    1        1.881  -6.522  -6.459  0.00  0.00    -0.116 Cl
ENDBRANCH  23  27
ENDBRANCH  20  25
ENDBRANCH   1  20
TORSDOF 7
