REMARK  Name = DB08845
REMARK                            x       y       z     vdW  Elec       q    Type
REMARK                         _______ _______ _______ _____ _____    ______ ____
ROOT
ATOM      1  O   LIG    1       -0.780   1.050   0.111  0.00  0.00    -0.285 OA
ATOM      2  C   LIG    1       -0.063   0.045   0.056  0.00  0.00    +0.240 C 
ENDROOT
BRANCH   2   3
ATOM      3  C   LIG    1       -0.715  -1.321   0.020  0.00  0.00    +0.373 C 
ATOM      4  O   LIG    1       -0.200  -2.192   0.760  0.00  0.00    -0.242 OA
BRANCH   3   5
ATOM      5  O   LIG    1       -1.697  -1.455  -0.747  0.00  0.00    -0.475 OA
ATOM      6  H   LIG    1       -1.997  -0.728  -1.256  0.00  0.00    +0.295 HD
ENDBRANCH   3   5
ENDBRANCH   2   3
BRANCH   2   7
ATOM      7  C   LIG    1        1.468   0.184   0.002  0.00  0.00    +0.098 C 
BRANCH   7   8
ATOM      8  C   LIG    1        2.064  -0.251  -1.364  0.00  0.00    +0.128 C 
BRANCH   8   9
ATOM      9  C   LIG    1        3.592  -0.031  -1.497  0.00  0.00    +0.305 C 
ATOM     10  O   LIG    1        4.090  -0.294  -2.615  0.00  0.00    -0.251 OA
BRANCH   9  11
ATOM     11  O   LIG    1        4.257   0.382  -0.518  0.00  0.00    -0.481 OA
ATOM     12  H   LIG    1        3.830   0.563   0.296  0.00  0.00    +0.295 HD
ENDBRANCH   9  11
ENDBRANCH   8   9
ENDBRANCH   7   8
ENDBRANCH   2   7
TORSDOF 6
