REMARK  Name = DB08911
REMARK                            x       y       z     vdW  Elec       q    Type
REMARK                         _______ _______ _______ _____ _____    ______ ____
ROOT
ATOM      1  C   LIG    1       -0.712  -1.047  -0.476  0.00  0.00    +0.075 A 
ATOM      2  N   LIG    1       -0.051   0.175  -0.577  0.00  0.00    -0.261 N 
ATOM      3  C   LIG    1       -0.761   1.345  -0.736  0.00  0.00    +0.337 A 
ATOM      4  O   LIG    1       -0.308   2.316  -1.352  0.00  0.00    -0.246 OA
ATOM      5  N   LIG    1       -2.017   1.329  -0.154  0.00  0.00    -0.257 N 
ATOM      6  C   LIG    1       -2.727   0.235   0.294  0.00  0.00    +0.268 A 
ATOM      7  O   LIG    1       -3.755   0.324   0.973  0.00  0.00    -0.267 OA
ATOM      8  C   LIG    1       -2.124  -1.051  -0.076  0.00  0.00    +0.102 A 
ATOM      9  C   LIG    1       -2.800  -2.240  -0.107  0.00  0.00    +0.120 A 
ATOM     10  N   LIG    1       -2.184  -3.459  -0.394  0.00  0.00    -0.299 N 
ATOM     11  C   LIG    1       -2.884  -4.770  -0.339  0.00  0.00    +0.154 C 
ATOM     12  C   LIG    1       -0.841  -3.527  -0.708  0.00  0.00    +0.257 A 
ATOM     13  O   LIG    1       -0.239  -4.595  -0.872  0.00  0.00    -0.267 OA
ATOM     14  C   LIG    1       -0.130  -2.241  -0.827  0.00  0.00    +0.039 A 
ATOM     15  C   LIG    1        1.255  -2.358  -1.489  0.00  0.00    +0.051 C 
ENDROOT
BRANCH   2  16
ATOM     16  C   LIG    1        1.295   0.306  -0.134  0.00  0.00    +0.053 A 
ATOM     17  C   LIG    1        1.652  -0.155   1.141  0.00  0.00    +0.026 A 
ATOM     18  C   LIG    1        2.966  -0.042   1.587  0.00  0.00    +0.004 A 
ATOM     19  C   LIG    1        3.936   0.530   0.767  0.00  0.00    +0.023 A 
ATOM     20  C   LIG    1        3.608   0.994  -0.510  0.00  0.00    +0.035 A 
ATOM     21  C   LIG    1        2.280   0.880  -0.956  0.00  0.00    +0.049 A 
BRANCH  20  22
ATOM     22  N   LIG    1        4.669   1.546  -1.255  0.00  0.00    -0.286 N 
ATOM     23  H   LIG    1        5.552   1.559  -0.766  0.00  0.00    +0.155 HD
ATOM     24  C   LIG    1        4.681   2.046  -2.509  0.00  0.00    +0.214 C 
ATOM     25  O   LIG    1        3.714   2.112  -3.267  0.00  0.00    -0.276 OA
ATOM     26  C   LIG    1        6.031   2.562  -2.997  0.00  0.00    +0.109 C 
ENDBRANCH  20  22
ENDBRANCH   2  16
BRANCH   5  27
ATOM     27  C   LIG    1       -2.680   2.654   0.004  0.00  0.00    +0.095 C 
ATOM     28  C   LIG    1       -3.077   3.167   1.385  0.00  0.00    +0.027 C 
ATOM     29  C   LIG    1       -1.950   3.828   0.653  0.00  0.00    +0.027 C 
ENDBRANCH   5  27
BRANCH   9  30
ATOM     30  N   LIG    1       -4.161  -2.401   0.146  0.00  0.00    -0.298 N 
ATOM     31  H   LIG    1       -4.447  -3.194   0.702  0.00  0.00    +0.154 HD
BRANCH  30  32
ATOM     32  C   LIG    1       -5.237  -1.837  -0.564  0.00  0.00    +0.068 A 
ATOM     33  C   LIG    1       -6.522  -1.884  -0.005  0.00  0.00    +0.145 A 
ATOM     34  F   LIG    1       -6.731  -2.474   1.197  0.00  0.00    -0.204 F 
ATOM     35  C   LIG    1       -7.605  -1.321  -0.681  0.00  0.00    +0.054 A 
ATOM     36  C   LIG    1       -7.416  -0.705  -1.918  0.00  0.00    +0.016 A 
ATOM     37  I   LIG    1       -9.040   0.142  -2.926  0.00  0.00    -0.044 I 
ATOM     38  C   LIG    1       -6.142  -0.654  -2.482  0.00  0.00    +0.016 A 
ATOM     39  C   LIG    1       -5.058  -1.218  -1.811  0.00  0.00    +0.027 A 
ENDBRANCH  30  32
ENDBRANCH   9  30
TORSDOF 5
