REMARK  Name = DB08841
REMARK                            x       y       z     vdW  Elec       q    Type
REMARK                         _______ _______ _______ _____ _____    ______ ____
ROOT
ATOM      1  C   LIG    1        2.018  -1.462  -0.001  0.00  0.00    -0.049 A 
ATOM      2  C   LIG    1        2.256  -2.118  -1.212  0.00  0.00    +0.007 A 
ATOM      3  C   LIG    1        2.734  -3.426  -1.213  0.00  0.00    +0.045 A 
ATOM      4  C   LIG    1        2.973  -4.075  -0.003  0.00  0.00    +0.117 A 
ATOM      5  C   LIG    1        2.737  -3.426   1.208  0.00  0.00    +0.045 A 
ATOM      6  C   LIG    1        2.259  -2.118   1.209  0.00  0.00    +0.007 A 
ENDROOT
BRANCH   4   7
ATOM      7  O   LIG    1        3.441  -5.362  -0.002  0.00  0.00    -0.507 OA
ATOM      8  H   LIG    1        3.572  -5.715  -0.885  0.00  0.00    +0.292 HD
ENDBRANCH   4   7
BRANCH   1   9
ATOM      9  C   LIG    1        1.491  -0.035  -0.001  0.00  0.00    +0.015 C 
BRANCH   9  10
ATOM     10  C   LIG    1       -0.048   0.011   0.000  0.00  0.00    -0.082 C 
BRANCH  10  11
ATOM     11  N   LIG    1       -0.534   1.465   0.002  0.00  0.00    +0.378 N 
ATOM     12  H   LIG    1       -0.194   1.944   0.823  0.00  0.00    -0.090 HD
ATOM     13  H   LIG    1       -0.195   1.946  -0.819  0.00  0.00    -0.090 HD
ATOM     14  H   LIG    1       -1.544   1.494   0.002  0.00  0.00    -0.090 HD
ENDBRANCH  10  11
ENDBRANCH   9  10
ENDBRANCH   1   9
TORSDOF 4
