REMARK  Name = DB08962
REMARK                            x       y       z     vdW  Elec       q    Type
REMARK                         _______ _______ _______ _____ _____    ______ ____
ROOT
ATOM      1  N   LIG    1       -2.175   1.077   0.318  0.00  0.00    -0.169 N 
ATOM      2  H   LIG    1       -2.590   0.196   0.174  0.00  0.00    +0.178 HD
ATOM      3  C   LIG    1       -0.879   1.162   0.475  0.00  0.00    +0.319 C 
ATOM      4  O   LIG    1       -0.254   2.219   0.624  0.00  0.00    -0.251 OA
ATOM      5  N   LIG    1       -0.188   0.014   0.369  0.00  0.00    -0.293 N 
ATOM      6  H   LIG    1       -0.613  -0.802   0.784  0.00  0.00    +0.151 HD
ENDROOT
BRANCH   5   7
ATOM      7  C   LIG    1        1.264  -0.098   0.156  0.00  0.00    +0.107 C 
ATOM      8  C   LIG    1        1.750  -1.528  -0.243  0.00  0.00    +0.141 C 
ATOM      9  C   LIG    1        2.836  -1.826   0.846  0.00  0.00    +0.001 C 
ATOM     10  C   LIG    1        3.800  -2.965   0.456  0.00  0.00    +0.014 C 
ATOM     11  C   LIG    1        3.505  -0.435   1.076  0.00  0.00    -0.023 C 
ATOM     12  C   LIG    1        4.557  -0.370   2.230  0.00  0.00    +0.012 C 
ATOM     13  C   LIG    1        4.222   0.192  -0.161  0.00  0.00    +0.012 C 
ATOM     14  C   LIG    1        2.109  -2.079   2.204  0.00  0.00    +0.010 C 
ATOM     15  C   LIG    1        1.635  -0.668   2.610  0.00  0.00    +0.006 C 
ATOM     16  C   LIG    1        2.132   0.198   1.421  0.00  0.00    +0.018 C 
BRANCH   8  17
ATOM     17  O   LIG    1        0.748  -2.527  -0.369  0.00  0.00    -0.389 OA
ATOM     18  H   LIG    1        0.314  -2.417  -1.219  0.00  0.00    +0.210 HD
ENDBRANCH   8  17
ENDBRANCH   5   7
BRANCH   1  19
ATOM     19  S   LIG    1       -3.078   2.363   0.355  0.00  0.00    +0.076 S 
ATOM     20  O   LIG    1       -2.901   3.250  -0.801  0.00  0.00    -0.150 OA
ATOM     21  O   LIG    1       -3.177   2.983   1.683  0.00  0.00    -0.150 OA
BRANCH  19  22
ATOM     22  C   LIG    1       -4.673   1.577   0.094  0.00  0.00    +0.109 A 
ATOM     23  C   LIG    1       -5.403   1.103   1.188  0.00  0.00    +0.029 A 
ATOM     24  C   LIG    1       -6.625   0.467   0.983  0.00  0.00    +0.005 A 
ATOM     25  C   LIG    1       -7.114   0.297  -0.313  0.00  0.00    -0.050 A 
ATOM     26  C   LIG    1       -8.442  -0.407  -0.529  0.00  0.00    +0.044 C 
ATOM     27  C   LIG    1       -6.377   0.755  -1.407  0.00  0.00    +0.005 A 
ATOM     28  C   LIG    1       -5.155   1.391  -1.204  0.00  0.00    +0.029 A 
ENDBRANCH  19  22
ENDBRANCH   1  19
TORSDOF 4
