REMARK  Name = DB08816
REMARK                            x       y       z     vdW  Elec       q    Type
REMARK                         _______ _______ _______ _____ _____    ______ ____
ROOT
ATOM      1  N   LIG    1        0.054  -0.108  -0.285  0.00  0.00    -0.221 N 
ATOM      2  N   LIG    1       -0.560   0.999  -0.762  0.00  0.00    -0.063 NA
ATOM      3  N   LIG    1       -1.922   0.783  -0.786  0.00  0.00    -0.124 NA
ATOM      4  C   LIG    1       -2.138  -0.478  -0.312  0.00  0.00    +0.171 A 
ATOM      5  C   LIG    1       -3.290  -1.252  -0.091  0.00  0.00    +0.153 A 
ATOM      6  N   LIG    1       -3.161  -2.514   0.411  0.00  0.00    -0.205 NA
ATOM      7  C   LIG    1       -1.910  -2.975   0.679  0.00  0.00    +0.192 A 
ATOM      8  N   LIG    1       -0.736  -2.304   0.506  0.00  0.00    -0.201 NA
ATOM      9  C   LIG    1       -0.896  -1.070   0.013  0.00  0.00    +0.185 A 
ENDROOT
BRANCH   1  10
ATOM     10  C   LIG    1        1.511  -0.161  -0.129  0.00  0.00    +0.145 C 
ATOM     11  C   LIG    1        2.280   0.082  -1.435  0.00  0.00    +0.170 C 
ATOM     12  C   LIG    1        3.711   0.386  -0.953  0.00  0.00    +0.174 C 
ATOM     13  C   LIG    1        3.519   1.187   0.361  0.00  0.00    +0.151 C 
ATOM     14  C   LIG    1        2.081   0.890   0.842  0.00  0.00    +0.064 C 
BRANCH  11  15
ATOM     15  O   LIG    1        2.175  -0.952  -2.398  0.00  0.00    -0.387 OA
ATOM     16  H   LIG    1        2.496  -0.620  -3.240  0.00  0.00    +0.210 HD
ENDBRANCH  11  15
BRANCH  12  17
ATOM     17  O   LIG    1        4.515  -0.766  -0.757  0.00  0.00    -0.387 OA
ATOM     18  H   LIG    1        4.760  -1.118  -1.615  0.00  0.00    +0.210 HD
ENDBRANCH  12  17
BRANCH  13  19
ATOM     19  O   LIG    1        3.635   2.583   0.089  0.00  0.00    -0.372 OA
BRANCH  19  20
ATOM     20  C   LIG    1        4.967   3.087   0.054  0.00  0.00    +0.188 C 
BRANCH  20  21
ATOM     21  C   LIG    1        4.949   4.568  -0.352  0.00  0.00    +0.184 C 
BRANCH  21  22
ATOM     22  O   LIG    1        4.575   4.712  -1.708  0.00  0.00    -0.393 OA
ATOM     23  H   LIG    1        4.537   5.648  -1.917  0.00  0.00    +0.209 HD
ENDBRANCH  21  22
ENDBRANCH  20  21
ENDBRANCH  19  20
ENDBRANCH  13  19
ENDBRANCH   1  10
BRANCH   5  24
ATOM     24  N   LIG    1       -4.563  -0.725  -0.374  0.00  0.00    -0.324 N 
ATOM     25  H   LIG    1       -4.621   0.149  -0.876  0.00  0.00    +0.148 HD
BRANCH  24  26
ATOM     26  C   LIG    1       -5.756  -1.557  -0.274  0.00  0.00    +0.080 C 
ATOM     27  C   LIG    1       -7.036  -0.984   0.279  0.00  0.00    +0.032 C 
ATOM     28  C   LIG    1       -6.206  -1.934   1.125  0.00  0.00    +0.041 C 
BRANCH  28  29
ATOM     29  C   LIG    1       -6.710  -3.329   1.482  0.00  0.00    -0.040 A 
ATOM     30  C   LIG    1       -7.428  -4.107   0.565  0.00  0.00    +0.007 A 
ATOM     31  C   LIG    1       -7.860  -5.388   0.913  0.00  0.00    +0.041 A 
ATOM     32  C   LIG    1       -7.577  -5.901   2.178  0.00  0.00    +0.158 A 
ATOM     33  F   LIG    1       -7.997  -7.143   2.511  0.00  0.00    -0.202 F 
ATOM     34  C   LIG    1       -6.862  -5.133   3.097  0.00  0.00    +0.159 A 
ATOM     35  F   LIG    1       -6.583  -5.627   4.325  0.00  0.00    -0.202 F 
ATOM     36  C   LIG    1       -6.430  -3.852   2.749  0.00  0.00    +0.045 A 
ENDBRANCH  28  29
ENDBRANCH  24  26
ENDBRANCH   5  24
BRANCH   7  37
ATOM     37  S   LIG    1       -1.830  -4.621   1.317  0.00  0.00    -0.086 S 
BRANCH  37  38
ATOM     38  C   LIG    1       -0.075  -5.042   1.551  0.00  0.00    +0.077 C 
BRANCH  38  39
ATOM     39  C   LIG    1        0.202  -6.460   2.079  0.00  0.00    +0.008 C 
ATOM     40  C   LIG    1       -0.245  -7.580   1.127  0.00  0.00    +0.004 C 
ENDBRANCH  38  39
ENDBRANCH  37  38
ENDBRANCH   7  37
TORSDOF 13
