REMARK  Name = DB08880
REMARK                            x       y       z     vdW  Elec       q    Type
REMARK                         _______ _______ _______ _____ _____    ______ ____
ROOT
ATOM      1  C   LIG    1        1.495   0.098  -0.067  0.00  0.00    +0.262 C 
ATOM      2  O   LIG    1        2.093   1.159  -0.250  0.00  0.00    -0.269 OA
ATOM      3  N   LIG    1        2.124  -1.096   0.063  0.00  0.00    -0.281 N 
ATOM      4  H   LIG    1        1.523  -1.892   0.221  0.00  0.00    +0.155 HD
ENDROOT
BRANCH   3   5
ATOM      5  C   LIG    1        3.495  -1.419   0.024  0.00  0.00    +0.034 A 
ATOM      6  C   LIG    1        4.536  -0.506  -0.210  0.00  0.00    +0.024 A 
ATOM      7  C   LIG    1        5.857  -0.944  -0.228  0.00  0.00    +0.014 A 
ATOM      8  C   LIG    1        6.159  -2.294  -0.018  0.00  0.00    +0.055 A 
ATOM      9  C   LIG    1        5.122  -3.201   0.215  0.00  0.00    +0.014 A 
ATOM     10  C   LIG    1        3.800  -2.766   0.234  0.00  0.00    +0.024 A 
BRANCH   8  11
ATOM     11  C   LIG    1        7.607  -2.781  -0.026  0.00  0.00    +0.417 C 
ATOM     12  F   LIG    1        7.875  -3.328  -1.211  0.00  0.00    -0.166 F 
ATOM     13  F   LIG    1        7.804  -3.700   0.921  0.00  0.00    -0.166 F 
ATOM     14  F   LIG    1        8.471  -1.786   0.184  0.00  0.00    -0.166 F 
ENDBRANCH   8  11
ENDBRANCH   3   5
BRANCH   1  17
ATOM     15  C   LIG    1       -2.288   1.100   0.015  0.00  0.00    +0.087 C 
ATOM     16  C   LIG    1       -0.767   1.117  -0.076  0.00  0.00    +0.113 C 
ATOM     17  C   LIG    1        0.034   0.021   0.029  0.00  0.00    +0.150 C 
BRANCH  16  18
ATOM     18  O   LIG    1       -0.366   2.404  -0.277  0.00  0.00    -0.510 OA
ATOM     19  H   LIG    1       -1.134   2.979  -0.312  0.00  0.00    +0.292 HD
ENDBRANCH  16  18
BRANCH  17  20
ATOM     20  C   LIG    1       -0.553  -1.271   0.243  0.00  0.00    +0.108 C 
ATOM     21  N   LIG    1       -1.008  -2.322   0.414  0.00  0.00    -0.191 NA
ENDBRANCH  17  20
ENDBRANCH   1  17
TORSDOF 5
