REMARK  Name = DB08877
REMARK                            x       y       z     vdW  Elec       q    Type
REMARK                         _______ _______ _______ _____ _____    ______ ____
ROOT
ATOM      1  C   LIG    1       -2.088  -0.634  -0.079  0.00  0.00    +0.039 A 
ATOM      2  C   LIG    1       -0.797  -1.130   0.063  0.00  0.00    +0.118 A 
ATOM      3  N   LIG    1        0.061  -0.071  -0.094  0.00  0.00    -0.267 N 
ATOM      4  N   LIG    1       -0.595   1.076  -0.304  0.00  0.00    -0.179 NA
ATOM      5  C   LIG    1       -1.864   0.736  -0.306  0.00  0.00    +0.144 A 
ENDROOT
BRANCH   1   8
ATOM      6  C   LIG    1       -5.228   0.521  -0.007  0.00  0.00    +0.031 A 
ATOM      7  C   LIG    1       -4.659  -0.799   0.013  0.00  0.00    +0.045 A 
ATOM      8  C   LIG    1       -3.376  -1.393  -0.010  0.00  0.00    +0.086 A 
ATOM      9  N   LIG    1       -3.244  -2.749   0.040  0.00  0.00    -0.235 NA
ATOM     10  C   LIG    1       -4.380  -3.489   0.099  0.00  0.00    +0.224 A 
ATOM     11  N   LIG    1       -5.663  -3.044   0.121  0.00  0.00    -0.218 NA
ATOM     12  C   LIG    1       -5.756  -1.711   0.078  0.00  0.00    +0.142 A 
ATOM     13  N   LIG    1       -6.916  -0.968   0.090  0.00  0.00    -0.346 N 
ATOM     14  H   LIG    1       -7.866  -1.307   0.132  0.00  0.00    +0.167 HD
ATOM     15  C   LIG    1       -6.602   0.368   0.039  0.00  0.00    +0.085 A 
ENDBRANCH   1   8
BRANCH   3  16
ATOM     16  C   LIG    1        1.527  -0.069  -0.001  0.00  0.00    +0.124 C 
BRANCH  16  17
ATOM     17  C   LIG    1        1.975  -0.185   1.484  0.00  0.00    +0.015 C 
ATOM     18  C   LIG    1        3.508  -0.076   1.678  0.00  0.00    +0.005 C 
ATOM     19  C   LIG    1        3.754   1.049   2.690  0.00  0.00    +0.000 C 
ATOM     20  C   LIG    1        2.451   1.156   3.474  0.00  0.00    +0.000 C 
ATOM     21  C   LIG    1        1.378   0.890   2.421  0.00  0.00    +0.005 C 
ENDBRANCH  16  17
BRANCH  16  22
ATOM     22  C   LIG    1        2.108  -1.194  -0.891  0.00  0.00    +0.145 C 
BRANCH  22  23
ATOM     23  C   LIG    1        1.699  -1.117  -2.304  0.00  0.00    +0.065 C 
ATOM     24  N   LIG    1        1.377  -1.056  -3.413  0.00  0.00    -0.196 NA
ENDBRANCH  22  23
ENDBRANCH  16  22
ENDBRANCH   3  16
TORSDOF 5
