REMARK  Name = DB08188
REMARK                            x       y       z     vdW  Elec       q    Type
REMARK                         _______ _______ _______ _____ _____    ______ ____
ROOT
ATOM      1  C   LIG    1       -0.607   0.648   0.144  0.00  0.00    +0.039 A 
ATOM      2  C   LIG    1       -1.956   0.890   0.170  0.00  0.00    +0.039 A 
ATOM      3  C   LIG    1       -2.875  -0.254   0.209  0.00  0.00    +0.258 A 
ATOM      4  O   LIG    1       -4.104  -0.202   0.224  0.00  0.00    -0.267 OA
ATOM      5  N   LIG    1       -2.252  -1.459   0.204  0.00  0.00    -0.275 N 
ATOM      6  H   LIG    1       -2.871  -2.257   0.211  0.00  0.00    +0.173 HD
ATOM      7  C   LIG    1       -0.926  -1.763   0.195  0.00  0.00    +0.331 A 
ATOM      8  O   LIG    1       -0.574  -2.945   0.189  0.00  0.00    -0.246 OA
ATOM      9  N   LIG    1       -0.102  -0.657   0.211  0.00  0.00    -0.273 N 
ENDROOT
BRANCH   2  10
ATOM     10  C   LIG    1       -2.599   2.300   0.147  0.00  0.00    +0.020 C 
ATOM     11  C   LIG    1       -3.306   2.622  -1.185  0.00  0.00    +0.012 C 
ATOM     12  C   LIG    1       -3.503   2.618   1.360  0.00  0.00    +0.012 C 
ENDBRANCH   2  10
BRANCH   1  13
ATOM     13  C   LIG    1        0.427   1.778  -0.056  0.00  0.00    +0.089 C 
BRANCH  13  14
ATOM     14  C   LIG    1        1.022   2.385   1.216  0.00  0.00    -0.042 A 
ATOM     15  C   LIG    1        0.339   2.346   2.438  0.00  0.00    +0.004 A 
ATOM     16  C   LIG    1        0.909   2.910   3.576  0.00  0.00    +0.000 A 
ATOM     17  C   LIG    1        2.163   3.512   3.494  0.00  0.00    +0.000 A 
ATOM     18  C   LIG    1        2.851   3.555   2.285  0.00  0.00    +0.000 A 
ATOM     19  C   LIG    1        2.280   2.993   1.146  0.00  0.00    +0.004 A 
ENDBRANCH  13  14
ENDBRANCH   1  13
BRANCH   9  20
ATOM     20  C   LIG    1        1.319  -0.945   0.375  0.00  0.00    +0.289 C 
BRANCH  20  21
ATOM     21  O   LIG    1        1.847  -1.254  -0.879  0.00  0.00    -0.359 OA
BRANCH  21  22
ATOM     22  C   LIG    1        3.220  -1.619  -0.856  0.00  0.00    +0.159 C 
ATOM     23  C   LIG    1        3.677  -1.907  -2.288  0.00  0.00    +0.034 C 
ENDBRANCH  21  22
ENDBRANCH  20  21
ENDBRANCH   9  20
TORSDOF 6
