REMARK  Name = DB08956
REMARK                            x       y       z     vdW  Elec       q    Type
REMARK                         _______ _______ _______ _____ _____    ______ ____
ROOT
ATOM      1  C   LIG    1       -2.606  -3.762   4.502  0.00  0.00    +0.012 C 
ATOM      2  C   LIG    1       -3.414  -2.452   4.256  0.00  0.00    -0.025 C 
ATOM      3  C   LIG    1       -2.713  -1.523   3.186  0.00  0.00    -0.001 C 
ATOM      4  C   LIG    1       -2.647  -2.201   1.772  0.00  0.00    -0.004 C 
ATOM      5  C   LIG    1       -1.945  -1.248   0.767  0.00  0.00    -0.001 C 
ATOM      6  C   LIG    1       -0.507  -0.873   1.204  0.00  0.00    -0.019 C 
ATOM      7  C   LIG    1       -0.128   0.004  -0.029  0.00  0.00    +0.064 C 
ATOM      8  C   LIG    1       -0.684  -0.771  -1.255  0.00  0.00    +0.012 C 
ATOM      9  C   LIG    1       -0.640  -0.097   2.542  0.00  0.00    +0.008 C 
ATOM     10  C   LIG    1        0.438  -2.110   1.368  0.00  0.00    +0.012 C 
ATOM     11  C   LIG    1       -1.828  -1.649  -0.710  0.00  0.00    +0.005 C 
ATOM     12  C   LIG    1       -4.072  -2.586   1.300  0.00  0.00    +0.004 C 
ATOM     13  C   LIG    1       -4.806  -3.466   2.331  0.00  0.00    +0.005 C 
ATOM     14  C   LIG    1       -1.331  -0.949   3.636  0.00  0.00    +0.005 C 
ATOM     15  C   LIG    1       -4.854  -2.812   3.739  0.00  0.00    +0.002 C 
ATOM     16  C   LIG    1       -5.844  -1.605   3.760  0.00  0.00    +0.078 C 
ATOM     17  C   LIG    1       -5.822  -0.790   5.063  0.00  0.00    +0.134 C 
ATOM     18  O   LIG    1       -6.849  -0.439   5.640  0.00  0.00    -0.297 OA
ATOM     19  C   LIG    1       -4.424  -0.486   5.612  0.00  0.00    +0.075 C 
ATOM     20  C   LIG    1       -3.584  -1.775   5.649  0.00  0.00    +0.015 C 
ENDROOT
BRANCH   7  21
ATOM     21  C   LIG    1        1.377   0.344  -0.139  0.00  0.00    +0.162 C 
ATOM     22  O   LIG    1        2.159  -0.374  -0.769  0.00  0.00    -0.295 OA
BRANCH  21  23
ATOM     23  C   LIG    1        1.826   1.649   0.542  0.00  0.00    +0.230 C 
BRANCH  23  24
ATOM     24  O   LIG    1        3.215   1.858   0.359  0.00  0.00    -0.388 OA
ATOM     25  H   LIG    1        3.465   2.672   0.804  0.00  0.00    +0.210 HD
ENDBRANCH  23  24
ENDBRANCH  21  23
ENDBRANCH   7  21
TORSDOF 3
