REMARK  Name = DB08875
REMARK                            x       y       z     vdW  Elec       q    Type
REMARK                         _______ _______ _______ _____ _____    ______ ____
ROOT
ATOM      1  C   LIG    1        1.604  -0.716  -1.069  0.00  0.00    +0.129 A 
ATOM      2  C   LIG    1        0.947  -0.807  -2.305  0.00  0.00    +0.048 A 
ATOM      3  C   LIG    1        1.618  -1.292  -3.423  0.00  0.00    +0.027 A 
ATOM      4  C   LIG    1        2.958  -1.692  -3.316  0.00  0.00    +0.034 A 
ATOM      5  C   LIG    1        3.619  -1.581  -2.091  0.00  0.00    +0.027 A 
ATOM      6  C   LIG    1        2.942  -1.099  -0.975  0.00  0.00    +0.048 A 
ENDROOT
BRANCH   4   7
ATOM      7  N   LIG    1        3.715  -2.157  -4.404  0.00  0.00    -0.285 N 
ATOM      8  H   LIG    1        4.713  -2.030  -4.315  0.00  0.00    +0.155 HD
ATOM      9  C   LIG    1        3.286  -2.841  -5.490  0.00  0.00    +0.232 C 
ATOM     10  O   LIG    1        2.118  -3.211  -5.637  0.00  0.00    -0.274 OA
BRANCH   9  11
ATOM     11  C   LIG    1        4.347  -3.170  -6.577  0.00  0.00    +0.123 C 
ATOM     12  C   LIG    1        3.824  -3.305  -8.006  0.00  0.00    +0.027 C 
ATOM     13  C   LIG    1        4.187  -4.543  -7.221  0.00  0.00    +0.027 C 
BRANCH  11  14
ATOM     14  C   LIG    1        5.821  -2.731  -6.431  0.00  0.00    +0.232 C 
ATOM     15  O   LIG    1        6.522  -3.273  -5.575  0.00  0.00    -0.274 OA
ATOM     16  N   LIG    1        6.209  -1.689  -7.199  0.00  0.00    -0.285 N 
ATOM     17  H   LIG    1        5.490  -1.261  -7.764  0.00  0.00    +0.155 HD
BRANCH  16  18
ATOM     18  C   LIG    1        7.464  -1.058  -7.279  0.00  0.00    +0.034 A 
ATOM     19  C   LIG    1        8.664  -1.617  -6.810  0.00  0.00    +0.026 A 
ATOM     20  C   LIG    1        9.859  -0.915  -6.949  0.00  0.00    +0.040 A 
ATOM     21  C   LIG    1        9.861   0.337  -7.558  0.00  0.00    +0.124 A 
ATOM     22  F   LIG    1       11.023   1.016  -7.691  0.00  0.00    -0.205 F 
ATOM     23  C   LIG    1        8.678   0.893  -8.037  0.00  0.00    +0.040 A 
ATOM     24  C   LIG    1        7.481   0.194  -7.901  0.00  0.00    +0.026 A 
ENDBRANCH  16  18
ENDBRANCH  11  14
ENDBRANCH   9  11
ENDBRANCH   4   7
BRANCH   1  25
ATOM     25  O   LIG    1        1.011  -0.219   0.074  0.00  0.00    -0.455 OA
BRANCH  25  34
ATOM     26  C   LIG    1       -2.422   1.174   0.307  0.00  0.00    +0.078 A 
ATOM     27  C   LIG    1       -3.088   2.420   0.317  0.00  0.00    +0.077 A 
ATOM     28  C   LIG    1       -2.371   3.622   0.209  0.00  0.00    +0.164 A 
ATOM     29  C   LIG    1       -0.975   3.595   0.092  0.00  0.00    +0.162 A 
ATOM     30  C   LIG    1       -0.297   2.366   0.085  0.00  0.00    +0.063 A 
ATOM     31  N   LIG    1       -3.164   0.035   0.409  0.00  0.00    -0.255 NA
ATOM     32  C   LIG    1       -2.519  -1.157   0.398  0.00  0.00    +0.115 A 
ATOM     33  C   LIG    1       -1.138  -1.281   0.287  0.00  0.00    +0.066 A 
ATOM     34  C   LIG    1       -0.359  -0.127   0.177  0.00  0.00    +0.139 A 
ATOM     35  C   LIG    1       -1.002   1.143   0.190  0.00  0.00    +0.046 A 
BRANCH  28  36
ATOM     36  O   LIG    1       -2.973   4.869   0.210  0.00  0.00    -0.491 OA
ATOM     37  C   LIG    1       -4.388   4.968   0.321  0.00  0.00    +0.277 C 
ENDBRANCH  28  36
BRANCH  29  38
ATOM     38  O   LIG    1       -0.334   4.817  -0.014  0.00  0.00    -0.491 OA
ATOM     39  C   LIG    1        1.084   4.860  -0.145  0.00  0.00    +0.277 C 
ENDBRANCH  29  38
ENDBRANCH  25  34
ENDBRANCH   1  25
TORSDOF 8
