REMARK  Name = DB08892
REMARK                            x       y       z     vdW  Elec       q    Type
REMARK                         _______ _______ _______ _____ _____    ______ ____
ROOT
ATOM      1  C   LIG    1        2.715   0.047   0.862  0.00  0.00    +0.403 C 
ATOM      2  N   LIG    1        4.056  -0.240   0.654  0.00  0.00    -0.280 N 
ATOM      3  H   LIG    1        4.327  -0.658  -0.224  0.00  0.00    +0.152 HD
ATOM      4  O   LIG    1        2.233   0.554   1.879  0.00  0.00    -0.226 OA
ENDROOT
BRANCH   1   5
ATOM      5  O   LIG    1        2.024  -0.278  -0.265  0.00  0.00    -0.410 OA
BRANCH   5   6
ATOM      6  C   LIG    1        0.673   0.123  -0.346  0.00  0.00    +0.374 C 
BRANCH   6   8
ATOM      7  C   LIG    1       -0.840   2.120  -0.831  0.00  0.00    +0.015 C 
ATOM      8  C   LIG    1        0.604   1.581  -0.868  0.00  0.00    +0.065 C 
ATOM      9  C   LIG    1        1.242   1.751  -2.264  0.00  0.00    +0.015 C 
ENDBRANCH   6   8
BRANCH   6  10
ATOM     10  O   LIG    1       -0.046  -0.690  -1.238  0.00  0.00    -0.424 OA
BRANCH  10  11
ATOM     11  C   LIG    1       -0.412  -1.930  -0.800  0.00  0.00    +0.313 C 
ATOM     12  O   LIG    1       -0.194  -2.406   0.318  0.00  0.00    -0.250 OA
BRANCH  11  13
ATOM     13  C   LIG    1       -1.176  -2.710  -1.886  0.00  0.00    +0.092 C 
ATOM     14  C   LIG    1       -0.207  -3.234  -2.965  0.00  0.00    +0.019 C 
ATOM     15  C   LIG    1       -2.039  -3.854  -1.312  0.00  0.00    +0.019 C 
ENDBRANCH  11  13
ENDBRANCH  10  11
ENDBRANCH   6  10
ENDBRANCH   5   6
ENDBRANCH   1   5
BRANCH   2  16
ATOM     16  C   LIG    1        5.113   0.182   1.577  0.00  0.00    +0.116 C 
BRANCH  16  17
ATOM     17  C   LIG    1        5.825   1.496   1.155  0.00  0.00    +0.047 C 
BRANCH  17  18
ATOM     18  C   LIG    1        4.832   2.642   0.904  0.00  0.00    -0.042 A 
ATOM     19  C   LIG    1        4.179   3.262   1.974  0.00  0.00    +0.005 A 
ATOM     20  C   LIG    1        3.241   4.263   1.736  0.00  0.00    +0.020 A 
ATOM     21  C   LIG    1        2.958   4.648   0.426  0.00  0.00    +0.041 A 
ATOM     22 CL   LIG    1        1.779   5.872   0.128  0.00  0.00    -0.084 Cl
ATOM     23  C   LIG    1        3.614   4.046  -0.645  0.00  0.00    +0.020 A 
ATOM     24  C   LIG    1        4.550   3.044  -0.407  0.00  0.00    +0.005 A 
ENDBRANCH  17  18
BRANCH  17  25
ATOM     25  C   LIG    1        6.971   1.857   2.153  0.00  0.00    +0.130 C 
BRANCH  25  26
ATOM     26  C   LIG    1        7.830   3.085   1.761  0.00  0.00    +0.305 C 
ATOM     27  O   LIG    1        8.285   3.777   2.700  0.00  0.00    -0.251 OA
BRANCH  26  28
ATOM     28  O   LIG    1        8.067   3.302   0.550  0.00  0.00    -0.481 OA
ATOM     29  H   LIG    1        7.696   2.746  -0.107  0.00  0.00    +0.295 HD
ENDBRANCH  26  28
ENDBRANCH  25  26
ENDBRANCH  17  25
ENDBRANCH  16  17
ENDBRANCH   2  16
TORSDOF 12
