REMARK  Name = DB08873
REMARK                            x       y       z     vdW  Elec       q    Type
REMARK                         _______ _______ _______ _____ _____    ______ ____
ROOT
ATOM      1  C   LIG    1       -0.115   0.131  -0.016  0.00  0.00    +0.166 C 
ATOM      2  C   LIG    1       -0.778  -0.663  -1.160  0.00  0.00    +0.030 C 
ATOM      3  C   LIG    1       -1.405   0.344  -2.092  0.00  0.00    +0.018 C 
ATOM      4  C   LIG    1       -1.081   1.743  -1.536  0.00  0.00    +0.113 C 
ATOM      5  C   LIG    1       -2.297  -0.639  -1.351  0.00  0.00    -0.025 C 
ATOM      6  C   LIG    1       -3.252  -0.169  -0.227  0.00  0.00    +0.011 C 
ATOM      7  C   LIG    1       -2.891  -1.784  -2.188  0.00  0.00    +0.011 C 
ATOM      8  N   LIG    1       -0.561   1.525  -0.184  0.00  0.00    -0.288 N 
ATOM      9  C   LIG    1       -0.636   2.413   0.844  0.00  0.00    +0.237 C 
ATOM     10  O   LIG    1       -0.270   2.127   1.985  0.00  0.00    -0.274 OA
ENDROOT
BRANCH   1  12
ATOM     11  O   LIG    1        1.979  -0.516   0.972  0.00  0.00    -0.274 OA
ATOM     12  C   LIG    1        1.426   0.027   0.016  0.00  0.00    +0.234 C 
ATOM     13  N   LIG    1        2.106   0.604  -1.000  0.00  0.00    -0.304 N 
ATOM     14  H   LIG    1        1.561   1.045  -1.727  0.00  0.00    +0.149 HD
BRANCH  13  15
ATOM     15  C   LIG    1        3.567   0.754  -1.164  0.00  0.00    +0.149 C 
BRANCH  15  16
ATOM     16  C   LIG    1        4.103   1.811  -0.186  0.00  0.00    +0.237 C 
ATOM     17  O   LIG    1        3.465   2.287   0.760  0.00  0.00    -0.285 OA
BRANCH  16  18
ATOM     18  C   LIG    1        5.572   2.330  -0.486  0.00  0.00    +0.279 C 
ATOM     19  N   LIG    1        6.119   2.982   0.546  0.00  0.00    -0.323 N 
ATOM     20  H   LIG    1        7.051   3.362   0.471  0.00  0.00    +0.145 HD
ATOM     21  H   LIG    1        5.601   3.099   1.405  0.00  0.00    +0.145 HD
ATOM     22  O   LIG    1        6.125   2.142  -1.569  0.00  0.00    -0.267 OA
ENDBRANCH  16  18
ENDBRANCH  15  16
BRANCH  15  23
ATOM     23  C   LIG    1        4.363  -0.584  -1.097  0.00  0.00    +0.034 C 
BRANCH  23  24
ATOM     24  C   LIG    1        3.843  -1.686  -2.044  0.00  0.00    -0.009 C 
ATOM     25  C   LIG    1        4.008  -1.475  -3.554  0.00  0.00    +0.003 C 
ATOM     26  C   LIG    1        4.253  -2.990  -3.649  0.00  0.00    +0.001 C 
ATOM     27  C   LIG    1        4.684  -2.962  -2.173  0.00  0.00    +0.003 C 
ENDBRANCH  23  24
ENDBRANCH  15  23
ENDBRANCH  13  15
ENDBRANCH   1  12
BRANCH   9  28
ATOM     28  C   LIG    1       -1.201   3.838   0.579  0.00  0.00    +0.166 C 
BRANCH  28  29
ATOM     29  N   LIG    1       -2.653   3.750   0.784  0.00  0.00    -0.288 N 
ATOM     30  H   LIG    1       -2.937   3.358   1.670  0.00  0.00    +0.151 HD
ATOM     31  C   LIG    1       -3.598   4.117  -0.094  0.00  0.00    +0.301 C 
ATOM     32  N   LIG    1       -4.826   3.789   0.348  0.00  0.00    -0.295 N 
ATOM     33  H   LIG    1       -4.897   3.448   1.295  0.00  0.00    +0.151 HD
ATOM     34  O   LIG    1       -3.365   4.651  -1.180  0.00  0.00    -0.253 OA
BRANCH  32  35
ATOM     35  C   LIG    1       -6.103   3.848  -0.384  0.00  0.00    +0.028 C 
ATOM     36  C   LIG    1       -6.465   5.305  -0.763  0.00  0.00    +0.031 C 
ATOM     37  C   LIG    1       -6.066   2.965  -1.657  0.00  0.00    +0.031 C 
ATOM     38  C   LIG    1       -7.201   3.301   0.553  0.00  0.00    +0.031 C 
ENDBRANCH  32  35
ENDBRANCH  28  29
BRANCH  28  39
ATOM     39  C   LIG    1       -0.530   5.025   1.379  0.00  0.00    -0.011 C 
ATOM     40  C   LIG    1       -0.920   5.046   2.883  0.00  0.00    +0.013 C 
ATOM     41  C   LIG    1        1.017   5.006   1.253  0.00  0.00    +0.013 C 
ATOM     42  C   LIG    1       -1.012   6.371   0.774  0.00  0.00    +0.013 C 
ENDBRANCH  28  39
ENDBRANCH   9  28
TORSDOF 10
