REMARK  Name = DB08954
REMARK                            x       y       z     vdW  Elec       q    Type
REMARK                         _______ _______ _______ _____ _____    ______ ____
ROOT
ATOM      1  N   LIG    1       -0.776   1.160   0.035  0.00  0.00    +0.383 N 
ATOM      2  H   LIG    1       -0.028   1.805  -0.180  0.00  0.00    -0.081 HD
ATOM      3  C   LIG    1       -1.750   1.228  -1.172  0.00  0.00    -0.078 C 
ATOM      4  C   LIG    1       -2.246   2.677  -1.335  0.00  0.00    -0.015 C 
ATOM      5  C   LIG    1       -2.957   3.180  -0.063  0.00  0.00    -0.010 C 
ATOM      6  C   LIG    1       -1.942   3.119   1.100  0.00  0.00    -0.015 C 
ATOM      7  C   LIG    1       -1.448   1.681   1.336  0.00  0.00    -0.078 C 
ENDROOT
BRANCH   1   9
ATOM      8  C   LIG    1       -1.054  -1.273   0.858  0.00  0.00    -0.010 C 
ATOM      9  C   LIG    1       -0.124  -0.254   0.156  0.00  0.00    -0.038 C 
BRANCH   9  10
ATOM     10  C   LIG    1        1.320  -0.156   0.737  0.00  0.00    +0.131 C 
BRANCH  10  11
ATOM     11  C   LIG    1        2.133  -1.424   0.457  0.00  0.00    -0.020 A 
ATOM     12  C   LIG    1        2.782  -1.560  -0.775  0.00  0.00    +0.009 A 
ATOM     13  C   LIG    1        3.517  -2.708  -1.059  0.00  0.00    +0.046 A 
ATOM     14  C   LIG    1        3.605  -3.724  -0.111  0.00  0.00    +0.117 A 
ATOM     15  C   LIG    1        2.961  -3.601   1.119  0.00  0.00    +0.046 A 
ATOM     16  C   LIG    1        2.226  -2.454   1.403  0.00  0.00    +0.009 A 
BRANCH  14  17
ATOM     17  O   LIG    1        4.327  -4.855  -0.388  0.00  0.00    -0.507 OA
ATOM     18  H   LIG    1        4.730  -4.838  -1.259  0.00  0.00    +0.292 HD
ENDBRANCH  14  17
ENDBRANCH  10  11
BRANCH  10  19
ATOM     19  O   LIG    1        1.318   0.202   2.109  0.00  0.00    -0.389 OA
ATOM     20  H   LIG    1        2.222   0.383   2.378  0.00  0.00    +0.210 HD
ENDBRANCH  10  19
ENDBRANCH   9  10
ENDBRANCH   1   9
BRANCH   5  21
ATOM     21  C   LIG    1       -3.543   4.597  -0.277  0.00  0.00    +0.038 C 
BRANCH  21  22
ATOM     22  C   LIG    1       -4.363   5.114   0.898  0.00  0.00    -0.047 A 
ATOM     23  C   LIG    1       -3.797   6.013   1.807  0.00  0.00    +0.003 A 
ATOM     24  C   LIG    1       -4.548   6.483   2.881  0.00  0.00    +0.000 A 
ATOM     25  C   LIG    1       -5.865   6.055   3.041  0.00  0.00    +0.000 A 
ATOM     26  C   LIG    1       -6.437   5.162   2.138  0.00  0.00    +0.000 A 
ATOM     27  C   LIG    1       -5.685   4.690   1.065  0.00  0.00    +0.003 A 
ENDBRANCH  21  22
ENDBRANCH   5  21
TORSDOF 7
