REMARK  Name = DB08864
REMARK                            x       y       z     vdW  Elec       q    Type
REMARK                         _______ _______ _______ _____ _____    ______ ____
ROOT
ATOM      1  C   LIG    1        2.165   0.792  -0.925  0.00  0.00    +0.128 A 
ATOM      2  C   LIG    1        3.552   0.798  -0.757  0.00  0.00    +0.063 A 
ATOM      3  C   LIG    1        4.321   1.257  -1.828  0.00  0.00    +0.118 A 
ATOM      4  N   LIG    1        3.766   1.681  -2.994  0.00  0.00    -0.223 NA
ATOM      5  C   LIG    1        2.411   1.635  -3.082  0.00  0.00    +0.221 A 
ATOM      6  N   LIG    1        1.592   1.202  -2.089  0.00  0.00    -0.199 NA
ENDROOT
BRANCH   1   7
ATOM      7  N   LIG    1        1.352   0.317   0.115  0.00  0.00    -0.299 N 
ATOM      8  H   LIG    1        1.845  -0.230   0.806  0.00  0.00    +0.154 HD
BRANCH   7  13
ATOM      9  C   LIG    1       -2.865   0.089   0.463  0.00  0.00    -0.024 A 
ATOM     10  C   LIG    1       -2.258   1.297   0.106  0.00  0.00    +0.013 A 
ATOM     11  C   LIG    1       -0.869   1.412   0.001  0.00  0.00    -0.028 A 
ATOM     12  C   LIG    1       -0.308   2.804  -0.281  0.00  0.00    +0.046 C 
ATOM     13  C   LIG    1       -0.053   0.281   0.233  0.00  0.00    +0.038 A 
ATOM     14  C   LIG    1       -0.658  -0.928   0.626  0.00  0.00    -0.028 A 
ATOM     15  C   LIG    1        0.166  -2.178   0.921  0.00  0.00    +0.046 C 
ATOM     16  C   LIG    1       -2.050  -1.012   0.730  0.00  0.00    +0.013 A 
BRANCH   9  17
ATOM     17  C   LIG    1       -4.331  -0.067   0.577  0.00  0.00    +0.019 C 
ATOM     18  C   LIG    1       -5.270   0.853   0.288  0.00  0.00    +0.089 C 
BRANCH  18  19
ATOM     19  C   LIG    1       -6.665   0.607   0.437  0.00  0.00    +0.091 C 
ATOM     20  N   LIG    1       -7.802   0.422   0.550  0.00  0.00    -0.191 NA
ENDBRANCH  18  19
ENDBRANCH   9  17
ENDBRANCH   7  13
ENDBRANCH   1   7
BRANCH   5  21
ATOM     21  N   LIG    1        1.872   2.097  -4.294  0.00  0.00    -0.284 N 
ATOM     22  H   LIG    1        2.581   2.434  -4.930  0.00  0.00    +0.155 HD
BRANCH  21  23
ATOM     23  C   LIG    1        0.568   2.203  -4.816  0.00  0.00    +0.034 A 
ATOM     24  C   LIG    1       -0.581   1.720  -4.173  0.00  0.00    +0.024 A 
ATOM     25  C   LIG    1       -1.834   1.873  -4.763  0.00  0.00    +0.020 A 
ATOM     26  C   LIG    1       -1.948   2.506  -6.000  0.00  0.00    +0.052 A 
ATOM     27  C   LIG    1       -0.810   2.984  -6.651  0.00  0.00    +0.020 A 
ATOM     28  C   LIG    1        0.441   2.829  -6.059  0.00  0.00    +0.024 A 
BRANCH  26  29
ATOM     29  C   LIG    1       -3.257   2.668  -6.615  0.00  0.00    +0.099 C 
ATOM     30  N   LIG    1       -4.298   2.797  -7.104  0.00  0.00    -0.191 NA
ENDBRANCH  26  29
ENDBRANCH  21  23
ENDBRANCH   5  21
TORSDOF 7
