REMARK  Name = DB08918
REMARK                            x       y       z     vdW  Elec       q    Type
REMARK                         _______ _______ _______ _____ _____    ______ ____
ROOT
ATOM      1  C   LIG    1        1.481   0.021  -0.036  0.00  0.00    +0.076 C 
ATOM      2  C   LIG    1        2.113   0.976  -1.073  0.00  0.00    +0.023 C 
ATOM      3  C   LIG    1        2.264  -0.504  -1.246  0.00  0.00    +0.027 C 
ENDROOT
BRANCH   1   7
ATOM      4  C   LIG    1        3.240  -0.013   3.944  0.00  0.00    +0.000 A 
ATOM      5  C   LIG    1        4.060  -0.041   2.821  0.00  0.00    +0.000 A 
ATOM      6  C   LIG    1        3.492  -0.032   1.550  0.00  0.00    +0.004 A 
ATOM      7  C   LIG    1        2.099  -0.002   1.385  0.00  0.00    -0.032 A 
ATOM      8  C   LIG    1        1.290   0.038   2.533  0.00  0.00    +0.004 A 
ATOM      9  C   LIG    1        1.856   0.029   3.805  0.00  0.00    +0.000 A 
ENDBRANCH   1   7
BRANCH   1  10
ATOM     10  C   LIG    1       -0.061  -0.146  -0.166  0.00  0.00    +0.226 C 
ATOM     11  N   LIG    1       -0.616  -1.385  -0.057  0.00  0.00    -0.301 N 
ATOM     12  O   LIG    1       -0.751   0.867  -0.310  0.00  0.00    -0.275 OA
BRANCH  11  13
ATOM     13  C   LIG    1       -2.077  -1.570  -0.091  0.00  0.00    +0.104 C 
ATOM     14  C   LIG    1       -2.742  -1.340   1.275  0.00  0.00    +0.024 C 
ENDBRANCH  11  13
BRANCH  11  15
ATOM     15  C   LIG    1        0.153  -2.618   0.182  0.00  0.00    +0.104 C 
ATOM     16  C   LIG    1        0.225  -3.545  -1.042  0.00  0.00    +0.024 C 
ENDBRANCH  11  15
ENDBRANCH   1  10
BRANCH   2  17
ATOM     17  C   LIG    1        1.359   1.711  -2.205  0.00  0.00    +0.082 C 
BRANCH  17  18
ATOM     18  N   LIG    1        2.276   2.044  -3.278  0.00  0.00    -0.330 NA
ATOM     19  H   LIG    1        1.777   2.524  -4.013  0.00  0.00    +0.118 HD
ATOM     20  H   LIG    1        2.641   1.195  -3.687  0.00  0.00    +0.118 HD
ENDBRANCH  17  18
ENDBRANCH   2  17
TORSDOF 6
