REMARK  Name = DB08797
REMARK                            x       y       z     vdW  Elec       q    Type
REMARK                         _______ _______ _______ _____ _____    ______ ____
ROOT
ATOM      1  C   LIG    1        1.371  -0.003   0.000  0.00  0.00    +0.129 A 
ATOM      2  C   LIG    1        2.059   1.214   0.000  0.00  0.00    +0.046 A 
ATOM      3  C   LIG    1        3.450   1.241   0.000  0.00  0.00    +0.004 A 
ATOM      4  C   LIG    1        4.165   0.049   0.000  0.00  0.00    +0.001 A 
ATOM      5  C   LIG    1        3.488  -1.170   0.000  0.00  0.00    +0.017 A 
ATOM      6  C   LIG    1        2.080  -1.229   0.000  0.00  0.00    +0.078 A 
ENDROOT
BRANCH   6   7
ATOM      7  C   LIG    1        1.368  -2.577   0.000  0.00  0.00    +0.245 C 
ATOM      8  N   LIG    1        2.130  -3.677   0.000  0.00  0.00    -0.325 N 
ATOM      9  H   LIG    1        1.699  -4.590   0.000  0.00  0.00    +0.145 HD
ATOM     10  H   LIG    1        3.136  -3.601   0.000  0.00  0.00    +0.145 HD
ATOM     11  O   LIG    1        0.142  -2.678   0.000  0.00  0.00    -0.270 OA
ENDBRANCH   6   7
BRANCH   1  12
ATOM     12  O   LIG    1       -0.001   0.070   0.000  0.00  0.00    -0.506 OA
ATOM     13  H   LIG    1       -0.327   0.973   0.000  0.00  0.00    +0.292 HD
ENDBRANCH   1  12
TORSDOF 2
