REMARK  Name = DB08834
REMARK                            x       y       z     vdW  Elec       q    Type
REMARK                         _______ _______ _______ _____ _____    ______ ____
ROOT
ATOM      1  C   LIG    1       -6.743  -4.133   2.267  0.00  0.00    +0.032 C 
ATOM      2  C   LIG    1       -7.178  -2.684   1.990  0.00  0.00    +0.010 C 
ATOM      3  C   LIG    1       -6.337  -1.614   2.755  0.00  0.00    -0.026 C 
ATOM      4  C   LIG    1       -7.010  -0.242   2.442  0.00  0.00    +0.012 C 
ATOM      5  C   LIG    1       -4.805  -1.610   2.375  0.00  0.00    +0.001 C 
ATOM      6  C   LIG    1       -4.535  -1.518   0.842  0.00  0.00    +0.005 C 
ATOM      7  C   LIG    1       -3.029  -1.491   0.502  0.00  0.00    +0.007 C 
ATOM      8  C   LIG    1       -2.294  -0.328   1.227  0.00  0.00    -0.026 C 
ATOM      9  C   LIG    1       -2.837   1.065   0.772  0.00  0.00    +0.012 C 
ATOM     10  C   LIG    1       -0.730  -0.367   1.135  0.00  0.00    -0.002 C 
ATOM     11  C   LIG    1       -0.273   0.336   2.444  0.00  0.00    +0.004 C 
ATOM     12  C   LIG    1       -1.449   0.294   3.430  0.00  0.00    +0.005 C 
ATOM     13  C   LIG    1       -2.488  -0.599   2.746  0.00  0.00    +0.001 C 
ATOM     14  C   LIG    1       -3.986  -0.548   3.198  0.00  0.00    +0.025 C 
ATOM     15  C   LIG    1       -4.183  -0.794   4.729  0.00  0.00    +0.118 C 
ATOM     16  C   LIG    1       -5.672  -0.909   5.141  0.00  0.00    +0.035 C 
ATOM     17  C   LIG    1       -6.475  -1.923   4.286  0.00  0.00    +0.000 C 
ATOM     18  C   LIG    1       -6.101  -3.395   4.637  0.00  0.00    +0.035 C 
ATOM     19  C   LIG    1       -6.823  -4.452   3.774  0.00  0.00    +0.115 C 
ENDROOT
BRANCH  10  20
ATOM     20  C   LIG    1       -0.028   0.207  -0.146  0.00  0.00    -0.010 C 
ATOM     21  C   LIG    1       -0.526  -0.443  -1.457  0.00  0.00    +0.008 C 
BRANCH  20  22
ATOM     22  C   LIG    1        1.522   0.105  -0.039  0.00  0.00    +0.013 C 
BRANCH  22  23
ATOM     23  C   LIG    1        2.307   0.819  -1.169  0.00  0.00    +0.096 C 
BRANCH  23  24
ATOM     24  C   LIG    1        3.803   1.026  -0.880  0.00  0.00    +0.213 C 
ATOM     25  O   LIG    1        4.372   0.389   0.009  0.00  0.00    -0.276 OA
ATOM     26  N   LIG    1        4.431   1.926  -1.658  0.00  0.00    -0.314 N 
ATOM     27  H   LIG    1        3.899   2.395  -2.377  0.00  0.00    +0.149 HD
BRANCH  26  28
ATOM     28  C   LIG    1        5.843   2.290  -1.558  0.00  0.00    +0.129 C 
BRANCH  28  29
ATOM     29  C   LIG    1        6.132   3.228  -0.375  0.00  0.00    +0.216 C 
BRANCH  29  30
ATOM     30  S   LIG    1        7.957   3.710  -0.344  0.00  0.00    +0.081 S 
ATOM     31  O   LIG    1        8.260   4.538  -1.516  0.00  0.00    -0.147 OA
ATOM     32  O   LIG    1        8.763   2.531  -0.014  0.00  0.00    -0.147 OA
BRANCH  30  33
ATOM     33  O   LIG    1        7.909   4.695   0.991  0.00  0.00    -0.254 OA
ATOM     34  H   LIG    1        7.816   4.167   1.807  0.00  0.00    +0.244 HD
ENDBRANCH  30  33
ENDBRANCH  29  30
ENDBRANCH  28  29
ENDBRANCH  26  28
ENDBRANCH  23  24
ENDBRANCH  22  23
ENDBRANCH  20  22
ENDBRANCH  10  20
BRANCH  15  35
ATOM     35  O   LIG    1       -3.561   0.186   5.536  0.00  0.00    -0.391 OA
ATOM     36  H   LIG    1       -3.824   1.053   5.220  0.00  0.00    +0.210 HD
ENDBRANCH  15  35
BRANCH  19  37
ATOM     37  O   LIG    1       -6.323  -5.746   4.038  0.00  0.00    -0.392 OA
ATOM     38  H   LIG    1       -7.034  -6.280   4.400  0.00  0.00    +0.210 HD
ENDBRANCH  19  37
TORSDOF 10
