REMARK  Name = DB08976
REMARK                            x       y       z     vdW  Elec       q    Type
REMARK                         _______ _______ _______ _____ _____    ______ ____
ROOT
ATOM      1  C   LIG    1        3.304  -1.297  -0.145  0.00  0.00    +0.080 A 
ATOM      2  C   LIG    1        4.177  -2.389  -0.408  0.00  0.00    +0.045 A 
ATOM      3  C   LIG    1        5.551  -2.147  -0.569  0.00  0.00    +0.024 A 
ATOM      4  C   LIG    1        6.069  -0.858  -0.513  0.00  0.00    +0.002 A 
ATOM      5  C   LIG    1        5.221   0.216  -0.285  0.00  0.00    +0.001 A 
ATOM      6  C   LIG    1        3.859  -0.001  -0.099  0.00  0.00    +0.017 A 
ENDROOT
BRANCH   1   7
ATOM      7  C   LIG    1        1.813  -1.462   0.091  0.00  0.00    +0.341 C 
ATOM      8  O   LIG    1        1.239  -2.552   0.170  0.00  0.00    -0.245 OA
BRANCH   7   9
ATOM      9  O   LIG    1        1.149  -0.280   0.189  0.00  0.00    -0.458 OA
BRANCH   9  10
ATOM     10  C   LIG    1       -0.255  -0.233   0.424  0.00  0.00    +0.266 C 
BRANCH  10  11
ATOM     11  C   LIG    1       -0.747   1.228   0.400  0.00  0.00    +0.177 C 
BRANCH  11  12
ATOM     12  O   LIG    1       -2.145   1.240   0.617  0.00  0.00    -0.386 OA
ATOM     13  H   LIG    1       -2.314   0.937   1.513  0.00  0.00    +0.210 HD
ENDBRANCH  11  12
BRANCH  11  14
ATOM     14  C   LIG    1       -0.053   2.166   1.416  0.00  0.00    +0.190 C 
BRANCH  14  15
ATOM     15  O   LIG    1       -0.155   1.685   2.743  0.00  0.00    -0.392 OA
ATOM     16  H   LIG    1        0.296   2.301   3.327  0.00  0.00    +0.210 HD
ENDBRANCH  14  15
ENDBRANCH  11  14
ENDBRANCH  10  11
ENDBRANCH   9  10
ENDBRANCH   7   9
ENDBRANCH   1   7
BRANCH   2  17
ATOM     17  N   LIG    1        3.702  -3.716  -0.468  0.00  0.00    -0.313 N 
ATOM     18  H   LIG    1        2.808  -3.841  -0.015  0.00  0.00    +0.152 HD
BRANCH  17  19
ATOM     19  C   LIG    1        4.203  -4.894  -1.057  0.00  0.00    +0.042 A 
ATOM     20  C   LIG    1        3.785  -6.185  -0.594  0.00  0.00    +0.022 A 
ATOM     21  C   LIG    1        2.885  -6.362   0.493  0.00  0.00    +0.012 A 
ATOM     22  C   LIG    1        2.513  -7.633   0.909  0.00  0.00    +0.001 A 
ATOM     23  C   LIG    1        3.013  -8.761   0.272  0.00  0.00    +0.014 A 
ATOM     24  C   LIG    1        3.900  -8.653  -0.803  0.00  0.00    +0.081 A 
ATOM     25  C   LIG    1        4.301  -7.351  -1.254  0.00  0.00    +0.084 A 
ATOM     26  N   LIG    1        5.164  -7.239  -2.305  0.00  0.00    -0.254 NA
ATOM     27  C   LIG    1        5.522  -6.010  -2.735  0.00  0.00    +0.113 A 
ATOM     28  C   LIG    1        5.066  -4.835  -2.156  0.00  0.00    +0.043 A 
BRANCH  24  29
ATOM     29  C   LIG    1        4.435  -9.918  -1.494  0.00  0.00    +0.419 C 
ATOM     30  F   LIG    1        5.765  -9.960  -1.402  0.00  0.00    -0.166 F 
ATOM     31  F   LIG    1        4.094  -9.912  -2.783  0.00  0.00    -0.166 F 
ATOM     32  F   LIG    1        3.954 -11.038  -0.952  0.00  0.00    -0.166 F 
ENDBRANCH  24  29
ENDBRANCH  17  19
ENDBRANCH   2  17
TORSDOF 10
