REMARK  Name = DB08986
REMARK                            x       y       z     vdW  Elec       q    Type
REMARK                         _______ _______ _______ _____ _____    ______ ____
ROOT
ATOM      1  C   LIG    1       -2.068  -1.332  -0.297  0.00  0.00    +0.162 C 
ATOM      2  C   LIG    1       -2.614  -2.428   0.653  0.00  0.00    +0.066 C 
ATOM      3  O   LIG    1       -0.708  -1.185   0.166  0.00  0.00    -0.451 OA
ATOM      4  C   LIG    1       -0.103  -0.037   0.115  0.00  0.00    +0.261 C 
ATOM      5  N   LIG    1       -0.764   1.106   0.308  0.00  0.00    -0.313 N 
ATOM      6  H   LIG    1       -0.225   1.933   0.523  0.00  0.00    +0.170 HD
ATOM      7  C   LIG    1       -2.166   1.158   0.217  0.00  0.00    +0.050 A 
ATOM      8  C   LIG    1       -2.847   2.361   0.420  0.00  0.00    +0.027 A 
ATOM      9  C   LIG    1       -4.233   2.404   0.291  0.00  0.00    +0.022 A 
ATOM     10  C   LIG    1       -4.935   1.248  -0.044  0.00  0.00    +0.041 A 
ATOM     11 CL   LIG    1       -6.652   1.296  -0.212  0.00  0.00    -0.084 Cl
ATOM     12  C   LIG    1       -4.247   0.050  -0.243  0.00  0.00    +0.030 A 
ATOM     13  C   LIG    1       -2.852  -0.020  -0.112  0.00  0.00    +0.025 A 
ENDROOT
BRANCH   1  14
ATOM     14  C   LIG    1       -2.072  -1.742  -1.784  0.00  0.00    +0.000 A 
ATOM     15  C   LIG    1       -1.154  -1.153  -2.664  0.00  0.00    +0.008 A 
ATOM     16  C   LIG    1       -1.128  -1.511  -4.008  0.00  0.00    +0.000 A 
ATOM     17  C   LIG    1       -2.023  -2.465  -4.484  0.00  0.00    +0.000 A 
ATOM     18  C   LIG    1       -2.943  -3.060  -3.627  0.00  0.00    +0.000 A 
ATOM     19  C   LIG    1       -2.968  -2.701  -2.282  0.00  0.00    +0.008 A 
ENDBRANCH   1  14
BRANCH   4  20
ATOM     20  N   LIG    1        1.225  -0.118  -0.010  0.00  0.00    -0.301 N 
ATOM     21  H   LIG    1        1.751   0.728   0.152  0.00  0.00    +0.150 HD
BRANCH  20  22
ATOM     22  C   LIG    1        1.992  -1.354  -0.210  0.00  0.00    +0.102 C 
ATOM     23  C   LIG    1        2.340  -2.067   1.104  0.00  0.00    +0.024 C 
ENDBRANCH  20  22
ENDBRANCH   4  20
TORSDOF 3
