REMARK  Name = DB08995
REMARK                            x       y       z     vdW  Elec       q    Type
REMARK                         _______ _______ _______ _____ _____    ______ ____
ROOT
ATOM      1  O   LIG    1        1.929   0.422  -1.383  0.00  0.00    -0.331 OA
ATOM      2  C   LIG    1        1.362  -0.163  -0.240  0.00  0.00    +0.339 C 
ATOM      3  C   LIG    1        1.655  -1.671  -0.284  0.00  0.00    +0.214 C 
ATOM      4  C   LIG    1        3.189  -1.902  -0.366  0.00  0.00    +0.180 C 
ATOM      5  C   LIG    1        3.868  -1.010  -1.438  0.00  0.00    +0.177 C 
ATOM      6  C   LIG    1        3.355   0.449  -1.337  0.00  0.00    +0.179 C 
ENDROOT
BRANCH   5   7
ATOM      7  O   LIG    1        5.280  -1.078  -1.349  0.00  0.00    -0.386 OA
ATOM      8  H   LIG    1        5.544  -0.851  -0.454  0.00  0.00    +0.210 HD
ENDBRANCH   5   7
BRANCH   4   9
ATOM      9  O   LIG    1        3.494  -3.273  -0.561  0.00  0.00    -0.386 OA
ATOM     10  H   LIG    1        3.160  -3.542  -1.420  0.00  0.00    +0.210 HD
ENDBRANCH   4   9
BRANCH   3  11
ATOM     11  O   LIG    1        1.090  -2.341   0.830  0.00  0.00    -0.383 OA
ATOM     12  H   LIG    1        1.516  -3.197   0.916  0.00  0.00    +0.210 HD
ENDBRANCH   3  11
BRANCH   2  13
ATOM     13  O   LIG    1       -0.027   0.019  -0.245  0.00  0.00    -0.461 OA
BRANCH  13  14
ATOM     14  C   LIG    1       -0.548   1.292  -0.079  0.00  0.00    +0.131 A 
ATOM     15  C   LIG    1       -1.932   1.403   0.060  0.00  0.00    +0.092 A 
ATOM     16  C   LIG    1       -2.552   2.647   0.211  0.00  0.00    +0.135 A 
ATOM     17  C   LIG    1       -1.786   3.832   0.216  0.00  0.00    +0.105 A 
ATOM     18  C   LIG    1       -2.376   5.213   0.361  0.00  0.00    +0.197 A 
ATOM     19  C   LIG    1       -1.384   6.285   0.310  0.00  0.00    +0.098 A 
ATOM     20  C   LIG    1       -0.061   6.041   0.173  0.00  0.00    +0.139 A 
ATOM     21  O   LIG    1        0.457   4.791   0.042  0.00  0.00    -0.454 OA
ATOM     22  O   LIG    1       -3.579   5.427   0.502  0.00  0.00    -0.287 OA
ATOM     23  C   LIG    1       -0.393   3.705   0.072  0.00  0.00    +0.146 A 
ATOM     24  C   LIG    1        0.219   2.464  -0.061  0.00  0.00    +0.093 A 
BRANCH  20  25
ATOM     25  C   LIG    1        1.002   7.073   0.048  0.00  0.00    +0.021 A 
ATOM     26  C   LIG    1        0.712   8.366  -0.408  0.00  0.00    +0.015 A 
ATOM     27  C   LIG    1        1.713   9.329  -0.522  0.00  0.00    +0.050 A 
ATOM     28  C   LIG    1        3.041   9.029  -0.178  0.00  0.00    +0.161 A 
ATOM     29  C   LIG    1        3.334   7.740   0.287  0.00  0.00    +0.159 A 
ATOM     30  C   LIG    1        2.327   6.780   0.398  0.00  0.00    +0.060 A 
BRANCH  29  31
ATOM     31  O   LIG    1        4.616   7.399   0.637  0.00  0.00    -0.503 OA
ATOM     32  H   LIG    1        4.697   6.487   0.926  0.00  0.00    +0.292 HD
ENDBRANCH  29  31
BRANCH  28  33
ATOM     33  O   LIG    1        4.086   9.932  -0.271  0.00  0.00    -0.491 OA
ATOM     34  C   LIG    1        3.829  11.250  -0.744  0.00  0.00    +0.277 C 
ENDBRANCH  28  33
ENDBRANCH  20  25
BRANCH  16  35
ATOM     35  O   LIG    1       -3.918   2.651   0.345  0.00  0.00    -0.506 OA
ATOM     36  H   LIG    1       -4.299   1.771   0.322  0.00  0.00    +0.292 HD
ENDBRANCH  16  35
ENDBRANCH  13  14
ENDBRANCH   2  13
BRANCH   6  37
ATOM     37  C   LIG    1        3.819   1.383  -2.478  0.00  0.00    +0.197 C 
BRANCH  37  38
ATOM     38  O   LIG    1        5.210   1.702  -2.449  0.00  0.00    -0.346 OA
BRANCH  38  39
ATOM     39  C   LIG    1        5.623   2.637  -1.486  0.00  0.00    +0.282 C 
ATOM     40  C   LIG    1        7.149   2.793  -1.589  0.00  0.00    +0.201 C 
ATOM     41  C   LIG    1        7.535   3.529  -2.895  0.00  0.00    +0.179 C 
ATOM     42  C   LIG    1        6.736   4.840  -3.051  0.00  0.00    +0.174 C 
ATOM     43  C   LIG    1        5.224   4.567  -2.858  0.00  0.00    +0.149 C 
ATOM     44  C   LIG    1        4.376   5.850  -2.852  0.00  0.00    +0.041 C 
ATOM     45  O   LIG    1        4.981   3.886  -1.620  0.00  0.00    -0.343 OA
BRANCH  42  46
ATOM     46  O   LIG    1        6.998   5.464  -4.297  0.00  0.00    -0.387 OA
ATOM     47  H   LIG    1        6.824   4.833  -4.999  0.00  0.00    +0.210 HD
ENDBRANCH  42  46
BRANCH  41  48
ATOM     48  O   LIG    1        8.936   3.727  -3.002  0.00  0.00    -0.386 OA
ATOM     49  H   LIG    1        9.211   4.347  -2.322  0.00  0.00    +0.210 HD
ENDBRANCH  41  48
BRANCH  40  50
ATOM     50  O   LIG    1        7.660   3.425  -0.428  0.00  0.00    -0.384 OA
ATOM     51  H   LIG    1        8.580   3.648  -0.583  0.00  0.00    +0.210 HD
ENDBRANCH  40  50
ENDBRANCH  38  39
ENDBRANCH  37  38
ENDBRANCH   6  37
TORSDOF 15
