REMARK  Name = DB08941
REMARK                            x       y       z     vdW  Elec       q    Type
REMARK                         _______ _______ _______ _____ _____    ______ ____
ROOT
ATOM      1  C   LIG    1        2.096  -0.183  -0.603  0.00  0.00    +0.084 C 
ATOM      2  C   LIG    1        2.783  -0.977  -1.733  0.00  0.00    +0.027 C 
ENDROOT
BRANCH   1   3
ATOM      3  N   LIG    1        0.743   0.159  -1.051  0.00  0.00    -0.305 NA
ATOM      4  H   LIG    1        0.627  -0.091  -2.023  0.00  0.00    +0.123 HD
BRANCH   3   6
ATOM      5  C   LIG    1        0.215   1.912   0.646  0.00  0.00    +0.027 C 
ATOM      6  C   LIG    1        0.329   1.551  -0.849  0.00  0.00    +0.088 C 
BRANCH   6   7
ATOM      7  C   LIG    1       -1.015   1.760  -1.577  0.00  0.00    +0.247 C 
BRANCH   7   8
ATOM      8  O   LIG    1       -0.831   1.602  -2.984  0.00  0.00    -0.490 OA
BRANCH   8   9
ATOM      9  C   LIG    1       -1.912   1.753  -3.832  0.00  0.00    +0.121 A 
ATOM     10  C   LIG    1       -3.216   2.058  -3.408  0.00  0.00    +0.045 A 
ATOM     11  C   LIG    1       -4.242   2.192  -4.340  0.00  0.00    +0.004 A 
ATOM     12  C   LIG    1       -3.972   2.022  -5.695  0.00  0.00    +0.000 A 
ATOM     13  C   LIG    1       -2.683   1.719  -6.127  0.00  0.00    +0.004 A 
ATOM     14  C   LIG    1       -1.658   1.585  -5.195  0.00  0.00    +0.045 A 
ENDBRANCH   8   9
ENDBRANCH   7   8
ENDBRANCH   6   7
ENDBRANCH   3   6
ENDBRANCH   1   3
BRANCH   1  15
ATOM     15  C   LIG    1        2.072  -0.925   0.770  0.00  0.00    +0.161 C 
BRANCH  15  16
ATOM     16  C   LIG    1        3.447  -0.910   1.446  0.00  0.00    -0.017 A 
ATOM     17  C   LIG    1        3.836   0.219   2.174  0.00  0.00    +0.010 A 
ATOM     18  C   LIG    1        5.083   0.263   2.791  0.00  0.00    +0.046 A 
ATOM     19  C   LIG    1        5.947  -0.825   2.680  0.00  0.00    +0.117 A 
ATOM     20  C   LIG    1        5.572  -1.954   1.955  0.00  0.00    +0.046 A 
ATOM     21  C   LIG    1        4.325  -1.997   1.337  0.00  0.00    +0.010 A 
BRANCH  19  22
ATOM     22  O   LIG    1        7.174  -0.785   3.287  0.00  0.00    -0.507 OA
ATOM     23  H   LIG    1        7.329   0.035   3.762  0.00  0.00    +0.292 HD
ENDBRANCH  19  22
ENDBRANCH  15  16
BRANCH  15  24
ATOM     24  O   LIG    1        1.528  -2.230   0.638  0.00  0.00    -0.386 OA
ATOM     25  H   LIG    1        1.350  -2.575   1.516  0.00  0.00    +0.210 HD
ENDBRANCH  15  24
ENDBRANCH   1  15
TORSDOF 9
