REMARK  Name = DB08079
REMARK                            x       y       z     vdW  Elec       q    Type
REMARK                         _______ _______ _______ _____ _____    ______ ____
ROOT
ATOM      1  N   LIG    1        2.931  -0.003   1.498  0.00  0.00    -0.163 NA
ATOM      2  N   LIG    1        3.820  -0.562   0.661  0.00  0.00    -0.194 N 
ATOM      3  C   LIG    1        3.583  -1.441  -0.374  0.00  0.00    +0.180 A 
ATOM      4  N   LIG    1        4.719  -1.759  -0.963  0.00  0.00    -0.130 NA
ATOM      5  N   LIG    1        5.760  -1.088  -0.336  0.00  0.00    -0.128 NA
ATOM      6  C   LIG    1        5.203  -0.348   0.650  0.00  0.00    +0.178 A 
ATOM      7  C   LIG    1        5.719   0.545   1.602  0.00  0.00    +0.052 A 
ATOM      8  C   LIG    1        4.818   1.170   2.470  0.00  0.00    +0.034 A 
ATOM      9  C   LIG    1        3.444   0.891   2.390  0.00  0.00    +0.092 A 
ENDROOT
BRANCH   9  10
ATOM     10  C   LIG    1        2.439   1.569   3.269  0.00  0.00    +0.002 A 
ATOM     11  C   LIG    1        1.249   0.923   3.644  0.00  0.00    +0.010 A 
ATOM     12  C   LIG    1        0.307   1.566   4.443  0.00  0.00    +0.001 A 
ATOM     13  C   LIG    1        0.544   2.867   4.875  0.00  0.00    +0.000 A 
ATOM     14  C   LIG    1        1.714   3.527   4.516  0.00  0.00    +0.001 A 
ATOM     15  C   LIG    1        2.656   2.879   3.720  0.00  0.00    +0.010 A 
ENDBRANCH   9  10
BRANCH   3  16
ATOM     16  C   LIG    1        2.205  -1.935  -0.769  0.00  0.00    +0.238 C 
BRANCH  16  17
ATOM     17  O   LIG    1        1.408  -0.817  -1.172  0.00  0.00    -0.362 OA
BRANCH  17  18
ATOM     18  C   LIG    1        0.292  -0.521  -0.418  0.00  0.00    +0.113 C 
ATOM     19  C   LIG    1       -0.651  -1.501  -0.075  0.00  0.00    +0.050 C 
ATOM     20  C   LIG    1       -1.755  -1.172   0.704  0.00  0.00    +0.078 C 
ATOM     21  N   LIG    1       -1.917   0.092   1.129  0.00  0.00    -0.303 NA
ATOM     22  H   LIG    1       -2.725   0.297   1.700  0.00  0.00    +0.123 HD
ATOM     23  C   LIG    1       -1.053   1.121   0.832  0.00  0.00    +0.054 C 
ATOM     24  C   LIG    1       -1.278   2.424   1.328  0.00  0.00    +0.054 C 
ATOM     25  C   LIG    1       -0.367   3.447   1.025  0.00  0.00    +0.107 C 
ATOM     26  C   LIG    1        0.735   3.164   0.216  0.00  0.00    +0.034 C 
ATOM     27  C   LIG    1        0.965   1.885  -0.288  0.00  0.00    +0.011 C 
ATOM     28  C   LIG    1        0.080   0.820   0.020  0.00  0.00    +0.037 C 
BRANCH  25  29
ATOM     29  O   LIG    1       -0.477   4.746   1.481  0.00  0.00    -0.373 OA
ATOM     30  C   LIG    1       -1.564   5.093   2.332  0.00  0.00    +0.194 C 
ENDBRANCH  25  29
ENDBRANCH  17  18
ENDBRANCH  16  17
ENDBRANCH   3  16
TORSDOF 5
