REMARK  Name = DB08799
REMARK                            x       y       z     vdW  Elec       q    Type
REMARK                         _______ _______ _______ _____ _____    ______ ____
ROOT
ATOM      1  N   LIG    1       -0.325  -0.236   0.097  0.00  0.00    -0.314 N 
ENDROOT
BRANCH   1   2
ATOM      2  C   LIG    1       -0.835  -1.563  -0.024  0.00  0.00    +0.030 A 
ATOM      3  C   LIG    1       -2.212  -1.825   0.093  0.00  0.00    +0.023 A 
ATOM      4  C   LIG    1       -2.710  -3.120  -0.020  0.00  0.00    +0.002 A 
ATOM      5  C   LIG    1       -1.839  -4.178  -0.250  0.00  0.00    +0.000 A 
ATOM      6  C   LIG    1       -0.472  -3.950  -0.363  0.00  0.00    +0.002 A 
ATOM      7  C   LIG    1        0.024  -2.654  -0.248  0.00  0.00    +0.023 A 
ENDBRANCH   1   2
BRANCH   1   8
ATOM      8  C   LIG    1       -1.182   0.933  -0.163  0.00  0.00    +0.140 C 
BRANCH   8   9
ATOM      9  C   LIG    1       -1.350   1.799   1.079  0.00  0.00    -0.030 A 
ATOM     10  C   LIG    1       -2.256   1.426   2.076  0.00  0.00    +0.005 A 
ATOM     11  C   LIG    1       -2.396   2.211   3.218  0.00  0.00    +0.000 A 
ATOM     12  C   LIG    1       -1.627   3.365   3.361  0.00  0.00    +0.000 A 
ATOM     13  C   LIG    1       -0.719   3.740   2.373  0.00  0.00    +0.000 A 
ATOM     14  C   LIG    1       -0.579   2.955   1.232  0.00  0.00    +0.005 A 
ENDBRANCH   8   9
ENDBRANCH   1   8
BRANCH   1  15
ATOM     15  C   LIG    1        1.118   0.004   0.294  0.00  0.00    +0.233 C 
BRANCH  15  16
ATOM     16  C   LIG    1        1.857   0.174  -1.041  0.00  0.00    +0.298 C 
ATOM     17  N   LIG    1        1.428  -0.037  -2.222  0.00  0.00    -0.082 NA
ATOM     18  C   LIG    1        2.491   0.280  -3.142  0.00  0.00    +0.333 C 
ATOM     19  C   LIG    1        3.748   0.484  -2.308  0.00  0.00    +0.273 C 
ATOM     20  N   LIG    1        3.179   0.553  -0.989  0.00  0.00    -0.232 N 
ATOM     21  H   LIG    1        3.873   0.359  -0.281  0.00  0.00    +0.291 HD
ENDBRANCH  15  16
ENDBRANCH   1  15
TORSDOF 5
