REMARK  Name = DB08890
REMARK                            x       y       z     vdW  Elec       q    Type
REMARK                         _______ _______ _______ _____ _____    ______ ____
ROOT
ATOM      1  CA  GLU A  3       -1.659   5.412  -6.354  0.00  0.00    +0.159 C 
ATOM      2  C   GLU A  3       -2.475   4.106  -6.282  0.00  0.00    +0.234 C 
ATOM      3  O   GLU A  3       -3.330   3.998  -5.403  0.00  0.00    -0.274 OA
ATOM      4  N   TYR A  4       -2.236   3.167  -7.211  0.00  0.00    -0.302 N 
ATOM      5  H   TYR A  4       -1.492   3.314  -7.878  0.00  0.00    +0.150 HD
ATOM      6  CA  TYR A  4       -3.115   2.025  -7.482  0.00  0.00    +0.163 C 
ATOM      7  C   TYR A  4       -2.664   0.734  -6.768  0.00  0.00    +0.234 C 
ATOM      8  O   TYR A  4       -2.763  -0.342  -7.360  0.00  0.00    -0.274 OA
ATOM      9  N   CYS A  5       -2.181   0.859  -5.514  0.00  0.00    -0.302 N 
ATOM     10  H   CYS A  5       -2.142   1.782  -5.107  0.00  0.00    +0.150 HD
ATOM     11  CA  CYS A  5       -1.664  -0.224  -4.658  0.00  0.00    +0.169 C 
ATOM     12  CB  CYS A  5       -2.810  -1.212  -4.307  0.00  0.00    +0.112 C 
ATOM     13  SG  CYS A  5       -2.516  -2.473  -3.028  0.00  0.00    -0.091 S 
ATOM     14  SG  CYS A 13       -2.324  -1.422  -1.293  0.00  0.00    -0.091 S 
ATOM     15  CB  CYS A 13       -0.532  -1.231  -1.103  0.00  0.00    +0.112 C 
ATOM     16  CA  CYS A 13       -0.098  -0.073  -0.187  0.00  0.00    +0.169 C 
ATOM     17  N   CYS A 13       -0.531   1.176  -0.824  0.00  0.00    -0.302 N 
ATOM     18  H   CYS A 13       -0.929   1.042  -1.742  0.00  0.00    +0.150 HD
ATOM     19  C   GLY A 12       -0.413   2.447  -0.397  0.00  0.00    +0.231 C 
ATOM     20  O   GLY A 12       -0.782   3.373  -1.119  0.00  0.00    -0.274 OA
ATOM     21  CA  GLY A 12        0.135   2.768   1.006  0.00  0.00    +0.200 C 
ATOM     22  N   GLY A 12        1.161   3.794   0.838  0.00  0.00    -0.305 N 
ATOM     23  H   GLY A 12        0.833   4.710   0.569  0.00  0.00    +0.149 HD
ATOM     24  C   THR A 11        2.487   3.565   0.852  0.00  0.00    +0.236 C 
ATOM     25  O   THR A 11        2.992   2.494   1.183  0.00  0.00    -0.274 OA
ATOM     26  CA  THR A 11        3.421   4.711   0.390  0.00  0.00    +0.187 C 
ATOM     27  N   THR A 11        2.680   5.909  -0.026  0.00  0.00    -0.300 N 
ATOM     28  H   THR A 11        2.434   6.518   0.741  0.00  0.00    +0.150 HD
ATOM     29  C   CYS A 10        2.272   6.275  -1.257  0.00  0.00    +0.235 C 
ATOM     30  O   CYS A 10        1.618   7.305  -1.412  0.00  0.00    -0.274 OA
ATOM     31  CA  CYS A 10        2.631   5.422  -2.497  0.00  0.00    +0.169 C 
ATOM     32  CB  CYS A 10        2.090   6.015  -3.817  0.00  0.00    +0.112 C 
ATOM     33  SG  CYS A 10        3.047   7.292  -4.668  0.00  0.00    -0.091 S 
ATOM     34  SG  CYS A  2        1.869   7.715  -6.287  0.00  0.00    -0.091 S 
ATOM     35  CB  CYS A  2        2.271   6.503  -7.594  0.00  0.00    +0.112 C 
ATOM     36  CA  CYS A  2        2.058   4.988  -7.316  0.00  0.00    +0.169 C 
ATOM     37  N   CYS A  2        2.460   4.171  -8.463  0.00  0.00    -0.302 N 
ATOM     38  H   CYS A  2        3.257   3.574  -8.297  0.00  0.00    +0.150 HD
ATOM     39  C   CYS A  1        1.883   4.120  -9.680  0.00  0.00    +0.231 C 
ATOM     40  O   CYS A  1        0.902   4.799  -9.987  0.00  0.00    -0.274 OA
ATOM     41  CA  CYS A  1        2.486   3.174 -10.758  0.00  0.00    +0.148 C 
ATOM     42  CB  CYS A  1        1.450   2.178 -11.344  0.00  0.00    +0.109 C 
ATOM     43  SG  CYS A  1        1.084   0.624 -10.459  0.00  0.00    -0.091 S 
ATOM     44  SG  CYS A  6        0.488   1.162  -8.588  0.00  0.00    -0.091 S 
ATOM     45  CB  CYS A  6        1.910   0.804  -7.515  0.00  0.00    +0.112 C 
ATOM     46  CA  CYS A  6        1.663  -0.386  -6.566  0.00  0.00    +0.169 C 
ATOM     47  C   CYS A  6        2.906  -0.797  -5.761  0.00  0.00    +0.235 C 
ATOM     48  O   CYS A  6        3.905  -0.077  -5.753  0.00  0.00    -0.274 OA
ATOM     49  N   ASN A  7        2.802  -1.972  -5.116  0.00  0.00    -0.302 N 
ATOM     50  H   ASN A  7        1.925  -2.469  -5.185  0.00  0.00    +0.150 HD
ATOM     51  CA  ASN A  7        3.836  -2.670  -4.341  0.00  0.00    +0.168 C 
ATOM     52  C   ASN A  7        4.272  -1.824  -3.112  0.00  0.00    +0.237 C 
ATOM     53  O   ASN A  7        3.450  -1.778  -2.198  0.00  0.00    -0.274 OA
ATOM     54  N   PRO A  8        5.472  -1.184  -3.031  0.00  0.00    -0.288 N 
ATOM     55  CA  PRO A  8        5.802  -0.346  -1.857  0.00  0.00    +0.162 C 
ATOM     56  C   PRO A  8        5.170   1.065  -1.861  0.00  0.00    +0.234 C 
ATOM     57  N   ALA A  9        4.628   1.507  -3.011  0.00  0.00    -0.303 N 
ATOM     58  H   ALA A  9        4.608   0.895  -3.815  0.00  0.00    +0.149 HD
ATOM     59  CA  ALA A  9        4.103   2.855  -3.224  0.00  0.00    +0.156 C 
ATOM     60  CB  ALA A  9        4.382   3.243  -4.684  0.00  0.00    +0.038 C 
ATOM     61  C   ALA A  9        2.595   2.932  -2.901  0.00  0.00    +0.234 C 
ATOM     62  O   ALA A  9        1.890   1.949  -3.126  0.00  0.00    -0.274 OA
ATOM     63  O   PRO A  8        5.215   1.726  -0.824  0.00  0.00    -0.274 OA
ATOM     64  CB  PRO A  8        7.333  -0.259  -1.910  0.00  0.00    +0.033 C 
ATOM     65  CG  PRO A  8        7.636  -0.227  -3.396  0.00  0.00    +0.021 C 
ATOM     66  CD  PRO A  8        6.595  -1.178  -3.978  0.00  0.00    +0.109 C 
ATOM     67  N   CYS A  6        0.546  -0.038  -5.685  0.00  0.00    -0.302 N 
ATOM     68  H   CYS A  6        0.446   0.946  -5.482  0.00  0.00    +0.150 HD
ATOM     69  C   CYS A  2        0.680   4.585  -6.742  0.00  0.00    +0.235 C 
ATOM     70  O   CYS A  2        0.622   3.625  -5.972  0.00  0.00    -0.274 OA
ATOM     71  N   CYS A 10        2.067   4.071  -2.410  0.00  0.00    -0.302 N 
ATOM     72  H   CYS A 10        1.094   4.048  -2.137  0.00  0.00    +0.150 HD
ATOM     73  C   CYS A  5       -0.418  -0.886  -5.286  0.00  0.00    +0.235 C 
ATOM     74  O   CYS A  5       -0.380  -2.105  -5.459  0.00  0.00    -0.274 OA
ATOM     75  N   GLU A  3       -0.367   5.367  -7.052  0.00  0.00    -0.302 N 
ATOM     76  H   GLU A  3       -0.224   6.110  -7.720  0.00  0.00    +0.150 HD
ENDROOT
BRANCH  16  77
ATOM     77  C   CYS A 13        1.423  -0.149   0.014  0.00  0.00    +0.235 C 
ATOM     78  O   CYS A 13        2.164   0.399  -0.796  0.00  0.00    -0.274 OA
ATOM     79  N   TYR A 14        1.856  -0.840   1.079  0.00  0.00    -0.301 N 
ATOM     80  H   TYR A 14        1.191  -1.281   1.699  0.00  0.00    +0.150 HD
BRANCH  79  81
ATOM     81  CA  TYR A 14        3.272  -1.036   1.406  0.00  0.00    +0.186 C 
BRANCH  81  82
ATOM     82  C   TYR A 14        3.703  -2.497   1.143  0.00  0.00    +0.326 C 
ATOM     83  OXT TYR A 14        2.935  -3.411   0.916  0.00  0.00    -0.249 OA
BRANCH  82  84
ATOM     84  O   TYR A 14        5.065  -2.594   1.159  0.00  0.00    -0.479 OA
ATOM     85  H   TYR A 14        5.368  -3.486   0.979  0.00  0.00    +0.295 HD
ENDBRANCH  82  84
ENDBRANCH  81  82
BRANCH  81  86
ATOM     86  CB  TYR A 14        3.499  -0.587   2.868  0.00  0.00    +0.069 C 
BRANCH  86  87
ATOM     87  CG  TYR A 14        4.952  -0.427   3.282  0.00  0.00    -0.045 A 
ATOM     88  CD2 TYR A 14        5.734   0.601   2.715  0.00  0.00    +0.007 A 
ATOM     89  CE2 TYR A 14        7.086   0.747   3.080  0.00  0.00    +0.045 A 
ATOM     90  CZ  TYR A 14        7.660  -0.134   4.018  0.00  0.00    +0.117 A 
ATOM     91  CE1 TYR A 14        6.881  -1.159   4.590  0.00  0.00    +0.045 A 
ATOM     92  CD1 TYR A 14        5.529  -1.306   4.223  0.00  0.00    +0.007 A 
BRANCH  90  93
ATOM     93  OH  TYR A 14        8.971   0.004   4.370  0.00  0.00    -0.507 OA
ATOM     94  HH  TYR A 14        9.406   0.727   3.913  0.00  0.00    +0.292 HD
ENDBRANCH  90  93
ENDBRANCH  86  87
ENDBRANCH  81  86
ENDBRANCH  79  81
ENDBRANCH  16  77
BRANCH  41  95
ATOM     95  N   CYS A  1        3.727   2.517 -10.293  0.00  0.00    -0.319 NA
ATOM     96  H1  CYS A  1        4.474   3.193 -10.215  0.00  0.00    +0.119 HD
ATOM     97  H2  CYS A  1        4.043   1.842 -10.975  0.00  0.00    +0.119 HD
ENDBRANCH  41  95
BRANCH  26  98
ATOM     98  CB  THR A 11        4.402   5.043   1.550  0.00  0.00    +0.141 C 
ATOM     99  CG2 THR A 11        5.352   6.211   1.237  0.00  0.00    +0.040 C 
BRANCH  98 100
ATOM    100  OG1 THR A 11        3.741   5.296   2.779  0.00  0.00    -0.390 OA
ATOM    101  HG1 THR A 11        3.301   4.490   3.059  0.00  0.00    +0.210 HD
ENDBRANCH  98 100
ENDBRANCH  26  98
BRANCH   1 102
ATOM    102  CB  GLU A  3       -2.527   6.517  -6.994  0.00  0.00    +0.043 C 
BRANCH 102 103
ATOM    103  CG  GLU A  3       -1.895   7.922  -6.940  0.00  0.00    +0.123 C 
BRANCH 103 104
ATOM    104  CD  GLU A  3       -2.810   9.012  -7.500  0.00  0.00    +0.305 C 
ATOM    105  OE2 GLU A  3       -3.857   8.798  -8.109  0.00  0.00    -0.251 OA
BRANCH 104 106
ATOM    106  OE1 GLU A  3       -2.317  10.259  -7.256  0.00  0.00    -0.481 OA
ATOM    107  HE1 GLU A  3       -2.880  10.953  -7.606  0.00  0.00    +0.295 HD
ENDBRANCH 104 106
ENDBRANCH 103 104
ENDBRANCH 102 103
ENDBRANCH   1 102
BRANCH   6 108
ATOM    108  CB  TYR A  4       -3.238   1.854  -9.017  0.00  0.00    +0.067 C 
BRANCH 108 109
ATOM    109  CG  TYR A  4       -3.523   3.146  -9.766  0.00  0.00    -0.045 A 
ATOM    110  CD2 TYR A  4       -4.827   3.682  -9.789  0.00  0.00    +0.007 A 
ATOM    111  CE2 TYR A  4       -5.075   4.910 -10.432  0.00  0.00    +0.045 A 
ATOM    112  CZ  TYR A  4       -4.020   5.607 -11.054  0.00  0.00    +0.117 A 
ATOM    113  CE1 TYR A  4       -2.717   5.071 -11.039  0.00  0.00    +0.045 A 
ATOM    114  CD1 TYR A  4       -2.471   3.842 -10.398  0.00  0.00    +0.007 A 
BRANCH 112 115
ATOM    115  OH  TYR A  4       -4.258   6.803 -11.667  0.00  0.00    -0.507 OA
ATOM    116  HH  TYR A  4       -5.175   7.078 -11.611  0.00  0.00    +0.292 HD
ENDBRANCH 112 115
ENDBRANCH 108 109
ENDBRANCH   6 108
BRANCH  51 117
ATOM    117  CB  ASN A  7        4.905  -3.305  -5.271  0.00  0.00    +0.127 C 
BRANCH 117 118
ATOM    118  CG  ASN A  7        4.337  -4.393  -6.193  0.00  0.00    +0.213 C 
ATOM    119  ND2 ASN A  7        4.628  -5.662  -5.894  0.00  0.00    -0.329 N 
ATOM    120 HD21 ASN A  7        5.194  -5.881  -5.087  0.00  0.00    +0.145 HD
ATOM    121 HD22 ASN A  7        4.285  -6.412  -6.477  0.00  0.00    +0.145 HD
ATOM    122  OD1 ASN A  7        3.657  -4.091  -7.172  0.00  0.00    -0.276 OA
ENDBRANCH 117 118
ENDBRANCH  51 117
TORSDOF 19
