REMARK  Name = DB08921
REMARK                            x       y       z     vdW  Elec       q    Type
REMARK                         _______ _______ _______ _____ _____    ______ ____
ROOT
ATOM      1  C   LIG    1        0.038  -0.124   0.160  0.00  0.00    +0.018 C 
ATOM      2  C   LIG    1       -0.519  -0.423  -1.256  0.00  0.00    +0.035 C 
ATOM      3  C   LIG    1       -2.018  -0.718  -1.204  0.00  0.00    -0.027 C 
ATOM      4  C   LIG    1       -2.723  -0.971  -0.077  0.00  0.00    -0.076 C 
ATOM      5  C   LIG    1       -2.065  -0.953   1.305  0.00  0.00    +0.031 C 
ATOM      6  C   LIG    1       -4.227  -1.181  -0.108  0.00  0.00    +0.039 C 
ATOM      7  C   LIG    1       -0.536  -1.125   1.192  0.00  0.00    +0.012 C 
ENDROOT
BRANCH   1   9
ATOM      8  C   LIG    1        2.130   1.230  -0.510  0.00  0.00    +0.039 C 
ATOM      9  C   LIG    1        1.570  -0.012   0.168  0.00  0.00    -0.076 C 
ATOM     10  C   LIG    1        2.393  -0.919   0.729  0.00  0.00    +0.007 C 
ENDBRANCH   1   9
TORSDOF 1
