REMARK  Name = DB08895
REMARK                            x       y       z     vdW  Elec       q    Type
REMARK                         _______ _______ _______ _____ _____    ______ ____
ROOT
ATOM      1  C   LIG    1       -1.112  -2.557  -0.182  0.00  0.00    +0.108 C 
ATOM      2  C   LIG    1       -0.508  -2.271   1.207  0.00  0.00    +0.024 C 
ATOM      3  C   LIG    1       -0.311  -0.759   1.475  0.00  0.00    +0.009 C 
ATOM      4  C   LIG    1        0.310  -0.464   2.856  0.00  0.00    +0.009 C 
ATOM      5  C   LIG    1        0.327   0.012   0.271  0.00  0.00    +0.095 C 
ATOM      6  C   LIG    1       -0.185  -0.450  -1.128  0.00  0.00    +0.130 C 
ATOM      7  N   LIG    1       -0.243  -1.922  -1.187  0.00  0.00    -0.299 N 
ATOM      8  C   LIG    1        0.552  -2.663  -2.002  0.00  0.00    +0.229 C 
ATOM      9  O   LIG    1        0.598  -3.893  -1.944  0.00  0.00    -0.274 OA
ENDROOT
BRANCH   5  10
ATOM     10  N   LIG    1        1.807   0.110   0.316  0.00  0.00    -0.313 N 
ATOM     11  C   LIG    1        2.616  -1.114   0.404  0.00  0.00    +0.131 C 
BRANCH  10  12
ATOM     12  C   LIG    1        2.394   1.208  -0.376  0.00  0.00    +0.134 A 
ATOM     13  C   LIG    1        1.951   2.548  -0.201  0.00  0.00    +0.059 A 
ATOM     14  C   LIG    1        0.989   3.262   0.600  0.00  0.00    +0.032 A 
ATOM     15  C   LIG    1        1.083   4.598   0.258  0.00  0.00    +0.085 A 
ATOM     16  N   LIG    1        2.064   4.760  -0.689  0.00  0.00    -0.346 N 
ATOM     17  H   LIG    1        2.311   5.661  -1.072  0.00  0.00    +0.167 HD
ATOM     18  C   LIG    1        2.626   3.537  -0.980  0.00  0.00    +0.143 A 
ATOM     19  N   LIG    1        3.629   3.312  -1.832  0.00  0.00    -0.218 NA
ATOM     20  C   LIG    1        3.994   2.007  -1.887  0.00  0.00    +0.225 A 
ATOM     21  N   LIG    1        3.449   0.966  -1.212  0.00  0.00    -0.220 NA
ENDBRANCH  10  12
ENDBRANCH   5  10
BRANCH   8  22
ATOM     22  C   LIG    1        1.339  -1.950  -3.115  0.00  0.00    +0.214 C 
BRANCH  22  23
ATOM     23  C   LIG    1        2.109  -2.805  -4.033  0.00  0.00    +0.072 C 
ATOM     24  N   LIG    1        2.715  -3.476  -4.756  0.00  0.00    -0.196 NA
ENDBRANCH  22  23
ENDBRANCH   8  22
TORSDOF 4
