REMARK  Name = DB08909
REMARK                            x       y       z     vdW  Elec       q    Type
REMARK                         _______ _______ _______ _____ _____    ______ ____
ROOT
ATOM      1  C   LIG    1        1.882  -0.258  -0.210  0.00  0.00    +0.251 C 
ENDROOT
BRANCH   1   2
ATOM      2  C   LIG    1        0.368  -0.152   0.051  0.00  0.00    +0.280 C 
BRANCH   2   3
ATOM      3  O   LIG    1       -0.050   1.192  -0.154  0.00  0.00    -0.461 OA
BRANCH   3   4
ATOM      4  C   LIG    1       -1.297   1.585   0.171  0.00  0.00    +0.307 C 
ATOM      5  O   LIG    1       -2.192   0.869   0.623  0.00  0.00    -0.251 OA
BRANCH   4   6
ATOM      6  C   LIG    1       -1.528   3.074  -0.101  0.00  0.00    +0.121 C 
BRANCH   6   7
ATOM      7  C   LIG    1       -2.479   3.347  -1.285  0.00  0.00    +0.016 C 
BRANCH   7   8
ATOM      8  C   LIG    1       -1.923   2.915  -2.657  0.00  0.00    +0.035 C 
BRANCH   8   9
ATOM      9  C   LIG    1       -2.887   3.209  -3.797  0.00  0.00    -0.047 A 
ATOM     10  C   LIG    1       -2.801   4.418  -4.492  0.00  0.00    +0.003 A 
ATOM     11  C   LIG    1       -3.688   4.686  -5.531  0.00  0.00    +0.000 A 
ATOM     12  C   LIG    1       -4.658   3.745  -5.871  0.00  0.00    +0.000 A 
ATOM     13  C   LIG    1       -4.750   2.539  -5.180  0.00  0.00    +0.000 A 
ATOM     14  C   LIG    1       -3.863   2.270  -4.141  0.00  0.00    +0.003 A 
ENDBRANCH   8   9
ENDBRANCH   7   8
ENDBRANCH   6   7
ENDBRANCH   4   6
ENDBRANCH   3   4
ENDBRANCH   2   3
ENDBRANCH   1   2
BRANCH   1  15
ATOM     15  O   LIG    1        2.554   0.481   0.811  0.00  0.00    -0.454 OA
BRANCH  15  16
ATOM     16  C   LIG    1        3.775   1.026   0.612  0.00  0.00    +0.308 C 
ATOM     17  O   LIG    1        4.479   0.892  -0.390  0.00  0.00    -0.251 OA
BRANCH  16  18
ATOM     18  C   LIG    1        4.214   1.907   1.784  0.00  0.00    +0.121 C 
BRANCH  18  19
ATOM     19  C   LIG    1        3.736   3.372   1.662  0.00  0.00    +0.016 C 
BRANCH  19  20
ATOM     20  C   LIG    1        2.206   3.560   1.746  0.00  0.00    +0.035 C 
BRANCH  20  21
ATOM     21  C   LIG    1        1.779   5.015   1.625  0.00  0.00    -0.047 A 
ATOM     22  C   LIG    1        1.698   5.816   2.767  0.00  0.00    +0.003 A 
ATOM     23  C   LIG    1        1.301   7.146   2.656  0.00  0.00    +0.000 A 
ATOM     24  C   LIG    1        0.986   7.670   1.403  0.00  0.00    +0.000 A 
ATOM     25  C   LIG    1        1.067   6.877   0.261  0.00  0.00    +0.000 A 
ATOM     26  C   LIG    1        1.465   5.547   0.371  0.00  0.00    +0.003 A 
ENDBRANCH  20  21
ENDBRANCH  19  20
ENDBRANCH  18  19
ENDBRANCH  16  18
ENDBRANCH  15  16
ENDBRANCH   1  15
BRANCH   1  27
ATOM     27  C   LIG    1        2.388  -1.716  -0.264  0.00  0.00    +0.280 C 
BRANCH  27  28
ATOM     28  O   LIG    1        1.936  -2.460   0.863  0.00  0.00    -0.461 OA
BRANCH  28  29
ATOM     29  C   LIG    1        2.135  -3.791   0.933  0.00  0.00    +0.307 C 
ATOM     30  O   LIG    1        2.706  -4.485   0.089  0.00  0.00    -0.251 OA
BRANCH  29  31
ATOM     31  C   LIG    1        1.516  -4.408   2.192  0.00  0.00    +0.121 C 
BRANCH  31  32
ATOM     32  C   LIG    1        0.572  -5.597   1.910  0.00  0.00    +0.016 C 
BRANCH  32  33
ATOM     33  C   LIG    1       -0.711  -5.215   1.141  0.00  0.00    +0.035 C 
BRANCH  33  34
ATOM     34  C   LIG    1       -1.610  -6.410   0.864  0.00  0.00    -0.047 A 
ATOM     35  C   LIG    1       -2.620  -6.751   1.767  0.00  0.00    +0.003 A 
ATOM     36  C   LIG    1       -3.442  -7.846   1.511  0.00  0.00    +0.000 A 
ATOM     37  C   LIG    1       -3.249  -8.596   0.352  0.00  0.00    +0.000 A 
ATOM     38  C   LIG    1       -2.243  -8.262  -0.552  0.00  0.00    +0.000 A 
ATOM     39  C   LIG    1       -1.421  -7.167  -0.295  0.00  0.00    +0.003 A 
ENDBRANCH  33  34
ENDBRANCH  32  33
ENDBRANCH  31  32
ENDBRANCH  29  31
ENDBRANCH  28  29
ENDBRANCH  27  28
ENDBRANCH   1  27
TORSDOF 20
