REMARK  Name = DB08836
REMARK                            x       y       z     vdW  Elec       q    Type
REMARK                         _______ _______ _______ _____ _____    ______ ____
ROOT
ATOM      1  C   LIG    1       -0.854   4.691   0.555  0.00  0.00    +0.100 C 
ATOM      2  S   LIG    1       -0.566   3.546   1.938  0.00  0.00    -0.149 S 
ATOM      3  C   LIG    1        0.502   2.367   1.064  0.00  0.00    +0.098 C 
ATOM      4  C   LIG    1       -0.219   1.553  -0.047  0.00  0.00    +0.151 C 
ATOM      5  C   LIG    1       -0.160   2.160  -1.485  0.00  0.00    +0.234 C 
ATOM      6  O   LIG    1        0.476   1.613  -2.392  0.00  0.00    -0.274 OA
ATOM      7  N   LIG    1       -0.805   3.357  -1.640  0.00  0.00    -0.288 N 
ATOM      8  C   LIG    1       -1.625   4.022  -0.610  0.00  0.00    +0.127 C 
ENDROOT
BRANCH   1   9
ATOM      9  C   LIG    1       -1.553   5.948   1.044  0.00  0.00    +0.004 A 
ATOM     10  S   LIG    1       -0.639   7.287   1.696  0.00  0.00    -0.100 S 
ATOM     11  C   LIG    1       -2.072   8.209   1.996  0.00  0.00    +0.045 A 
ATOM     12  C   LIG    1       -3.208   7.519   1.619  0.00  0.00    +0.008 A 
ATOM     13  C   LIG    1       -2.916   6.257   1.093  0.00  0.00    +0.012 A 
ENDBRANCH   1   9
BRANCH   4  14
ATOM     14  N   LIG    1        0.217   0.145  -0.055  0.00  0.00    -0.293 NA
ATOM     15  H   LIG    1       -0.228  -0.356   0.701  0.00  0.00    +0.123 HD
BRANCH  14  16
ATOM     16  C   LIG    1        1.674  -0.138  -0.124  0.00  0.00    +0.164 C 
BRANCH  16  17
ATOM     17  C   LIG    1        1.956  -1.012  -1.339  0.00  0.00    +0.324 C 
ATOM     18  O   LIG    1        1.183  -1.878  -1.762  0.00  0.00    -0.249 OA
BRANCH  17  19
ATOM     19  O   LIG    1        3.170  -0.732  -1.863  0.00  0.00    -0.464 OA
BRANCH  19  20
ATOM     20  C   LIG    1        3.650  -1.435  -3.001  0.00  0.00    +0.229 C 
ATOM     21  C   LIG    1        5.043  -0.914  -3.369  0.00  0.00    +0.048 C 
ENDBRANCH  19  20
ENDBRANCH  17  19
ENDBRANCH  16  17
BRANCH  16  22
ATOM     22  C   LIG    1        2.146  -0.871   1.160  0.00  0.00    +0.035 C 
BRANCH  22  23
ATOM     23  C   LIG    1        3.676  -0.874   1.369  0.00  0.00    +0.037 C 
BRANCH  23  24
ATOM     24  C   LIG    1        4.088  -1.523   2.682  0.00  0.00    -0.047 A 
ATOM     25  C   LIG    1        4.383  -2.888   2.723  0.00  0.00    +0.003 A 
ATOM     26  C   LIG    1        4.757  -3.482   3.925  0.00  0.00    +0.000 A 
ATOM     27  C   LIG    1        4.834  -2.710   5.082  0.00  0.00    +0.000 A 
ATOM     28  C   LIG    1        4.540  -1.348   5.048  0.00  0.00    +0.000 A 
ATOM     29  C   LIG    1        4.166  -0.753   3.846  0.00  0.00    +0.003 A 
ENDBRANCH  23  24
ENDBRANCH  22  23
ENDBRANCH  16  22
ENDBRANCH  14  16
ENDBRANCH   4  14
BRANCH   7  30
ATOM     30  C   LIG    1       -0.738   4.031  -2.962  0.00  0.00    +0.228 C 
BRANCH  30  31
ATOM     31  C   LIG    1        0.256   5.218  -3.034  0.00  0.00    +0.322 C 
ATOM     32  O   LIG    1        0.024   6.067  -3.923  0.00  0.00    -0.249 OA
BRANCH  31  33
ATOM     33  O   LIG    1        1.237   5.269  -2.255  0.00  0.00    -0.480 OA
ATOM     34  H   LIG    1        1.835   5.988  -2.302  0.00  0.00    +0.295 HD
ENDBRANCH  31  33
ENDBRANCH  30  31
ENDBRANCH   7  30
TORSDOF 12
