REMARK  Name = DB08804
REMARK                            x       y       z     vdW  Elec       q    Type
REMARK                         _______ _______ _______ _____ _____    ______ ____
ROOT
ATOM      1  C   LIG    1       -1.460   1.992  -7.163  0.00  0.00    +0.002 C 
ATOM      2  C   LIG    1       -2.846   2.319  -6.588  0.00  0.00    +0.008 C 
ATOM      3  C   LIG    1       -2.732   1.939  -5.097  0.00  0.00    +0.045 C 
ATOM      4  C   LIG    1       -1.246   1.567  -4.865  0.00  0.00    +0.183 C 
ATOM      5  C   LIG    1       -0.469   2.267  -6.007  0.00  0.00    +0.008 C 
ATOM      6  C   LIG    1       -0.269   3.784  -5.686  0.00  0.00    +0.015 C 
ATOM      7  C   LIG    1        0.872   1.593  -6.392  0.00  0.00    +0.011 C 
ATOM      8  C   LIG    1        1.417   2.145  -7.735  0.00  0.00    +0.005 C 
ATOM      9  C   LIG    1        0.391   2.015  -8.906  0.00  0.00    -0.000 C 
ATOM     10  C   LIG    1        0.890   2.648 -10.248  0.00  0.00    +0.019 C 
ATOM     11  C   LIG    1        2.261   2.144 -10.794  0.00  0.00    +0.016 C 
ATOM     12  C   LIG    1        2.190   0.883 -11.677  0.00  0.00    +0.079 C 
ATOM     13  C   LIG    1        1.170   1.054 -12.809  0.00  0.00    +0.156 C 
ATOM     14  O   LIG    1        1.319   0.528 -13.911  0.00  0.00    -0.293 OA
ATOM     15  C   LIG    1       -0.052   1.759 -12.453  0.00  0.00    +0.045 C 
ATOM     16  C   LIG    1       -0.214   2.476 -11.317  0.00  0.00    -0.063 C 
ATOM     17  C   LIG    1       -1.543   3.117 -10.936  0.00  0.00    +0.031 C 
ATOM     18  C   LIG    1       -2.026   2.462  -9.629  0.00  0.00    +0.008 C 
ATOM     19  C   LIG    1       -0.991   2.635  -8.496  0.00  0.00    -0.003 C 
ENDROOT
BRANCH   4  20
ATOM     20  O   LIG    1       -0.766   1.936  -3.569  0.00  0.00    -0.461 OA
BRANCH  20  21
ATOM     21  C   LIG    1       -1.111   1.248  -2.458  0.00  0.00    +0.307 C 
ATOM     22  O   LIG    1       -1.839   0.254  -2.422  0.00  0.00    -0.251 OA
BRANCH  21  23
ATOM     23  C   LIG    1       -0.483   1.861  -1.198  0.00  0.00    +0.120 C 
BRANCH  23  24
ATOM     24  C   LIG    1       -0.652   1.047   0.108  0.00  0.00    +0.011 C 
BRANCH  24  25
ATOM     25  C   LIG    1        0.077  -0.314   0.157  0.00  0.00    +0.001 C 
BRANCH  25  26
ATOM     26  C   LIG    1        1.607  -0.216   0.006  0.00  0.00    +0.000 C 
BRANCH  26  27
ATOM     27  C   LIG    1        2.313  -1.571   0.193  0.00  0.00    +0.000 C 
BRANCH  27  28
ATOM     28  C   LIG    1        3.838  -1.485   0.004  0.00  0.00    -0.000 C 
BRANCH  28  29
ATOM     29  C   LIG    1        4.544  -2.834   0.229  0.00  0.00    -0.000 C 
BRANCH  29  30
ATOM     30  C   LIG    1        6.066  -2.760   0.013  0.00  0.00    -0.003 C 
ATOM     31  C   LIG    1        6.767  -4.106   0.246  0.00  0.00    +0.004 C 
ENDBRANCH  29  30
ENDBRANCH  28  29
ENDBRANCH  27  28
ENDBRANCH  26  27
ENDBRANCH  25  26
ENDBRANCH  24  25
ENDBRANCH  23  24
ENDBRANCH  21  23
ENDBRANCH  20  21
ENDBRANCH   4  20
TORSDOF 10
