REMARK  Name = DB08094
REMARK                            x       y       z     vdW  Elec       q    Type
REMARK                         _______ _______ _______ _____ _____    ______ ____
ROOT
ATOM      1  C   LIG    1        1.626   0.024   0.198  0.00  0.00    +0.217 A 
ATOM      2  N   LIG    1        2.197  -1.102   0.689  0.00  0.00    -0.199 NA
ATOM      3  C   LIG    1        3.546  -1.224   0.585  0.00  0.00    +0.132 A 
ATOM      4  C   LIG    1        4.351  -0.225  -0.016  0.00  0.00    +0.080 A 
ATOM      5  C   LIG    1        3.653   0.902  -0.483  0.00  0.00    +0.129 A 
ATOM      6  N   LIG    1        2.308   1.042  -0.389  0.00  0.00    -0.222 NA
ENDROOT
BRANCH   3   7
ATOM      7  N   LIG    1        4.057  -2.414   1.107  0.00  0.00    -0.342 N 
ATOM      8  H   LIG    1        3.425  -3.083   1.523  0.00  0.00    +0.144 HD
ATOM      9  H   LIG    1        5.053  -2.581   1.075  0.00  0.00    +0.144 HD
ENDBRANCH   3   7
BRANCH   1  10
ATOM     10  N   LIG    1        0.230   0.095   0.331  0.00  0.00    -0.310 N 
ATOM     11  H   LIG    1       -0.207  -0.609   0.908  0.00  0.00    +0.149 HD
BRANCH  10  14
ATOM     12  C   LIG    1       -2.887   2.192  -0.386  0.00  0.00    +0.111 C 
ATOM     13  C   LIG    1       -1.974   0.951  -0.305  0.00  0.00    +0.039 C 
ATOM     14  C   LIG    1       -0.523   1.325   0.080  0.00  0.00    +0.076 C 
ATOM     15  C   LIG    1       -0.479   2.216   1.346  0.00  0.00    +0.039 C 
ATOM     16  C   LIG    1       -1.423   3.429   1.220  0.00  0.00    +0.111 C 
ATOM     17  N   LIG    1       -2.795   2.983   0.868  0.00  0.00    -0.181 NA
BRANCH  17  18
ATOM     18  S   LIG    1       -4.072   4.186   1.118  0.00  0.00    +0.029 S 
ATOM     19  C   LIG    1       -4.252   4.252   2.995  0.00  0.00    +0.215 C 
ATOM     20  O   LIG    1       -5.322   3.653   0.565  0.00  0.00    -0.158 OA
ATOM     21  O   LIG    1       -3.561   5.484   0.663  0.00  0.00    -0.158 OA
ENDBRANCH  17  18
ENDBRANCH  10  14
ENDBRANCH   1  10
BRANCH   4  22
ATOM     22  C   LIG    1        5.854  -0.297  -0.147  0.00  0.00    +0.204 C 
ATOM     23  O   LIG    1        6.517  -1.172   0.412  0.00  0.00    -0.286 OA
BRANCH  22  24
ATOM     24  C   LIG    1        6.573   0.727  -0.965  0.00  0.00    +0.102 A 
ATOM     25  C   LIG    1        7.377   1.679  -0.317  0.00  0.00    +0.173 A 
ATOM     26  F   LIG    1        7.521   1.671   1.031  0.00  0.00    -0.202 F 
ATOM     27  C   LIG    1        8.040   2.657  -1.058  0.00  0.00    +0.159 A 
ATOM     28  F   LIG    1        8.815   3.574  -0.434  0.00  0.00    -0.202 F 
ATOM     29  C   LIG    1        7.902   2.697  -2.442  0.00  0.00    +0.045 A 
ATOM     30  C   LIG    1        7.103   1.760  -3.091  0.00  0.00    +0.049 A 
ATOM     31  C   LIG    1        6.425   0.763  -2.367  0.00  0.00    +0.134 A 
BRANCH  31  32
ATOM     32  O   LIG    1        5.617  -0.190  -2.967  0.00  0.00    -0.494 OA
ATOM     33  C   LIG    1        5.427  -0.168  -4.378  0.00  0.00    +0.277 C 
ENDBRANCH  31  32
ENDBRANCH  22  24
ENDBRANCH   4  22
TORSDOF 7
