REMARK  Name = DB08899
REMARK                            x       y       z     vdW  Elec       q    Type
REMARK                         _______ _______ _______ _____ _____    ______ ____
ROOT
ATOM      1  C   LIG    1       -0.734  -0.933  -0.017  0.00  0.00    +0.112 C 
ATOM      2  C   LIG    1       -0.633  -1.900   1.192  0.00  0.00    +0.042 C 
ATOM      3  C   LIG    1       -0.460  -1.689  -1.343  0.00  0.00    +0.042 C 
ATOM      4  C   LIG    1       -2.142  -0.375  -0.066  0.00  0.00    +0.249 C 
ATOM      5  O   LIG    1       -3.185  -1.025  -0.187  0.00  0.00    -0.272 OA
ATOM      6  N   LIG    1       -1.972   0.957   0.047  0.00  0.00    -0.220 N 
ATOM      7  C   LIG    1       -0.680   1.417   0.176  0.00  0.00    +0.152 C 
ATOM      8  S   LIG    1       -0.147   3.005   0.343  0.00  0.00    -0.017 S 
ATOM      9  N   LIG    1        0.078   0.269   0.131  0.00  0.00    -0.268 N 
ENDROOT
BRANCH   9  10
ATOM     10  C   LIG    1        1.484   0.227   0.206  0.00  0.00    +0.039 A 
ATOM     11  C   LIG    1        2.252   0.416  -0.946  0.00  0.00    +0.024 A 
ATOM     12  C   LIG    1        3.642   0.360  -0.872  0.00  0.00    +0.018 A 
ATOM     13  C   LIG    1        4.291   0.104   0.348  0.00  0.00    +0.072 A 
ATOM     14  C   LIG    1        3.506  -0.085   1.502  0.00  0.00    +0.137 A 
ATOM     15  F   LIG    1        4.074  -0.318   2.709  0.00  0.00    -0.205 F 
ATOM     16  C   LIG    1        2.114  -0.026   1.427  0.00  0.00    +0.062 A 
BRANCH  13  17
ATOM     17  C   LIG    1        5.800   0.045   0.418  0.00  0.00    +0.247 C 
ATOM     18  O   LIG    1        6.365  -0.727   1.196  0.00  0.00    -0.270 OA
ATOM     19  N   LIG    1        6.458   0.879  -0.408  0.00  0.00    -0.314 N 
ATOM     20  H   LIG    1        5.920   1.488  -1.007  0.00  0.00    +0.149 HD
ATOM     21  C   LIG    1        7.909   0.992  -0.510  0.00  0.00    +0.128 C 
ENDBRANCH  13  17
ENDBRANCH   9  10
BRANCH   6  22
ATOM     22  C   LIG    1       -3.107   1.797   0.025  0.00  0.00    +0.044 A 
ATOM     23  C   LIG    1       -3.606   2.268  -1.194  0.00  0.00    +0.037 A 
ATOM     24  C   LIG    1       -4.739   3.095  -1.242  0.00  0.00    +0.074 A 
ATOM     25  C   LIG    1       -5.373   3.445  -0.027  0.00  0.00    +0.064 A 
ATOM     26  C   LIG    1       -4.869   2.966   1.188  0.00  0.00    +0.021 A 
ATOM     27  C   LIG    1       -3.745   2.146   1.218  0.00  0.00    +0.025 A 
BRANCH  24  28
ATOM     28  C   LIG    1       -5.249   3.586  -2.608  0.00  0.00    +0.419 C 
ATOM     29  F   LIG    1       -4.506   3.146  -3.626  0.00  0.00    -0.166 F 
ATOM     30  F   LIG    1       -5.236   4.919  -2.648  0.00  0.00    -0.166 F 
ATOM     31  F   LIG    1       -6.497   3.161  -2.807  0.00  0.00    -0.166 F 
ENDBRANCH  24  28
BRANCH  25  32
ATOM     32  C   LIG    1       -6.556   4.301   0.024  0.00  0.00    +0.100 C 
ATOM     33  N   LIG    1       -7.493   4.978   0.064  0.00  0.00    -0.191 NA
ENDBRANCH  25  32
ENDBRANCH   6  22
TORSDOF 5
