REMARK  Name = DB08889
REMARK                            x       y       z     vdW  Elec       q    Type
REMARK                         _______ _______ _______ _____ _____    ______ ____
ROOT
ATOM      1  C   LIG    1       -0.055   0.025   0.019  0.00  0.00    +0.159 C 
ENDROOT
BRANCH   1   4
ATOM      2  C   LIG    1       -0.868  -0.291  -2.307  0.00  0.00    +0.234 C 
ATOM      3  O   LIG    1       -0.732   0.887  -2.640  0.00  0.00    -0.274 OA
ATOM      4  N   LIG    1       -0.602  -0.769  -1.081  0.00  0.00    -0.302 N 
ATOM      5  H   LIG    1       -0.747  -1.749  -0.889  0.00  0.00    +0.150 HD
BRANCH   2   6
ATOM      6  C   LIG    1       -1.408  -1.315  -3.313  0.00  0.00    +0.159 C 
BRANCH   6   9
ATOM      7  C   LIG    1       -3.632  -2.434  -3.467  0.00  0.00    +0.228 C 
ATOM      8  O   LIG    1       -3.178  -3.449  -3.995  0.00  0.00    -0.274 OA
ATOM      9  N   LIG    1       -2.856  -1.382  -3.145  0.00  0.00    -0.303 N 
ATOM     10  H   LIG    1       -3.286  -0.569  -2.727  0.00  0.00    +0.149 HD
BRANCH   7  11
ATOM     11  C   LIG    1       -5.152  -2.368  -3.175  0.00  0.00    +0.180 C 
BRANCH  11  12
ATOM     12  N   LIG    1       -5.526  -1.275  -2.257  0.00  0.00    -0.290 NA
ATOM     13  C   LIG    1       -5.169  -1.565  -0.857  0.00  0.00    +0.113 C 
ATOM     14  C   LIG    1       -5.609  -0.422   0.082  0.00  0.00    +0.175 C 
ATOM     15  O   LIG    1       -7.006  -0.192  -0.060  0.00  0.00    -0.377 OA
ATOM     16  C   LIG    1       -7.364   0.168  -1.391  0.00  0.00    +0.175 C 
ATOM     17  C   LIG    1       -6.955  -0.952  -2.373  0.00  0.00    +0.113 C 
ENDBRANCH  11  12
ENDBRANCH   7  11
ENDBRANCH   6   9
BRANCH   6  18
ATOM     18  C   LIG    1       -0.993  -1.048  -4.785  0.00  0.00    +0.036 C 
BRANCH  18  19
ATOM     19  C   LIG    1        0.522  -0.863  -5.044  0.00  0.00    +0.037 C 
BRANCH  19  20
ATOM     20  C   LIG    1        1.392  -1.999  -4.518  0.00  0.00    -0.047 A 
ATOM     21  C   LIG    1        1.304  -3.270  -5.092  0.00  0.00    +0.003 A 
ATOM     22  C   LIG    1        2.091  -4.310  -4.604  0.00  0.00    +0.000 A 
ATOM     23  C   LIG    1        2.965  -4.074  -3.545  0.00  0.00    +0.000 A 
ATOM     24  C   LIG    1        3.061  -2.809  -2.970  0.00  0.00    +0.000 A 
ATOM     25  C   LIG    1        2.274  -1.770  -3.458  0.00  0.00    +0.003 A 
ENDBRANCH  19  20
ENDBRANCH  18  19
ENDBRANCH   6  18
ENDBRANCH   2   6
ENDBRANCH   1   4
BRANCH   1  26
ATOM     26  C   LIG    1        1.476   0.067  -0.073  0.00  0.00    +0.234 C 
ATOM     27  O   LIG    1        2.107  -0.983  -0.200  0.00  0.00    -0.274 OA
ATOM     28  N   LIG    1        2.036   1.283   0.030  0.00  0.00    -0.302 N 
ATOM     29  H   LIG    1        1.443   2.094   0.134  0.00  0.00    +0.150 HD
BRANCH  28  30
ATOM     30  C   LIG    1        3.474   1.535   0.073  0.00  0.00    +0.163 C 
BRANCH  30  31
ATOM     31  C   LIG    1        3.989   1.296   1.503  0.00  0.00    +0.234 C 
ATOM     32  O   LIG    1        3.835   2.168   2.359  0.00  0.00    -0.274 OA
ATOM     33  N   LIG    1        4.555   0.099   1.733  0.00  0.00    -0.304 N 
ATOM     34  H   LIG    1        4.614  -0.568   0.976  0.00  0.00    +0.149 HD
BRANCH  33  35
ATOM     35  C   LIG    1        5.021  -0.381   3.040  0.00  0.00    +0.143 C 
BRANCH  35  36
ATOM     36  C   LIG    1        6.492  -0.754   2.858  0.00  0.00    +0.187 C 
ATOM     37  O   LIG    1        6.961  -1.829   3.235  0.00  0.00    -0.292 OA
BRANCH  36  38
ATOM     38  C   LIG    1        7.447   0.305   2.278  0.00  0.00    +0.149 C 
ATOM     39  C   LIG    1        7.592   0.337   0.745  0.00  0.00    +0.052 C 
ATOM     40  C   LIG    1        7.673   1.575   3.041  0.00  0.00    +0.203 C 
ATOM     41  O   LIG    1        8.636   0.554   2.985  0.00  0.00    -0.361 OA
ENDBRANCH  36  38
ENDBRANCH  35  36
BRANCH  35  42
ATOM     42  C   LIG    1        4.155  -1.584   3.524  0.00  0.00    +0.033 C 
BRANCH  42  43
ATOM     43  C   LIG    1        2.622  -1.356   3.551  0.00  0.00    -0.015 C 
ATOM     44  C   LIG    1        1.873  -2.654   3.922  0.00  0.00    +0.007 C 
ATOM     45  C   LIG    1        2.207  -0.165   4.442  0.00  0.00    +0.007 C 
ENDBRANCH  42  43
ENDBRANCH  35  42
ENDBRANCH  33  35
ENDBRANCH  30  31
BRANCH  30  46
ATOM     46  C   LIG    1        3.739   2.964  -0.451  0.00  0.00    +0.067 C 
BRANCH  46  47
ATOM     47  C   LIG    1        5.200   3.376  -0.538  0.00  0.00    -0.045 A 
ATOM     48  C   LIG    1        5.992   2.930  -1.617  0.00  0.00    +0.004 A 
ATOM     49  C   LIG    1        7.346   3.236  -1.658  0.00  0.00    +0.000 A 
ATOM     50  C   LIG    1        7.932   3.959  -0.626  0.00  0.00    +0.000 A 
ATOM     51  C   LIG    1        7.171   4.375   0.460  0.00  0.00    +0.000 A 
ATOM     52  C   LIG    1        5.816   4.077   0.520  0.00  0.00    +0.004 A 
ENDBRANCH  46  47
ENDBRANCH  30  46
ENDBRANCH  28  30
ENDBRANCH   1  26
BRANCH   1  53
ATOM     53  C   LIG    1       -0.493  -0.593   1.366  0.00  0.00    +0.034 C 
BRANCH  53  54
ATOM     54  C   LIG    1       -2.009  -0.509   1.649  0.00  0.00    -0.015 C 
ATOM     55  C   LIG    1       -2.387  -1.337   2.896  0.00  0.00    +0.007 C 
ATOM     56  C   LIG    1       -2.506   0.949   1.744  0.00  0.00    +0.007 C 
ENDBRANCH  53  54
ENDBRANCH   1  53
TORSDOF 20
