REMARK  Name = DB08639
REMARK                            x       y       z     vdW  Elec       q    Type
REMARK                         _______ _______ _______ _____ _____    ______ ____
ROOT
ATOM      1  C   LIG    1        2.150   0.810  -0.941  0.00  0.00    +0.128 A 
ATOM      2  C   LIG    1        3.537   0.855  -0.775  0.00  0.00    +0.063 A 
ATOM      3  C   LIG    1        4.288   1.363  -1.837  0.00  0.00    +0.118 A 
ATOM      4  N   LIG    1        3.717   1.794  -2.992  0.00  0.00    -0.223 NA
ATOM      5  C   LIG    1        2.365   1.704  -3.081  0.00  0.00    +0.221 A 
ATOM      6  N   LIG    1        1.561   1.224  -2.096  0.00  0.00    -0.199 NA
ENDROOT
BRANCH   1   7
ATOM      7  N   LIG    1        1.358   0.289   0.093  0.00  0.00    -0.299 N 
ATOM      8  H   LIG    1        1.870  -0.258   0.769  0.00  0.00    +0.154 HD
BRANCH   7   9
ATOM      9  C   LIG    1       -0.045   0.224   0.231  0.00  0.00    +0.038 A 
ATOM     10  C   LIG    1       -0.887   1.343   0.033  0.00  0.00    -0.029 A 
ATOM     11  C   LIG    1       -0.359   2.749  -0.237  0.00  0.00    +0.045 C 
ATOM     12  C   LIG    1       -2.271   1.200   0.168  0.00  0.00    +0.008 A 
ATOM     13  C   LIG    1       -2.835  -0.026   0.515  0.00  0.00    -0.050 A 
ATOM     14  C   LIG    1       -4.338  -0.165   0.672  0.00  0.00    +0.044 C 
ATOM     15  C   LIG    1       -2.005  -1.119   0.750  0.00  0.00    +0.008 A 
ATOM     16  C   LIG    1       -0.618  -1.005   0.618  0.00  0.00    -0.029 A 
ATOM     17  C   LIG    1        0.237  -2.243   0.875  0.00  0.00    +0.045 C 
ENDBRANCH   7   9
ENDBRANCH   1   7
BRANCH   5  18
ATOM     18  N   LIG    1        1.813   2.164  -4.287  0.00  0.00    -0.284 N 
ATOM     19  H   LIG    1        2.511   2.535  -4.915  0.00  0.00    +0.155 HD
BRANCH  18  20
ATOM     20  C   LIG    1        0.509   2.220  -4.819  0.00  0.00    +0.034 A 
ATOM     21  C   LIG    1       -0.626   1.699  -4.182  0.00  0.00    +0.024 A 
ATOM     22  C   LIG    1       -1.878   1.798  -4.784  0.00  0.00    +0.020 A 
ATOM     23  C   LIG    1       -2.005   2.417  -6.028  0.00  0.00    +0.052 A 
ATOM     24  C   LIG    1       -0.881   2.936  -6.671  0.00  0.00    +0.020 A 
ATOM     25  C   LIG    1        0.369   2.835  -6.066  0.00  0.00    +0.024 A 
BRANCH  23  26
ATOM     26  C   LIG    1       -3.313   2.518  -6.658  0.00  0.00    +0.099 C 
ATOM     27  N   LIG    1       -4.353   2.599  -7.159  0.00  0.00    -0.191 NA
ENDBRANCH  23  26
ENDBRANCH  18  20
ENDBRANCH   5  18
TORSDOF 5
