REMARK  Name = DB08687
REMARK                            x       y       z     vdW  Elec       q    Type
REMARK                         _______ _______ _______ _____ _____    ______ ____
ROOT
ATOM      1  C   UNK A  1       -4.332  -2.272  -0.305  0.00  0.00    +0.001 A 
ATOM      2  C   UNK A  1       -2.946  -2.350  -0.215  0.00  0.00    +0.012 A 
ATOM      3  C   UNK A  1       -2.164  -1.182   0.013  0.00  0.00    +0.029 A 
ATOM      4  C   UNK A  1       -0.738  -1.217   0.113  0.00  0.00    +0.155 A 
ATOM      5  C   UNK A  1       -0.043  -0.012   0.338  0.00  0.00    +0.169 A 
ATOM      6  N   UNK A  1       -0.684   1.179   0.465  0.00  0.00    -0.226 NA
ATOM      7  C   UNK A  0       -2.030   1.221   0.371  0.00  0.00    +0.138 A 
ATOM      8 CL   UNK A  0       -2.747   2.787   0.544  0.00  0.00    -0.061 Cl
ATOM      9  C   UNK A  0       -2.837   0.074   0.146  0.00  0.00    +0.022 A 
ATOM     10  C   UNK A  0       -4.254   0.115   0.048  0.00  0.00    +0.011 A 
ATOM     11  C   UNK A  0       -4.981  -1.051  -0.175  0.00  0.00    +0.001 A 
ENDROOT
BRANCH   5  12
ATOM     12  C   UNK A  1        1.461   0.033   0.494  0.00  0.00    +0.267 C 
ATOM     13  N   UNK A  1        2.086   1.068  -0.106  0.00  0.00    -0.299 N 
ATOM     14  H   UNK A  1        1.530   1.712  -0.648  0.00  0.00    +0.150 HD
ATOM     15  O   UNK A  1        2.056  -0.836   1.135  0.00  0.00    -0.268 OA
BRANCH  13  16
ATOM     16  C   UNK A  1        3.536   1.324  -0.084  0.00  0.00    +0.225 C 
BRANCH  16  17
ATOM     17  C   UNK A  1        4.059   2.042   1.189  0.00  0.00    +0.322 C 
ATOM     18  O   UNK A  1        5.304   2.120   1.296  0.00  0.00    -0.249 OA
BRANCH  17  19
ATOM     19  O   UNK A  1        3.257   2.522   2.024  0.00  0.00    -0.480 OA
ATOM     20  H   UNK A  1        2.333   2.433   1.891  0.00  0.00    +0.295 HD
ENDBRANCH  17  19
ENDBRANCH  16  17
ENDBRANCH  13  16
ENDBRANCH   5  12
BRANCH   4  21
ATOM     21  O   UNK A  1       -0.073  -2.415  -0.027  0.00  0.00    -0.504 OA
ATOM     22  H   UNK A  1       -0.663  -3.158  -0.170  0.00  0.00    +0.292 HD
ENDBRANCH   4  21
TORSDOF 5
