REMARK  Name = DB08831
REMARK                            x       y       z     vdW  Elec       q    Type
REMARK                         _______ _______ _______ _____ _____    ______ ____
ROOT
ATOM      1  C   LIG    1       -0.040   0.080  -0.034  0.00  0.00    +0.174 C 
ENDROOT
BRANCH   1   2
ATOM      2  O   LIG    1       -0.580  -0.664  -1.117  0.00  0.00    -0.387 OA
ATOM      3  H   LIG    1       -0.248  -1.564  -1.066  0.00  0.00    +0.210 HD
ENDBRANCH   1   2
BRANCH   1   4
ATOM      4  C   LIG    1       -0.640   1.518  -0.042  0.00  0.00    +0.171 C 
BRANCH   4   5
ATOM      5  O   LIG    1       -0.065   2.278   1.009  0.00  0.00    -0.387 OA
ATOM      6  H   LIG    1        0.882   2.331   0.864  0.00  0.00    +0.210 HD
ENDBRANCH   4   5
BRANCH   4   7
ATOM      7  C   LIG    1       -2.180   1.548   0.116  0.00  0.00    +0.189 C 
BRANCH   7   8
ATOM      8  O   LIG    1       -2.702   2.839  -0.134  0.00  0.00    -0.392 OA
ATOM      9  H   LIG    1       -3.655   2.811  -0.025  0.00  0.00    +0.210 HD
ENDBRANCH   7   8
ENDBRANCH   4   7
ENDBRANCH   1   4
BRANCH   1  10
ATOM     10  C   LIG    1        1.516   0.003  -0.051  0.00  0.00    +0.152 C 
BRANCH  10  11
ATOM     11  O   LIG    1        2.033   0.731  -1.155  0.00  0.00    -0.389 OA
ATOM     12  H   LIG    1        1.690   0.342  -1.964  0.00  0.00    +0.210 HD
ENDBRANCH  10  11
BRANCH  10  13
ATOM     13  C   LIG    1        2.058  -1.449  -0.067  0.00  0.00    +0.104 C 
BRANCH  13  14
ATOM     14  C   LIG    1        3.576  -1.549   0.104  0.00  0.00    +0.226 C 
ATOM     15  O   LIG    1        4.277  -2.055  -0.769  0.00  0.00    -0.301 OA
ENDBRANCH  13  14
ENDBRANCH  10  13
ENDBRANCH   1  10
TORSDOF 9
