REMARK  Name = DB08860
REMARK                            x       y       z     vdW  Elec       q    Type
REMARK                         _______ _______ _______ _____ _____    ______ ____
ROOT
ATOM      1  C   LIG    1        4.575   2.963   7.239  0.00  0.00    +0.001 A 
ATOM      2  C   LIG    1        4.178   2.102   6.220  0.00  0.00    +0.010 A 
ATOM      3  C   LIG    1        3.669   2.612   4.989  0.00  0.00    +0.009 A 
ATOM      4  C   LIG    1        3.242   1.784   3.898  0.00  0.00    +0.000 A 
ATOM      5  C   LIG    1        2.776   2.412   2.721  0.00  0.00    +0.005 A 
ATOM      6  C   LIG    1        2.754   3.814   2.668  0.00  0.00    +0.053 A 
ATOM      7  N   LIG    1        3.146   4.607   3.691  0.00  0.00    -0.251 NA
ATOM      8  C   LIG    1        3.596   4.031   4.833  0.00  0.00    +0.072 A 
ATOM      9  C   LIG    1        4.007   4.881   5.889  0.00  0.00    +0.028 A 
ATOM     10  C   LIG    1        4.488   4.340   7.077  0.00  0.00    +0.002 A 
ENDROOT
BRANCH   4  11
ATOM     11  C   LIG    1        3.313   0.296   4.003  0.00  0.00    -0.016 A 
ATOM     12  C   LIG    1        4.210  -0.426   3.207  0.00  0.00    +0.011 A 
ATOM     13  C   LIG    1        4.265  -1.815   3.290  0.00  0.00    +0.039 A 
ATOM     14  C   LIG    1        3.422  -2.487   4.171  0.00  0.00    +0.123 A 
ATOM     15  F   LIG    1        3.473  -3.836   4.252  0.00  0.00    -0.205 F 
ATOM     16  C   LIG    1        2.526  -1.780   4.970  0.00  0.00    +0.039 A 
ATOM     17  C   LIG    1        2.473  -0.392   4.886  0.00  0.00    +0.011 A 
ENDBRANCH   4  11
BRANCH   6  18
ATOM     18  C   LIG    1        2.232   4.567   1.445  0.00  0.00    +0.038 C 
ATOM     19  C   LIG    1        2.748   5.927   1.021  0.00  0.00    +0.010 C 
ATOM     20  C   LIG    1        3.051   4.706   0.182  0.00  0.00    +0.010 C 
ENDBRANCH   6  18
BRANCH   5  21
ATOM     21  C   LIG    1        2.290   1.649   1.548  0.00  0.00    +0.008 C 
ATOM     22  C   LIG    1        1.352   0.686   1.576  0.00  0.00    +0.005 C 
BRANCH  22  23
ATOM     23  C   LIG    1        0.873  -0.080   0.357  0.00  0.00    +0.140 C 
BRANCH  23  24
ATOM     24  O   LIG    1        0.888  -1.453   0.686  0.00  0.00    -0.388 OA
ATOM     25  H   LIG    1        1.787  -1.700   0.918  0.00  0.00    +0.210 HD
ENDBRANCH  23  24
BRANCH  23  26
ATOM     26  C   LIG    1       -0.549   0.320  -0.097  0.00  0.00    +0.067 C 
BRANCH  26  27
ATOM     27  C   LIG    1       -0.683   1.785  -0.582  0.00  0.00    +0.128 C 
BRANCH  27  28
ATOM     28  O   LIG    1        0.161   1.992  -1.702  0.00  0.00    -0.391 OA
ATOM     29  H   LIG    1       -0.140   1.429  -2.419  0.00  0.00    +0.210 HD
ENDBRANCH  27  28
BRANCH  27  30
ATOM     30  C   LIG    1       -2.146   2.148  -0.937  0.00  0.00    +0.151 C 
BRANCH  30  31
ATOM     31  C   LIG    1       -2.365   3.625  -1.294  0.00  0.00    +0.307 C 
ATOM     32  O   LIG    1       -2.759   3.998  -2.397  0.00  0.00    -0.251 OA
BRANCH  31  33
ATOM     33  O   LIG    1       -2.087   4.451  -0.244  0.00  0.00    -0.481 OA
ATOM     34  H   LIG    1       -2.224   5.375  -0.463  0.00  0.00    +0.295 HD
ENDBRANCH  31  33
ENDBRANCH  30  31
ENDBRANCH  27  30
ENDBRANCH  26  27
ENDBRANCH  23  26
ENDBRANCH  22  23
ENDBRANCH   5  21
TORSDOF 11
