REMARK  Name = DB08936
REMARK                            x       y       z     vdW  Elec       q    Type
REMARK                         _______ _______ _______ _____ _____    ______ ____
ROOT
ATOM      1  C   LIG    1        1.396  -0.031   0.092  0.00  0.00    +0.117 C 
ENDROOT
BRANCH   1   2
ATOM      2  N   LIG    1       -0.083   0.020  -0.027  0.00  0.00    -0.289 NA
ATOM      3  C   LIG    1       -0.576  -0.636  -1.255  0.00  0.00    +0.100 C 
ATOM      4  C   LIG    1       -2.123  -0.638  -1.287  0.00  0.00    +0.099 C 
ATOM      5  N   LIG    1       -2.625   0.740  -1.274  0.00  0.00    -0.303 NA
ATOM      6  C   LIG    1       -2.150   1.405  -0.057  0.00  0.00    +0.099 C 
ATOM      7  C   LIG    1       -4.083   0.748  -1.319  0.00  0.00    +0.105 C 
ATOM      8  C   LIG    1       -0.602   1.402  -0.021  0.00  0.00    +0.100 C 
ENDBRANCH   1   2
BRANCH   1   9
ATOM      9  C   LIG    1        1.978  -1.452   0.032  0.00  0.00    -0.026 A 
ATOM     10  C   LIG    1        1.343  -2.528   0.668  0.00  0.00    +0.007 A 
ATOM     11  C   LIG    1        1.888  -3.807   0.591  0.00  0.00    +0.020 A 
ATOM     12  C   LIG    1        3.068  -4.014  -0.120  0.00  0.00    +0.041 A 
ATOM     13  C   LIG    1        3.708  -2.950  -0.753  0.00  0.00    +0.020 A 
ATOM     14 CL   LIG    1        3.742  -5.600  -0.216  0.00  0.00    -0.084 Cl
ATOM     15  C   LIG    1        3.164  -1.672  -0.676  0.00  0.00    +0.007 A 
ENDBRANCH   1   9
BRANCH   1  16
ATOM     16  C   LIG    1        1.948   0.692   1.330  0.00  0.00    -0.026 A 
ATOM     17  C   LIG    1        1.307   0.600   2.573  0.00  0.00    +0.005 A 
ATOM     18  C   LIG    1        1.825   1.269   3.679  0.00  0.00    +0.000 A 
ATOM     19  C   LIG    1        2.983   2.031   3.543  0.00  0.00    +0.000 A 
ATOM     20  C   LIG    1        3.629   2.128   2.313  0.00  0.00    +0.000 A 
ATOM     21  C   LIG    1        3.111   1.458   1.208  0.00  0.00    +0.005 A 
ENDBRANCH   1  16
TORSDOF 3
