REMARK  Name = DB08910
REMARK                            x       y       z     vdW  Elec       q    Type
REMARK                         _______ _______ _______ _____ _____    ______ ____
ROOT
ATOM      1  C   LIG    1       -0.801   1.322   0.003  0.00  0.00    +0.023 A 
ATOM      2  C   LIG    1       -0.019   0.161   0.025  0.00  0.00    +0.038 A 
ATOM      3  C   LIG    1       -0.669  -1.081   0.014  0.00  0.00    +0.070 A 
ATOM      4  C   LIG    1       -0.143  -2.475   0.028  0.00  0.00    +0.256 C 
ATOM      5  O   LIG    1        1.036  -2.830   0.053  0.00  0.00    -0.269 OA
ATOM      6  N   LIG    1       -1.245  -3.280   0.005  0.00  0.00    -0.222 N 
ATOM      7  C   LIG    1       -2.420  -2.593  -0.021  0.00  0.00    +0.255 C 
ATOM      8  O   LIG    1       -3.559  -3.061  -0.044  0.00  0.00    -0.270 OA
ATOM      9  C   LIG    1       -2.037  -1.159  -0.017  0.00  0.00    +0.051 A 
ATOM     10  C   LIG    1       -2.828  -0.010  -0.039  0.00  0.00    +0.014 A 
ATOM     11  C   LIG    1       -2.198   1.237  -0.030  0.00  0.00    +0.003 A 
ENDROOT
BRANCH   6  12
ATOM     12  C   LIG    1       -1.196  -4.766   0.017  0.00  0.00    +0.171 C 
ATOM     13  C   LIG    1       -0.663  -5.349  -1.327  0.00  0.00    +0.240 C 
ATOM     14  O   LIG    1       -0.609  -4.723  -2.385  0.00  0.00    -0.273 OA
ATOM     15  N   LIG    1       -0.289  -6.649  -1.260  0.00  0.00    -0.255 N 
ATOM     16  H   LIG    1        0.001  -7.037  -2.146  0.00  0.00    +0.158 HD
ATOM     17  C   LIG    1       -0.219  -7.527  -0.229  0.00  0.00    +0.219 C 
ATOM     18  O   LIG    1        0.118  -8.696  -0.404  0.00  0.00    -0.275 OA
ATOM     19  C   LIG    1       -0.608  -6.964   1.159  0.00  0.00    +0.098 C 
ATOM     20  C   LIG    1       -0.465  -5.431   1.206  0.00  0.00    +0.041 C 
ENDBRANCH   6  12
BRANCH   2  21
ATOM     21  N   LIG    1        1.372   0.278   0.059  0.00  0.00    -0.357 N 
ATOM     22  H   LIG    1        1.796   1.195   0.064  0.00  0.00    +0.142 HD
ATOM     23  H   LIG    1        1.938  -0.558   0.075  0.00  0.00    +0.142 HD
ENDBRANCH   2  21
TORSDOF 2
