REMARK  Name = DB08882
REMARK                            x       y       z     vdW  Elec       q    Type
REMARK                         _______ _______ _______ _____ _____    ______ ____
ROOT
ATOM      1  N   LIG    1        1.710   0.277  -0.023  0.00  0.00    -0.252 N 
ATOM      2  C   LIG    1        2.343   0.020   1.185  0.00  0.00    +0.283 A 
ATOM      3  O   LIG    1        1.754  -0.210   2.244  0.00  0.00    -0.265 OA
ATOM      4  C   LIG    1        3.783   0.055   1.009  0.00  0.00    +0.154 A 
ATOM      5  N   LIG    1        4.812  -0.172   1.906  0.00  0.00    -0.295 N 
ATOM      6  C   LIG    1        5.971   0.029   1.162  0.00  0.00    +0.202 A 
ATOM      7  N   LIG    1        5.717   0.379  -0.082  0.00  0.00    -0.196 NA
ATOM      8  C   LIG    1        4.401   0.380  -0.183  0.00  0.00    +0.170 A 
ATOM      9  N   LIG    1        3.626   0.672  -1.297  0.00  0.00    -0.279 N 
ATOM     10  C   LIG    1        4.276   1.057  -2.559  0.00  0.00    +0.155 C 
ATOM     11  C   LIG    1        2.253   0.603  -1.265  0.00  0.00    +0.334 A 
ATOM     12  O   LIG    1        1.567   0.822  -2.271  0.00  0.00    -0.246 OA
ENDROOT
BRANCH   6  13
ATOM     13  N   LIG    1        7.245  -0.078   1.663  0.00  0.00    -0.299 N 
ATOM     14  C   LIG    1        7.720  -1.259   2.397  0.00  0.00    +0.108 C 
ATOM     15  C   LIG    1        8.629  -0.892   3.580  0.00  0.00    +0.020 C 
ATOM     16  C   LIG    1        9.832  -0.069   3.116  0.00  0.00    +0.021 C 
ATOM     17  C   LIG    1        9.369   1.158   2.311  0.00  0.00    +0.068 C 
ATOM     18  C   LIG    1        8.337   0.807   1.209  0.00  0.00    +0.126 C 
BRANCH  17  19
ATOM     19  N   LIG    1       10.478   1.942   1.803  0.00  0.00    -0.326 NA
ATOM     20  H   LIG    1       10.144   2.787   1.362  0.00  0.00    +0.119 HD
ATOM     21  H   LIG    1       11.000   1.416   1.117  0.00  0.00    +0.119 HD
ENDBRANCH  17  19
ENDBRANCH   6  13
BRANCH   1  22
ATOM     22  C   LIG    1        0.217   0.254   0.016  0.00  0.00    +0.206 C 
BRANCH  22  27
ATOM     23  C   LIG    1       -4.412   4.040  -1.161  0.00  0.00    +0.002 A 
ATOM     24  C   LIG    1       -3.727   2.830  -1.079  0.00  0.00    +0.028 A 
ATOM     25  C   LIG    1       -2.408   2.794  -0.566  0.00  0.00    +0.075 A 
ATOM     26  N   LIG    1       -1.757   1.597  -0.498  0.00  0.00    -0.230 NA
ATOM     27  C   LIG    1       -0.493   1.611  -0.002  0.00  0.00    +0.150 A 
ATOM     28  N   LIG    1        0.193   2.698   0.436  0.00  0.00    -0.235 NA
ATOM     29  C   LIG    1       -0.465   3.880   0.364  0.00  0.00    +0.049 A 
ATOM     30  C   LIG    1        0.305   5.098   0.853  0.00  0.00    +0.066 C 
ATOM     31  C   LIG    1       -1.792   4.011  -0.136  0.00  0.00    +0.021 A 
ATOM     32  C   LIG    1       -2.518   5.227  -0.233  0.00  0.00    +0.012 A 
ATOM     33  C   LIG    1       -3.814   5.225  -0.743  0.00  0.00    +0.001 A 
ENDBRANCH  22  27
ENDBRANCH   1  22
BRANCH   5  34
ATOM     34  C   LIG    1        4.681  -0.460   3.340  0.00  0.00    +0.214 C 
BRANCH  34  35
ATOM     35  C   LIG    1        4.323  -1.865   3.611  0.00  0.00    -0.081 C 
ATOM     36  C   LIG    1        4.015  -3.029   3.815  0.00  0.00    -0.104 C 
ATOM     37  C   LIG    1        3.634  -4.430   4.043  0.00  0.00    +0.106 C 
ENDBRANCH  34  35
ENDBRANCH   5  34
TORSDOF 6
