REMARK  Name = DB08944
REMARK                            x       y       z     vdW  Elec       q    Type
REMARK                         _______ _______ _______ _____ _____    ______ ____
ROOT
ATOM      1  C   LIG    1       -0.106   0.005   0.136  0.00  0.00    +0.086 C 
ENDROOT
BRANCH   1   2
ATOM      2  C   LIG    1       -0.600  -0.787   1.384  0.00  0.00    -0.027 A 
ATOM      3  C   LIG    1        0.053  -1.961   1.799  0.00  0.00    +0.005 A 
ATOM      4  C   LIG    1       -0.387  -2.673   2.911  0.00  0.00    +0.000 A 
ATOM      5  C   LIG    1       -1.493  -2.224   3.625  0.00  0.00    +0.000 A 
ATOM      6  C   LIG    1       -2.165  -1.073   3.230  0.00  0.00    +0.000 A 
ATOM      7  C   LIG    1       -1.723  -0.363   2.116  0.00  0.00    +0.005 A 
ENDBRANCH   1   2
BRANCH   1   8
ATOM      8  C   LIG    1       -0.609  -0.677  -1.191  0.00  0.00    +0.007 C 
ATOM      9  C   LIG    1        0.029  -2.049  -1.510  0.00  0.00    +0.009 C 
ATOM     10  C   LIG    1       -2.148  -0.786  -1.287  0.00  0.00    +0.009 C 
ENDBRANCH   1   8
BRANCH   1  11
ATOM     11  C   LIG    1       -0.676   1.375   0.174  0.00  0.00    +0.074 C 
ATOM     12  N   LIG    1       -1.126   2.443   0.204  0.00  0.00    -0.196 NA
ENDBRANCH   1  11
BRANCH   1  13
ATOM     13  C   LIG    1        1.460   0.168   0.166  0.00  0.00    +0.045 C 
BRANCH  13  14
ATOM     14  C   LIG    1        2.171   0.816  -1.062  0.00  0.00    +0.055 C 
ATOM     15  C   LIG    1        3.710   0.667  -0.961  0.00  0.00    +0.024 C 
BRANCH  14  16
ATOM     16  N   LIG    1        1.735   2.200  -1.322  0.00  0.00    -0.306 NA
ATOM     17  C   LIG    1        2.044   2.653  -2.677  0.00  0.00    +0.104 C 
ATOM     18  C   LIG    1        2.201   3.188  -0.348  0.00  0.00    +0.104 C 
ENDBRANCH  14  16
ENDBRANCH  13  14
ENDBRANCH   1  13
TORSDOF 6
