REMARK  Name = DB08953
REMARK                            x       y       z     vdW  Elec       q    Type
REMARK                         _______ _______ _______ _____ _____    ______ ____
ROOT
ATOM      1  C   LIG    1        2.350  -3.244  -3.277  0.00  0.00    +0.001 A 
ATOM      2  C   LIG    1        2.074  -2.176  -2.425  0.00  0.00    +0.010 A 
ATOM      3  C   LIG    1        2.311  -2.318  -1.047  0.00  0.00    +0.003 A 
ATOM      4  C   LIG    1        2.831  -3.563  -0.572  0.00  0.00    +0.047 A 
ATOM      5  N   LIG    1        2.969  -3.435   0.792  0.00  0.00    -0.360 N 
ATOM      6  H   LIG    1        3.312  -4.125   1.444  0.00  0.00    +0.165 HD
ATOM      7  C   LIG    1        2.563  -2.186   1.183  0.00  0.00    +0.087 A 
ATOM      8  C   LIG    1        3.108  -4.635  -1.427  0.00  0.00    +0.026 A 
ATOM      9  C   LIG    1        2.144  -1.449   0.090  0.00  0.00    -0.022 A 
ATOM     10  C   LIG    1        2.855  -4.444  -2.785  0.00  0.00    +0.002 A 
ENDROOT
BRANCH   9  11
ATOM     11  C   LIG    1        1.615  -0.030   0.079  0.00  0.00    +0.037 C 
BRANCH  11  12
ATOM     12  C   LIG    1        0.098   0.023  -0.194  0.00  0.00    +0.008 C 
BRANCH  12  13
ATOM     13  C   LIG    1       -0.518   1.442  -0.145  0.00  0.00    -0.014 C 
ATOM     14  C   LIG    1       -0.027   2.352  -1.295  0.00  0.00    -0.016 C 
ATOM     15  C   LIG    1       -0.592   3.779  -1.163  0.00  0.00    -0.082 C 
ATOM     16  N   LIG    1       -2.132   3.714  -1.145  0.00  0.00    +0.379 N 
ATOM     17  H   LIG    1       -2.507   4.643  -1.013  0.00  0.00    -0.086 HD
ATOM     18  H   LIG    1       -2.454   3.393  -2.047  0.00  0.00    -0.086 HD
ATOM     19  C   LIG    1       -2.692   2.775  -0.057  0.00  0.00    -0.082 C 
ATOM     20  C   LIG    1       -2.059   1.379  -0.222  0.00  0.00    -0.016 C 
ENDBRANCH  12  13
ENDBRANCH  11  12
ENDBRANCH   9  11
TORSDOF 3
