REMARK  Name = DB08398
REMARK                            x       y       z     vdW  Elec       q    Type
REMARK                         _______ _______ _______ _____ _____    ______ ____
ROOT
ATOM      1  C   LIG    1        1.428  -0.004  -0.032  0.00  0.00    +0.195 A 
ATOM      2  N   LIG    1        2.203   1.048  -0.110  0.00  0.00    -0.195 NA
ATOM      3  C   LIG    1        3.471   0.536  -0.093  0.00  0.00    +0.180 A 
ATOM      4  N   LIG    1        4.604   1.240  -0.151  0.00  0.00    -0.234 NA
ATOM      5  C   LIG    1        5.761   0.526  -0.122  0.00  0.00    +0.121 A 
ATOM      6  C   LIG    1        5.843  -0.873  -0.037  0.00  0.00    +0.002 A 
ATOM      7  C   LIG    1        4.650  -1.612   0.027  0.00  0.00    +0.039 A 
ATOM      8  C   LIG    1        3.458  -0.879  -0.003  0.00  0.00    +0.089 A 
ATOM      9  N   LIG    1        2.115  -1.205   0.036  0.00  0.00    -0.314 N 
ATOM     10  C   LIG    1        1.538  -2.540   0.130  0.00  0.00    +0.152 C 
ENDROOT
BRANCH   6  11
ATOM     11  C   LIG    1        7.164  -1.560  -0.018  0.00  0.00    -0.016 A 
ATOM     12  C   LIG    1        7.364  -2.739  -0.750  0.00  0.00    +0.008 A 
ATOM     13  C   LIG    1        8.599  -3.383  -0.735  0.00  0.00    +0.001 A 
ATOM     14  C   LIG    1        9.644  -2.851   0.014  0.00  0.00    +0.000 A 
ATOM     15  C   LIG    1        9.464  -1.682   0.748  0.00  0.00    +0.001 A 
ATOM     16  C   LIG    1        8.229  -1.040   0.731  0.00  0.00    +0.008 A 
ENDBRANCH   6  11
BRANCH   1  17
ATOM     17  N   LIG    1        0.063   0.062  -0.018  0.00  0.00    -0.329 N 
ATOM     18  H   LIG    1       -0.510  -0.767   0.038  0.00  0.00    +0.145 HD
ATOM     19  H   LIG    1       -0.419   0.948  -0.061  0.00  0.00    +0.145 HD
ENDBRANCH   1  17
TORSDOF 2
