REMARK  Name = DB08965
REMARK                            x       y       z     vdW  Elec       q    Type
REMARK                         _______ _______ _______ _____ _____    ______ ____
ROOT
ATOM      1  C   LIG    1        1.437  -0.007   0.012  0.00  0.00    +0.187 C 
ATOM      2  N   LIG    1        2.062   0.617   1.223  0.00  0.00    -0.288 N 
ATOM      3  C   LIG    1        1.766   1.873   1.694  0.00  0.00    +0.257 C 
ATOM      4  O   LIG    1        0.896   2.569   1.168  0.00  0.00    -0.272 OA
ATOM      5  C   LIG    1        2.506   2.510   2.915  0.00  0.00    +0.264 C 
ATOM      6  O   LIG    1        3.922   2.250   2.889  0.00  0.00    -0.450 OA
ATOM      7  C   LIG    1        4.770   2.761   1.952  0.00  0.00    +0.329 C 
ATOM      8  O   LIG    1        4.439   3.576   1.085  0.00  0.00    -0.249 OA
ATOM      9  C   LIG    1        6.170   2.144   2.077  0.00  0.00    +0.187 C 
ATOM     10  N   LIG    1        7.023   2.643   0.951  0.00  0.00    -0.288 N 
ATOM     11  C   LIG    1        7.057   1.966  -0.238  0.00  0.00    +0.257 C 
ATOM     12  O   LIG    1        6.414   0.923  -0.403  0.00  0.00    -0.272 OA
ATOM     13  C   LIG    1        7.945   2.469  -1.422  0.00  0.00    +0.264 C 
ATOM     14  O   LIG    1        7.488   1.899  -2.663  0.00  0.00    -0.450 OA
ATOM     15  C   LIG    1        6.364   2.333  -3.300  0.00  0.00    +0.329 C 
ATOM     16  O   LIG    1        5.722   3.340  -2.983  0.00  0.00    -0.249 OA
ATOM     17  C   LIG    1        5.968   1.380  -4.427  0.00  0.00    +0.187 C 
ATOM     18  N   LIG    1        4.478   1.262  -4.403  0.00  0.00    -0.288 N 
ATOM     19  C   LIG    1        3.875   0.243  -3.722  0.00  0.00    +0.257 C 
ATOM     20  O   LIG    1        4.527  -0.613  -3.117  0.00  0.00    -0.272 OA
ATOM     21  C   LIG    1        2.316   0.139  -3.663  0.00  0.00    +0.264 C 
ATOM     22  O   LIG    1        1.878  -0.195  -2.332  0.00  0.00    -0.450 OA
ATOM     23  C   LIG    1        3.690   2.337  -5.031  0.00  0.00    +0.133 C 
ATOM     24  C   LIG    1        7.744   3.910   1.168  0.00  0.00    +0.133 C 
ATOM     25  C   LIG    1        3.019  -0.285   1.878  0.00  0.00    +0.133 C 
ATOM     26  C   LIG    1        1.996   0.644  -1.260  0.00  0.00    +0.329 C 
ATOM     27  O   LIG    1        2.516   1.763  -1.308  0.00  0.00    -0.249 OA
ENDROOT
BRANCH   1  29
ATOM     28  C   LIG    1       -0.662  -0.631   1.399  0.00  0.00    +0.009 C 
ATOM     29  C   LIG    1       -0.135  -0.086   0.055  0.00  0.00    +0.014 C 
ATOM     30  C   LIG    1       -0.757  -0.910  -1.092  0.00  0.00    +0.009 C 
ENDBRANCH   1  29
BRANCH  21  31
ATOM     31  C   LIG    1        1.730  -0.952  -4.617  0.00  0.00    +0.033 C 
ATOM     32  C   LIG    1        1.959  -0.636  -6.109  0.00  0.00    +0.011 C 
ATOM     33  C   LIG    1        2.168  -2.399  -4.294  0.00  0.00    +0.011 C 
ENDBRANCH  21  31
BRANCH  17  34
ATOM     34  C   LIG    1        6.581   1.773  -5.813  0.00  0.00    +0.014 C 
ATOM     35  C   LIG    1        8.123   1.738  -5.817  0.00  0.00    +0.009 C 
ATOM     36  C   LIG    1        6.051   0.895  -6.964  0.00  0.00    +0.009 C 
ENDBRANCH  17  34
BRANCH  13  37
ATOM     37  C   LIG    1        9.448   2.097  -1.228  0.00  0.00    +0.033 C 
ATOM     38  C   LIG    1        9.725   0.576  -1.179  0.00  0.00    +0.011 C 
ATOM     39  C   LIG    1       10.338   2.771  -2.291  0.00  0.00    +0.011 C 
ENDBRANCH  13  37
BRANCH   9  40
ATOM     40  C   LIG    1        6.836   2.252   3.498  0.00  0.00    +0.014 C 
ATOM     41  C   LIG    1        6.606   3.572   4.271  0.00  0.00    +0.009 C 
ATOM     42  C   LIG    1        6.477   1.047   4.388  0.00  0.00    +0.009 C 
ENDBRANCH   9  40
BRANCH   5  43
ATOM     43  C   LIG    1        1.895   2.088   4.289  0.00  0.00    +0.033 C 
ATOM     44  C   LIG    1        2.686   2.666   5.482  0.00  0.00    +0.011 C 
ATOM     45  C   LIG    1        0.401   2.458   4.436  0.00  0.00    +0.011 C 
ENDBRANCH   5  43
TORSDOF 6
