REMARK  Name = DB08905
REMARK                            x       y       z     vdW  Elec       q    Type
REMARK                         _______ _______ _______ _____ _____    ______ ____
ROOT
ATOM      1  C   LIG    1        0.079   0.030   0.009  0.00  0.00    +0.029 C 
ATOM      2  C   LIG    1        1.631   0.194   0.113  0.00  0.00    +0.019 C 
ATOM      3  C   LIG    1       -0.469  -0.920   1.103  0.00  0.00    +0.015 C 
ATOM      4  C   LIG    1        0.055  -2.359   0.865  0.00  0.00    +0.005 C 
ATOM      5  C   LIG    1       -0.293  -2.910  -0.559  0.00  0.00    +0.003 C 
ATOM      6  C   LIG    1        0.215  -4.385  -0.817  0.00  0.00    -0.004 C 
ATOM      7  C   LIG    1        1.754  -4.519  -0.658  0.00  0.00    +0.016 C 
ATOM      8  C   LIG    1       -0.489  -5.347   0.196  0.00  0.00    +0.019 C 
ATOM      9  C   LIG    1       -0.463  -6.834  -0.191  0.00  0.00    +0.084 C 
ATOM     10  C   LIG    1       -1.037  -7.053  -1.593  0.00  0.00    +0.197 C 
ATOM     11  O   LIG    1       -1.646  -8.088  -1.871  0.00  0.00    -0.289 OA
ATOM     12  C   LIG    1       -0.731  -6.004  -2.578  0.00  0.00    +0.159 C 
ATOM     13  C   LIG    1       -0.152  -4.811  -2.273  0.00  0.00    -0.019 C 
ATOM     14  C   LIG    1        0.236  -3.795  -3.359  0.00  0.00    +0.035 C 
ATOM     15  C   LIG    1       -0.369  -2.424  -3.035  0.00  0.00    +0.008 C 
ATOM     16  C   LIG    1        0.139  -1.906  -1.680  0.00  0.00    -0.003 C 
ATOM     17  C   LIG    1       -0.483   1.465  -0.026  0.00  0.00    +0.139 C 
ATOM     18  O   LIG    1       -0.862   2.125   0.940  0.00  0.00    -0.297 OA
ATOM     19  C   LIG    1       -0.515   1.918  -1.496  0.00  0.00    +0.075 C 
ATOM     20  C   LIG    1       -0.200   0.662  -2.326  0.00  0.00    +0.012 C 
ATOM     21  C   LIG    1       -0.420  -0.493  -1.355  0.00  0.00    +0.006 C 
ENDROOT
BRANCH  12  22
ATOM     22  O   LIG    1       -1.052  -6.369  -3.852  0.00  0.00    -0.503 OA
ATOM     23  H   LIG    1       -1.439  -7.248  -3.842  0.00  0.00    +0.292 HD
ENDBRANCH  12  22
TORSDOF 1
