REMARK  Name = DB08621
REMARK                            x       y       z     vdW  Elec       q    Type
REMARK                         _______ _______ _______ _____ _____    ______ ____
ROOT
ATOM      1  C   LIG    1        1.532   0.143   0.054  0.00  0.00    +0.167 C 
ENDROOT
BRANCH   1   2
ATOM      2  C   LIG    1        2.068   0.827  -1.210  0.00  0.00    -0.017 A 
ATOM      3  C   LIG    1        2.356   2.197  -1.228  0.00  0.00    +0.008 A 
ATOM      4  C   LIG    1        2.808   2.804  -2.396  0.00  0.00    +0.027 A 
ATOM      5  C   LIG    1        2.981   2.040  -3.551  0.00  0.00    +0.088 A 
ATOM      6  C   LIG    1        2.699   0.673  -3.540  0.00  0.00    +0.027 A 
ATOM      7  C   LIG    1        2.245   0.069  -2.372  0.00  0.00    +0.008 A 
BRANCH   5   8
ATOM      8  S   LIG    1        3.543   2.826  -5.058  0.00  0.00    -0.006 S 
ATOM      9  C   LIG    1        1.937   3.404  -5.859  0.00  0.00    +0.200 C 
ATOM     10  O   LIG    1        4.140   1.787  -5.905  0.00  0.00    -0.170 OA
ATOM     11  O   LIG    1        4.325   4.007  -4.675  0.00  0.00    -0.170 OA
ENDBRANCH   5   8
ENDBRANCH   1   2
BRANCH   1  12
ATOM     12  O   LIG    1        2.029   0.727   1.249  0.00  0.00    -0.385 OA
ATOM     13  H   LIG    1        2.982   0.612   1.270  0.00  0.00    +0.210 HD
ENDBRANCH   1  12
BRANCH   1  14
ATOM     14  CA  LIG    1       -0.026   0.077   0.086  0.00  0.00    +0.131 C 
BRANCH  14  16
ATOM     15  C   LIG    1       -1.079   2.191  -0.774  0.00  0.00    +0.246 C 
ATOM     16  N   LIG    1       -0.663   1.398   0.231  0.00  0.00    -0.305 N 
ATOM     17  H   LIG    1       -0.809   1.712   1.179  0.00  0.00    +0.149 HD
ATOM     18  O   LIG    1       -0.971   1.891  -1.965  0.00  0.00    -0.273 OA
BRANCH  15  19
ATOM     19  C   LIG    1       -1.671   3.545  -0.368  0.00  0.00    +0.256 C 
ATOM     20 CL   LIG    1       -0.421   4.813  -0.435  0.00  0.00    -0.094 Cl
ATOM     21 CL   LIG    1       -3.055   4.006  -1.397  0.00  0.00    -0.094 Cl
ENDBRANCH  15  19
ENDBRANCH  14  16
BRANCH  14  22
ATOM     22  C   LIG    1       -0.534  -0.916   1.162  0.00  0.00    +0.181 C 
BRANCH  22  23
ATOM     23  O   LIG    1       -1.948  -0.978   1.203  0.00  0.00    -0.393 OA
ATOM     24  H   LIG    1       -2.208  -1.608   1.879  0.00  0.00    +0.209 HD
ENDBRANCH  22  23
ENDBRANCH  14  22
ENDBRANCH   1  14
TORSDOF 8
