REMARK  Name = DB08162
REMARK                            x       y       z     vdW  Elec       q    Type
REMARK                         _______ _______ _______ _____ _____    ______ ____
ROOT
ATOM      1  O   LIG    1       -0.589  -0.698  -1.008  0.00  0.00    -0.153 OA
ATOM      2  S   LIG    1       -0.161  -0.064   0.244  0.00  0.00    +0.061 S 
ATOM      3  O   LIG    1       -0.771  -0.470   1.516  0.00  0.00    -0.153 OA
ENDROOT
BRANCH   2   4
ATOM      4  C   LIG    1       -0.407   1.708   0.040  0.00  0.00    +0.113 A 
ATOM      5  C   LIG    1        0.100   2.420  -1.095  0.00  0.00    +0.011 A 
ATOM      6  C   LIG    1        0.855   1.817  -2.145  0.00  0.00    +0.030 A 
ATOM      7  C   LIG    1        1.307   2.603  -3.205  0.00  0.00    +0.111 A 
ATOM      8  N   LIG    1        1.076   3.932  -3.305  0.00  0.00    -0.263 NA
ATOM      9  C   LIG    1        0.365   4.513  -2.313  0.00  0.00    +0.119 A 
ATOM     10  C   LIG    1       -0.147   3.828  -1.186  0.00  0.00    +0.002 A 
ATOM     11  C   LIG    1       -0.877   4.485  -0.169  0.00  0.00    +0.010 A 
ATOM     12  C   LIG    1       -1.351   3.767   0.922  0.00  0.00    +0.003 A 
ATOM     13  C   LIG    1       -1.118   2.401   1.025  0.00  0.00    +0.029 A 
ENDBRANCH   2   4
BRANCH   2  14
ATOM     14  N   LIG    1        1.595  -0.253   0.416  0.00  0.00    -0.178 NA
ATOM     15  C   LIG    1        2.212   0.407   1.599  0.00  0.00    +0.107 C 
ATOM     16  C   LIG    1        3.735   0.228   1.740  0.00  0.00    -0.002 C 
ATOM     17  C   LIG    1        4.578   0.822   0.595  0.00  0.00    -0.081 C 
ATOM     18  N   LIG    1        4.099   0.413  -0.809  0.00  0.00    +0.380 N 
ATOM     19  H   LIG    1        3.330   1.015  -1.069  0.00  0.00    -0.086 HD
ATOM     20  H   LIG    1        4.850   0.590  -1.462  0.00  0.00    -0.086 HD
ATOM     21  C   LIG    1        3.625  -1.043  -0.976  0.00  0.00    -0.065 C 
ATOM     22  C   LIG    1        2.259  -1.376  -0.313  0.00  0.00    +0.090 C 
ENDBRANCH   2  14
TORSDOF 2
