REMARK  Name = DB08908
REMARK                            x       y       z     vdW  Elec       q    Type
REMARK                         _______ _______ _______ _____ _____    ______ ____
ROOT
ATOM      1  C   LIG    1        0.038   0.018   0.000  0.00  0.00    +0.098 C 
ATOM      2  C   LIG    1       -0.730   1.130   0.000  0.00  0.00    +0.098 C 
ENDROOT
BRANCH   1   3
ATOM      3  C   LIG    1        1.496   0.072   0.000  0.00  0.00    +0.332 C 
ATOM      4  O   LIG    1        2.143   1.124   0.000  0.00  0.00    -0.246 OA
BRANCH   3   6
ATOM      5  C   LIG    1        3.451  -1.337   0.000  0.00  0.00    +0.280 C 
ATOM      6  O   LIG    1        2.041  -1.164   0.000  0.00  0.00    -0.465 OA
ENDBRANCH   3   6
ENDBRANCH   1   3
BRANCH   2   7
ATOM      7  C   LIG    1       -2.188   1.076   0.000  0.00  0.00    +0.332 C 
ATOM      8  O   LIG    1       -2.835   0.024   0.000  0.00  0.00    -0.246 OA
BRANCH   7   9
ATOM      9  O   LIG    1       -2.733   2.312   0.000  0.00  0.00    -0.465 OA
ATOM     10  C   LIG    1       -4.144   2.485   0.000  0.00  0.00    +0.280 C 
ENDBRANCH   7   9
ENDBRANCH   2   7
TORSDOF 4
