REMARK  Name = DB08992
REMARK                            x       y       z     vdW  Elec       q    Type
REMARK                         _______ _______ _______ _____ _____    ______ ____
ROOT
ATOM      1  C   LIG    1        1.497   0.013   0.133  0.00  0.00    +0.164 C 
ATOM      2  O   LIG    1        2.167  -0.832  -0.464  0.00  0.00    -0.292 OA
ENDROOT
BRANCH   1   6
ATOM      3  C   LIG    1        3.329   3.414   2.031  0.00  0.00    -0.048 A 
ATOM      4  C   LIG    1        4.061   2.611   1.156  0.00  0.00    +0.004 A 
ATOM      5  C   LIG    1        3.457   1.516   0.545  0.00  0.00    +0.011 A 
ATOM      6  C   LIG    1        2.110   1.213   0.794  0.00  0.00    +0.018 A 
ATOM      7  C   LIG    1        1.385   2.025   1.679  0.00  0.00    +0.011 A 
ATOM      8  C   LIG    1        1.990   3.119   2.290  0.00  0.00    +0.004 A 
BRANCH   3  10
ATOM      9  C   LIG    1        3.816   5.908   1.904  0.00  0.00    +0.009 C 
ATOM     10  C   LIG    1        3.990   4.609   2.702  0.00  0.00    +0.032 C 
ENDBRANCH   3  10
ENDBRANCH   1   6
BRANCH   1  11
ATOM     11  C   LIG    1       -0.049  -0.104   0.098  0.00  0.00    +0.041 C 
ATOM     12  C   LIG    1       -0.548  -0.919   1.309  0.00  0.00    +0.014 C 
BRANCH  11  13
ATOM     13  C   LIG    1       -0.624  -0.701  -1.221  0.00  0.00    -0.068 C 
BRANCH  13  14
ATOM     14  N   LIG    1       -0.083  -0.008  -2.500  0.00  0.00    +0.380 N 
ATOM     15  H   LIG    1        0.927  -0.023  -2.465  0.00  0.00    -0.082 HD
ATOM     16  C   LIG    1       -0.541   1.469  -2.588  0.00  0.00    -0.079 C 
ATOM     17  C   LIG    1        0.065   2.111  -3.849  0.00  0.00    -0.019 C 
ATOM     18  C   LIG    1       -0.287   1.328  -5.126  0.00  0.00    -0.004 C 
ATOM     19  C   LIG    1        0.098  -0.157  -5.003  0.00  0.00    -0.019 C 
ATOM     20  C   LIG    1       -0.514  -0.810  -3.752  0.00  0.00    -0.079 C 
ENDBRANCH  13  14
ENDBRANCH  11  13
ENDBRANCH   1  11
TORSDOF 5
