REMARK  Name = DB08828
REMARK                            x       y       z     vdW  Elec       q    Type
REMARK                         _______ _______ _______ _____ _____    ______ ____
ROOT
ATOM      1  N   LIG    1       -0.674  -1.090   0.015  0.00  0.00    -0.281 N 
ATOM      2  H   LIG    1       -0.086  -1.860   0.299  0.00  0.00    +0.155 HD
ATOM      3  C   LIG    1       -0.038   0.069  -0.264  0.00  0.00    +0.250 C 
ATOM      4  O   LIG    1       -0.567   1.123  -0.616  0.00  0.00    -0.270 OA
ENDROOT
BRANCH   1  10
ATOM      5  C   LIG    1       -3.737  -3.107   0.434  0.00  0.00    +0.020 A 
ATOM      6  C   LIG    1       -4.737  -2.202   0.024  0.00  0.00    +0.050 A 
ATOM      7 CL   LIG    1       -6.420  -2.606   0.067  0.00  0.00    -0.083 Cl
ATOM      8  C   LIG    1       -4.391  -0.921  -0.406  0.00  0.00    +0.022 A 
ATOM      9  C   LIG    1       -3.060  -0.513  -0.428  0.00  0.00    +0.025 A 
ATOM     10  C   LIG    1       -2.049  -1.391  -0.009  0.00  0.00    +0.034 A 
ATOM     11  C   LIG    1       -2.403  -2.674   0.417  0.00  0.00    +0.034 A 
BRANCH   5  14
ATOM     12  C   LIG    1       -5.078  -6.536   0.450  0.00  0.00    +0.111 A 
ATOM     13  N   LIG    1       -4.798  -5.262   0.072  0.00  0.00    -0.255 NA
ATOM     14  C   LIG    1       -4.034  -4.493   0.897  0.00  0.00    +0.072 A 
ATOM     15  C   LIG    1       -3.525  -4.989   2.106  0.00  0.00    +0.028 A 
ATOM     16  C   LIG    1       -3.821  -6.302   2.478  0.00  0.00    +0.004 A 
ATOM     17  C   LIG    1       -4.611  -7.092   1.641  0.00  0.00    +0.020 A 
ENDBRANCH   5  14
ENDBRANCH   1  10
BRANCH   3  18
ATOM     18  C   LIG    1        1.458  -0.006  -0.128  0.00  0.00    +0.055 A 
ATOM     19  C   LIG    1        2.090  -0.191   1.119  0.00  0.00    +0.055 A 
ATOM     20 CL   LIG    1        1.200  -0.366   2.597  0.00  0.00    -0.083 Cl
ATOM     21  C   LIG    1        3.484  -0.230   1.190  0.00  0.00    +0.047 A 
ATOM     22  C   LIG    1        4.261  -0.075   0.040  0.00  0.00    +0.089 A 
ATOM     23  C   LIG    1        3.637   0.122  -1.193  0.00  0.00    +0.028 A 
ATOM     24  C   LIG    1        2.246   0.162  -1.274  0.00  0.00    +0.016 A 
BRANCH  22  25
ATOM     25  S   LIG    1        6.047  -0.132   0.151  0.00  0.00    -0.006 S 
ATOM     26  O   LIG    1        6.419   0.340   1.489  0.00  0.00    -0.170 OA
ATOM     27  O   LIG    1        6.588   0.525  -1.044  0.00  0.00    -0.170 OA
ATOM     28  C   LIG    1        6.424  -1.977   0.041  0.00  0.00    +0.200 C 
ENDBRANCH  22  25
ENDBRANCH   3  18
TORSDOF 4
