REMARK  Name = DB08868
REMARK                            x       y       z     vdW  Elec       q    Type
REMARK                         _______ _______ _______ _____ _____    ______ ____
ROOT
ATOM      1  C   LIG    1       -0.769  -1.115  -0.547  0.00  0.00    +0.004 A 
ATOM      2  C   LIG    1       -2.161  -1.083  -0.539  0.00  0.00    +0.004 A 
ATOM      3  C   LIG    1       -2.831   0.021  -0.007  0.00  0.00    -0.047 A 
ATOM      4  C   LIG    1       -2.106   1.095   0.515  0.00  0.00    +0.004 A 
ATOM      5  C   LIG    1       -0.714   1.063   0.508  0.00  0.00    +0.004 A 
ATOM      6  C   LIG    1       -0.044  -0.042  -0.023  0.00  0.00    -0.047 A 
ENDROOT
BRANCH   3   7
ATOM      7  C   LIG    1       -4.353   0.056  -0.001  0.00  0.00    +0.037 C 
BRANCH   7   8
ATOM      8  C   LIG    1       -4.936   0.667  -1.297  0.00  0.00    +0.031 C 
BRANCH   8   9
ATOM      9  C   LIG    1       -6.492   0.723  -1.401  0.00  0.00    +0.063 C 
BRANCH   9  10
ATOM     10  N   LIG    1       -6.976   1.544  -0.298  0.00  0.00    -0.321 NA
ATOM     11  H   LIG    1       -6.555   2.460  -0.350  0.00  0.00    +0.119 HD
ATOM     12  H   LIG    1       -6.675   1.140   0.578  0.00  0.00    +0.119 HD
ENDBRANCH   9  10
BRANCH   9  13
ATOM     13  C   LIG    1       -7.173  -0.669  -1.237  0.00  0.00    +0.180 C 
BRANCH  13  14
ATOM     14  O   LIG    1       -6.652  -1.653  -2.111  0.00  0.00    -0.393 OA
ATOM     15  H   LIG    1       -7.126  -2.474  -1.964  0.00  0.00    +0.209 HD
ENDBRANCH  13  14
ENDBRANCH   9  13
BRANCH   9  16
ATOM     16  C   LIG    1       -6.949   1.448  -2.701  0.00  0.00    +0.180 C 
BRANCH  16  17
ATOM     17  O   LIG    1       -6.495   0.815  -3.883  0.00  0.00    -0.393 OA
ATOM     18  H   LIG    1       -6.822   1.309  -4.639  0.00  0.00    +0.209 HD
ENDBRANCH  16  17
ENDBRANCH   9  16
ENDBRANCH   8   9
ENDBRANCH   7   8
ENDBRANCH   3   7
BRANCH   6  19
ATOM     19  C   LIG    1        1.478  -0.080  -0.025  0.00  0.00    +0.035 C 
BRANCH  19  20
ATOM     20  C   LIG    1        2.057  -0.696   1.262  0.00  0.00    +0.005 C 
BRANCH  20  21
ATOM     21  C   LIG    1        3.595  -0.752   1.260  0.00  0.00    +0.000 C 
BRANCH  21  22
ATOM     22  C   LIG    1        4.173  -1.379   2.542  0.00  0.00    +0.000 C 
BRANCH  22  23
ATOM     23  C   LIG    1        5.710  -1.454   2.533  0.00  0.00    -0.000 C 
BRANCH  23  24
ATOM     24  C   LIG    1        6.285  -2.104   3.804  0.00  0.00    -0.000 C 
BRANCH  24  25
ATOM     25  C   LIG    1        7.821  -2.191   3.791  0.00  0.00    -0.003 C 
ATOM     26  C   LIG    1        8.392  -2.852   5.053  0.00  0.00    +0.004 C 
ENDBRANCH  24  25
ENDBRANCH  23  24
ENDBRANCH  22  23
ENDBRANCH  21  22
ENDBRANCH  20  21
ENDBRANCH  19  20
ENDBRANCH   6  19
TORSDOF 15
