REMARK  Name = DB08931
REMARK                            x       y       z     vdW  Elec       q    Type
REMARK                         _______ _______ _______ _____ _____    ______ ____
ROOT
ATOM      1  N   LIG    1       -1.834   1.124  -0.169  0.00  0.00    -0.209 NA
ATOM      2  C   LIG    1       -0.493   1.311  -0.094  0.00  0.00    +0.144 A 
ATOM      3  C   LIG    1        0.381   0.295   0.345  0.00  0.00    +0.118 A 
ATOM      4  C   LIG    1       -0.209  -0.932   0.709  0.00  0.00    +0.144 A 
ATOM      5  N   LIG    1       -1.549  -1.132   0.642  0.00  0.00    -0.209 NA
ATOM      6  C   LIG    1       -2.311  -0.093   0.203  0.00  0.00    +0.184 A 
ENDROOT
BRANCH   6   7
ATOM      7  C   LIG    1       -3.797  -0.297   0.117  0.00  0.00    +0.139 A 
ATOM      8  N   LIG    1       -4.373  -1.402   0.543  0.00  0.00    -0.165 NA
ATOM      9  N   LIG    1       -5.703  -1.291   0.353  0.00  0.00    -0.241 N 
ATOM     10  C   LIG    1       -6.022  -0.087  -0.241  0.00  0.00    +0.159 A 
ATOM     11  N   LIG    1       -7.231   0.363  -0.598  0.00  0.00    -0.236 NA
ATOM     12  C   LIG    1       -7.232   1.600  -1.163  0.00  0.00    +0.113 A 
ATOM     13  C   LIG    1       -6.091   2.376  -1.374  0.00  0.00    +0.020 A 
ATOM     14  C   LIG    1       -4.842   1.878  -0.992  0.00  0.00    +0.015 A 
ATOM     15  C   LIG    1       -4.794   0.600  -0.405  0.00  0.00    +0.050 A 
BRANCH   9  16
ATOM     16  C   LIG    1       -6.581  -2.407   0.691  0.00  0.00    +0.183 C 
BRANCH  16  17
ATOM     17  C   LIG    1       -7.075  -3.184  -0.525  0.00  0.00    +0.009 A 
ATOM     18  C   LIG    1       -6.180  -3.887  -1.345  0.00  0.00    +0.128 A 
ATOM     19  F   LIG    1       -4.856  -3.896  -1.068  0.00  0.00    -0.205 F 
ATOM     20  C   LIG    1       -6.649  -4.591  -2.454  0.00  0.00    +0.039 A 
ATOM     21  C   LIG    1       -8.011  -4.603  -2.752  0.00  0.00    +0.003 A 
ATOM     22  C   LIG    1       -8.908  -3.911  -1.938  0.00  0.00    +0.000 A 
ATOM     23  C   LIG    1       -8.442  -3.206  -0.828  0.00  0.00    +0.008 A 
ENDBRANCH  16  17
ENDBRANCH   9  16
ENDBRANCH   6   7
BRANCH   3  24
ATOM     24  N   LIG    1        1.777   0.498   0.420  0.00  0.00    -0.234 N 
ATOM     25  C   LIG    1        2.336   0.781   1.746  0.00  0.00    +0.142 C 
ATOM     26  C   LIG    1        2.644   0.401  -0.686  0.00  0.00    +0.407 C 
ATOM     27  O   LIG    1        3.868   0.558  -0.646  0.00  0.00    -0.226 OA
BRANCH  26  28
ATOM     28  O   LIG    1        1.969   0.108  -1.831  0.00  0.00    -0.453 OA
ATOM     29  C   LIG    1        2.652  -0.021  -3.070  0.00  0.00    +0.282 C 
ENDBRANCH  26  28
ENDBRANCH   3  24
BRANCH   2  30
ATOM     30  N   LIG    1       -0.032   2.574  -0.474  0.00  0.00    -0.342 N 
ATOM     31  H   LIG    1       -0.695   3.268  -0.786  0.00  0.00    +0.144 HD
ATOM     32  H   LIG    1        0.958   2.771  -0.445  0.00  0.00    +0.144 HD
ENDBRANCH   2  30
BRANCH   4  33
ATOM     33  N   LIG    1        0.548  -2.020   1.149  0.00  0.00    -0.342 N 
ATOM     34  H   LIG    1        0.079  -2.882   1.388  0.00  0.00    +0.144 HD
ATOM     35  H   LIG    1        1.552  -1.935   1.214  0.00  0.00    +0.144 HD
ENDBRANCH   4  33
TORSDOF 7
