REMARK  Name = DB08844
REMARK                            x       y       z     vdW  Elec       q    Type
REMARK                         _______ _______ _______ _____ _____    ______ ____
ROOT
ATOM      1  C   LIG    1       -1.144  -2.128  -0.004  0.00  0.00    +0.188 C 
ATOM      2  N   LIG    1       -2.411  -2.532   0.001  0.00  0.00    -0.280 N 
ATOM      3  H   LIG    1       -2.720  -3.493  -0.003  0.00  0.00    +0.151 HD
ATOM      4  C   LIG    1       -3.194  -1.437   0.010  0.00  0.00    +0.302 C 
ATOM      5  O   LIG    1       -4.422  -1.504   0.017  0.00  0.00    -0.253 OA
ATOM      6  N   LIG    1       -2.479  -0.329   0.012  0.00  0.00    -0.273 N 
ATOM      7  H   LIG    1       -2.794   0.603   0.018  0.00  0.00    +0.153 HD
ATOM      8  C   LIG    1        0.126  -2.838  -0.015  0.00  0.00    +0.251 C 
ATOM      9  O   LIG    1        0.249  -4.062  -0.021  0.00  0.00    -0.273 OA
ATOM     10  N   LIG    1        1.190  -1.974  -0.017  0.00  0.00    -0.238 N 
ATOM     11  H   LIG    1        2.099  -2.412  -0.024  0.00  0.00    +0.159 HD
ATOM     12  C   LIG    1        1.201  -0.598  -0.010  0.00  0.00    +0.308 C 
ATOM     13  O   LIG    1        2.237   0.063  -0.012  0.00  0.00    -0.252 OA
ATOM     14  N   LIG    1       -0.046  -0.032  -0.000  0.00  0.00    -0.273 N 
ATOM     15  H   LIG    1       -0.086   0.977   0.005  0.00  0.00    +0.153 HD
ATOM     16  C   LIG    1       -1.179  -0.798   0.002  0.00  0.00    +0.178 C 
ENDROOT
TORSDOF 0
