REMARK  Name = DB08949
REMARK                            x       y       z     vdW  Elec       q    Type
REMARK                         _______ _______ _______ _____ _____    ______ ____
ROOT
ATOM      1  C   LIG    1       -0.057   0.034  -0.144  0.00  0.00    +0.265 C 
ATOM      2  C   LIG    1       -0.575  -0.549   1.193  0.00  0.00    +0.265 C 
ATOM      3  C   LIG    1       -2.111  -0.754   1.130  0.00  0.00    +0.265 C 
ATOM      4  C   LIG    1       -2.505  -1.704  -0.029  0.00  0.00    +0.265 C 
ATOM      5  C   LIG    1       -1.926  -1.218  -1.387  0.00  0.00    +0.265 C 
ATOM      6  C   LIG    1       -0.410  -0.886  -1.340  0.00  0.00    +0.265 C 
ENDROOT
BRANCH   1   7
ATOM      7  O   LIG    1        1.355   0.255  -0.101  0.00  0.00    -0.450 OA
BRANCH   7   8
ATOM      8  C   LIG    1        1.910   1.330   0.517  0.00  0.00    +0.341 C 
ATOM      9  O   LIG    1        1.254   2.202   1.093  0.00  0.00    -0.245 OA
BRANCH   8  10
ATOM     10  C   LIG    1        3.404   1.347   0.421  0.00  0.00    +0.077 A 
ATOM     11  C   LIG    1        4.135   0.346  -0.244  0.00  0.00    +0.018 A 
ATOM     12  C   LIG    1        5.527   0.420  -0.305  0.00  0.00    +0.020 A 
ATOM     13  C   LIG    1        6.164   1.499   0.307  0.00  0.00    +0.111 A 
ATOM     14  N   LIG    1        5.490   2.479   0.958  0.00  0.00    -0.262 NA
ATOM     15  C   LIG    1        4.135   2.393   1.006  0.00  0.00    +0.125 A 
ENDBRANCH   8  10
ENDBRANCH   7   8
ENDBRANCH   1   7
BRANCH   2  16
ATOM     16  O   LIG    1        0.104  -1.785   1.447  0.00  0.00    -0.450 OA
BRANCH  16  17
ATOM     17  C   LIG    1        0.463  -2.192   2.692  0.00  0.00    +0.341 C 
ATOM     18  O   LIG    1        0.282  -1.523   3.713  0.00  0.00    -0.245 OA
BRANCH  17  19
ATOM     19  C   LIG    1        1.123  -3.535   2.693  0.00  0.00    +0.077 A 
ATOM     20  C   LIG    1        1.251  -4.319   1.533  0.00  0.00    +0.018 A 
ATOM     21  C   LIG    1        1.873  -5.567   1.597  0.00  0.00    +0.020 A 
ATOM     22  C   LIG    1        2.357  -6.007   2.829  0.00  0.00    +0.111 A 
ATOM     23  N   LIG    1        2.248  -5.276   3.966  0.00  0.00    -0.262 NA
ATOM     24  C   LIG    1        1.639  -4.065   3.886  0.00  0.00    +0.125 A 
ENDBRANCH  17  19
ENDBRANCH  16  17
ENDBRANCH   2  16
BRANCH   3  25
ATOM     25  O   LIG    1       -2.630  -1.242   2.368  0.00  0.00    -0.450 OA
BRANCH  25  26
ATOM     26  C   LIG    1       -2.893  -0.428   3.424  0.00  0.00    +0.341 C 
ATOM     27  O   LIG    1       -2.724   0.794   3.405  0.00  0.00    -0.245 OA
BRANCH  26  28
ATOM     28  C   LIG    1       -3.427  -1.171   4.609  0.00  0.00    +0.077 A 
ATOM     29  C   LIG    1       -3.537  -2.572   4.640  0.00  0.00    +0.018 A 
ATOM     30  C   LIG    1       -4.044  -3.209   5.774  0.00  0.00    +0.020 A 
ATOM     31  C   LIG    1       -4.430  -2.425   6.861  0.00  0.00    +0.111 A 
ATOM     32  N   LIG    1       -4.334  -1.073   6.864  0.00  0.00    -0.262 NA
ATOM     33  C   LIG    1       -3.839  -0.469   5.753  0.00  0.00    +0.125 A 
ENDBRANCH  26  28
ENDBRANCH  25  26
ENDBRANCH   3  25
BRANCH   4  34
ATOM     34  O   LIG    1       -3.926  -1.795  -0.164  0.00  0.00    -0.450 OA
BRANCH  34  35
ATOM     35  C   LIG    1       -4.657  -2.775   0.435  0.00  0.00    +0.341 C 
ATOM     36  O   LIG    1       -4.170  -3.655   1.149  0.00  0.00    -0.245 OA
BRANCH  35  37
ATOM     37  C   LIG    1       -6.122  -2.670   0.142  0.00  0.00    +0.077 A 
ATOM     38  C   LIG    1       -7.024  -3.578   0.719  0.00  0.00    +0.018 A 
ATOM     39  C   LIG    1       -8.389  -3.483   0.441  0.00  0.00    +0.020 A 
ATOM     40  C   LIG    1       -8.824  -2.472  -0.415  0.00  0.00    +0.111 A 
ATOM     41  N   LIG    1       -7.981  -1.579  -0.989  0.00  0.00    -0.262 NA
ATOM     42  C   LIG    1       -6.657  -1.686  -0.708  0.00  0.00    +0.125 A 
ENDBRANCH  35  37
ENDBRANCH  34  35
ENDBRANCH   4  34
BRANCH   5  43
ATOM     43  O   LIG    1       -2.274  -2.079  -2.482  0.00  0.00    -0.450 OA
BRANCH  43  44
ATOM     44  C   LIG    1       -1.848  -3.372  -2.604  0.00  0.00    +0.341 C 
ATOM     45  O   LIG    1       -1.119  -3.936  -1.785  0.00  0.00    -0.245 OA
BRANCH  44  46
ATOM     46  C   LIG    1       -2.358  -4.039  -3.844  0.00  0.00    +0.077 A 
ATOM     47  C   LIG    1       -3.196  -3.389  -4.768  0.00  0.00    +0.018 A 
ATOM     48  C   LIG    1       -3.640  -4.064  -5.906  0.00  0.00    +0.020 A 
ATOM     49  C   LIG    1       -3.236  -5.385  -6.096  0.00  0.00    +0.111 A 
ATOM     50  N   LIG    1       -2.429  -6.041  -5.225  0.00  0.00    -0.262 NA
ATOM     51  C   LIG    1       -2.006  -5.369  -4.124  0.00  0.00    +0.125 A 
ENDBRANCH  44  46
ENDBRANCH  43  44
ENDBRANCH   5  43
BRANCH   6  52
ATOM     52  O   LIG    1       -0.049  -0.269  -2.579  0.00  0.00    -0.450 OA
BRANCH  52  53
ATOM     53  C   LIG    1        1.131  -0.528  -3.208  0.00  0.00    +0.341 C 
ATOM     54  O   LIG    1        1.979  -1.315  -2.778  0.00  0.00    -0.245 OA
BRANCH  53  55
ATOM     55  C   LIG    1        1.298   0.245  -4.480  0.00  0.00    +0.077 A 
ATOM     56  C   LIG    1        0.317   1.127  -4.968  0.00  0.00    +0.018 A 
ATOM     57  C   LIG    1        0.532   1.821  -6.160  0.00  0.00    +0.020 A 
ATOM     58  C   LIG    1        1.730   1.616  -6.843  0.00  0.00    +0.111 A 
ATOM     59  N   LIG    1        2.695   0.772  -6.400  0.00  0.00    -0.262 NA
ATOM     60  C   LIG    1        2.470   0.106  -5.239  0.00  0.00    +0.125 A 
ENDBRANCH  53  55
ENDBRANCH  52  53
ENDBRANCH   6  52
TORSDOF 18
