REMARK  Name = DB08167
REMARK                            x       y       z     vdW  Elec       q    Type
REMARK                         _______ _______ _______ _____ _____    ______ ____
ROOT
ATOM      1  C   LIG    1       -4.875  -1.316   0.000  0.00  0.00    +0.078 A 
ATOM      2  C   LIG    1       -4.328  -2.625   0.000  0.00  0.00    +0.040 A 
ATOM      3  C   LIG    1       -5.185  -3.750   0.000  0.00  0.00    +0.040 A 
ATOM      4  C   LIG    1       -6.574  -3.581   0.000  0.00  0.00    +0.030 A 
ATOM      5  C   LIG    1       -7.112  -2.294   0.000  0.00  0.00    +0.025 A 
ATOM      6  S   LIG    1       -2.583  -2.896   0.000  0.00  0.00    -0.085 S 
ATOM      7  C   LIG    1       -1.932  -1.253   0.000  0.00  0.00    +0.040 A 
ATOM      8  C   LIG    1       -2.784  -0.119   0.000  0.00  0.00    +0.078 A 
ATOM      9  C   LIG    1       -2.192   1.169   0.000  0.00  0.00    +0.031 A 
ATOM     10  C   LIG    1       -0.807   1.313   0.000  0.00  0.00    +0.025 A 
ATOM     11  C   LIG    1        0.030   0.198   0.000  0.00  0.00    +0.030 A 
ATOM     12  C   LIG    1       -0.528  -1.085   0.000  0.00  0.00    +0.040 A 
ATOM     13  N   LIG    1       -4.138  -0.179   0.000  0.00  0.00    -0.246 NA
ATOM     14  C   LIG    1       -6.285  -1.173   0.000  0.00  0.00    +0.031 A 
ENDROOT
BRANCH   4  15
ATOM     15  N   LIG    1       -7.454  -4.679   0.000  0.00  0.00    -0.336 N 
ATOM     16  C   LIG    1       -7.398  -5.464  -1.229  0.00  0.00    +0.129 C 
ATOM     17  C   LIG    1       -7.398  -5.464   1.229  0.00  0.00    +0.129 C 
ENDBRANCH   4  15
BRANCH  11  18
ATOM     18  N   LIG    1        1.423   0.399   0.000  0.00  0.00    -0.336 N 
ATOM     19  C   LIG    1        2.071  -0.047   1.229  0.00  0.00    +0.129 C 
ATOM     20  C   LIG    1        2.071  -0.047  -1.229  0.00  0.00    +0.129 C 
ENDBRANCH  11  18
TORSDOF 2
