REMARK  Name = DB08958
REMARK                            x       y       z     vdW  Elec       q    Type
REMARK                         _______ _______ _______ _____ _____    ______ ____
ROOT
ATOM      1  N   LIG    1        1.497  -0.160   0.066  0.00  0.00    -0.288 NA
ATOM      2  C   LIG    1        1.988  -0.763  -1.177  0.00  0.00    +0.171 C 
ATOM      3  N   LIG    1        3.446  -0.907  -1.276  0.00  0.00    -0.288 NA
ATOM      4  C   LIG    1        4.010  -1.597  -0.109  0.00  0.00    +0.108 C 
ATOM      5  C   LIG    1        3.570  -0.951   1.234  0.00  0.00    +0.039 C 
ATOM      6  C   LIG    1        4.217   0.448   1.394  0.00  0.00    +0.030 C 
ATOM      7  C   LIG    1        2.023  -0.829   1.260  0.00  0.00    +0.108 C 
ENDROOT
BRANCH   5   8
ATOM      8  N   LIG    1        4.011  -1.782   2.342  0.00  0.00    -0.323 NA
ATOM      9  H   LIG    1        3.569  -2.687   2.284  0.00  0.00    +0.119 HD
ATOM     10  H   LIG    1        3.710  -1.369   3.213  0.00  0.00    +0.119 HD
ENDBRANCH   5   8
BRANCH   1  11
ATOM     11  C   LIG    1        0.038  -0.001   0.082  0.00  0.00    +0.089 C 
BRANCH  11  12
ATOM     12  C   LIG    1       -0.389   1.491   0.149  0.00  0.00    +0.003 C 
BRANCH  12  13
ATOM     13  C   LIG    1        0.066   2.267  -1.116  0.00  0.00    +0.001 C 
ATOM     14  C   LIG    1       -0.596   3.641  -1.310  0.00  0.00    +0.004 C 
ENDBRANCH  12  13
BRANCH  12  15
ATOM     15  C   LIG    1        0.034   2.192   1.469  0.00  0.00    +0.005 C 
BRANCH  15  16
ATOM     16  C   LIG    1       -0.612   1.606   2.741  0.00  0.00    +0.000 C 
BRANCH  16  18
ATOM     17  C   LIG    1       -0.844   1.775   5.287  0.00  0.00    +0.004 C 
ATOM     18  C   LIG    1       -0.200   2.355   4.021  0.00  0.00    -0.003 C 
ENDBRANCH  16  18
ENDBRANCH  15  16
ENDBRANCH  12  15
ENDBRANCH  11  12
ENDBRANCH   1  11
BRANCH   3  19
ATOM     19  C   LIG    1        3.859  -1.504  -2.552  0.00  0.00    +0.089 C 
BRANCH  19  20
ATOM     20  C   LIG    1        4.452  -0.463  -3.543  0.00  0.00    +0.003 C 
BRANCH  20  21
ATOM     21  C   LIG    1        3.556   0.788  -3.771  0.00  0.00    +0.001 C 
ATOM     22  C   LIG    1        4.161   1.858  -4.695  0.00  0.00    +0.004 C 
ENDBRANCH  20  21
BRANCH  20  23
ATOM     23  C   LIG    1        4.897  -1.154  -4.861  0.00  0.00    +0.005 C 
BRANCH  23  24
ATOM     24  C   LIG    1        3.757  -1.652  -5.775  0.00  0.00    +0.000 C 
BRANCH  24  25
ATOM     25  C   LIG    1        4.272  -2.350  -7.046  0.00  0.00    -0.003 C 
ATOM     26  C   LIG    1        3.140  -2.834  -7.962  0.00  0.00    +0.004 C 
ENDBRANCH  24  25
ENDBRANCH  23  24
ENDBRANCH  20  23
ENDBRANCH  19  20
ENDBRANCH   3  19
TORSDOF 13
