REMARK  Name = DB08961
REMARK                            x       y       z     vdW  Elec       q    Type
REMARK                         _______ _______ _______ _____ _____    ______ ____
ROOT
ATOM      1  C   LIG    1       -0.115  -0.111   0.083  0.00  0.00    +0.040 A 
ATOM      2  C   LIG    1       -0.675   1.183   0.003  0.00  0.00    +0.043 A 
ATOM      3  C   LIG    1       -2.070   1.323   0.031  0.00  0.00    +0.043 A 
ATOM      4  C   LIG    1       -2.914   0.216   0.141  0.00  0.00    +0.124 A 
ATOM      5  C   LIG    1       -2.353  -1.065   0.230  0.00  0.00    +0.069 A 
ATOM      6 CL   LIG    1       -3.324  -2.491   0.373  0.00  0.00    -0.081 Cl
ATOM      7  C   LIG    1       -0.969  -1.217   0.199  0.00  0.00    +0.045 A 
ENDROOT
BRANCH   2   8
ATOM      8  C   LIG    1        0.141   2.446  -0.108  0.00  0.00    +0.181 A 
ATOM      9  N   LIG    1       -0.119   3.387  -0.989  0.00  0.00    -0.108 NA
ATOM     10  N   LIG    1        0.829   4.360  -0.771  0.00  0.00    -0.023 NA
ATOM     11  N   LIG    1        1.625   3.942   0.262  0.00  0.00    -0.046 NA
ATOM     12  N   LIG    1        1.163   2.715   0.675  0.00  0.00    -0.239 N 
ATOM     13  H   LIG    1        1.521   2.156   1.402  0.00  0.00    +0.192 HD
ENDBRANCH   2   8
BRANCH   4  14
ATOM     14  S   LIG    1       -4.695   0.474   0.167  0.00  0.00    +0.057 S 
ATOM     15  O   LIG    1       -4.950   1.898  -0.081  0.00  0.00    -0.153 OA
ATOM     16  O   LIG    1       -5.207  -0.177   1.377  0.00  0.00    -0.153 OA
BRANCH  14  17
ATOM     17  N   LIG    1       -5.305  -0.411  -1.220  0.00  0.00    -0.203 NA
ATOM     18  H   LIG    1       -5.190  -1.426  -1.153  0.00  0.00    +0.144 HD
ATOM     19  H   LIG    1       -5.010  -0.033  -2.124  0.00  0.00    +0.144 HD
ENDBRANCH  14  17
ENDBRANCH   4  14
BRANCH   1  20
ATOM     20  N   LIG    1        1.284  -0.272   0.020  0.00  0.00    -0.339 N 
ATOM     21  H   LIG    1        1.838   0.568   0.119  0.00  0.00    +0.146 HD
BRANCH  20  22
ATOM     22  C   LIG    1        1.944  -1.536   0.327  0.00  0.00    +0.144 C 
BRANCH  22  26
ATOM     23  C   LIG    1        5.665  -2.054  -0.346  0.00  0.00    +0.008 A 
ATOM     24  C   LIG    1        5.882  -0.862   0.317  0.00  0.00    +0.045 A 
ATOM     25  S   LIG    1        4.399  -0.163   0.871  0.00  0.00    -0.100 S 
ATOM     26  C   LIG    1        3.453  -1.468   0.189  0.00  0.00    +0.007 A 
ATOM     27  C   LIG    1        4.311  -2.394  -0.407  0.00  0.00    +0.013 A 
ENDBRANCH  22  26
ENDBRANCH  20  22
ENDBRANCH   1  20
TORSDOF 6
