REMARK  Name = DB08142
REMARK                            x       y       z     vdW  Elec       q    Type
REMARK                         _______ _______ _______ _____ _____    ______ ____
ROOT
ATOM      1  C   LIG    1        1.442   0.468  -0.551  0.00  0.00    +0.168 A 
ATOM      2  C   LIG    1        2.287  -0.344  -1.362  0.00  0.00    +0.084 A 
ATOM      3  C   LIG    1        3.557  -0.205  -0.813  0.00  0.00    +0.129 A 
ATOM      4  N   LIG    1        3.410   0.654   0.233  0.00  0.00    -0.282 N 
ATOM      5  H   LIG    1        4.158   0.962   0.838  0.00  0.00    +0.188 HD
ATOM      6  N   LIG    1        2.151   1.061   0.399  0.00  0.00    -0.167 NA
ENDROOT
BRANCH   1   9
ATOM      7  N   LIG    1       -0.582   1.488   0.144  0.00  0.00    -0.307 N 
ATOM      8  H   LIG    1       -0.025   1.827   0.916  0.00  0.00    +0.149 HD
ATOM      9  C   LIG    1        0.005   0.636  -0.722  0.00  0.00    +0.266 C 
ATOM     10  O   LIG    1       -0.616   0.048  -1.610  0.00  0.00    -0.268 OA
BRANCH   7  17
ATOM     11  C   LIG    1       -3.971   2.671   1.633  0.00  0.00    -0.081 C 
ATOM     12  N   LIG    1       -4.313   3.659   0.507  0.00  0.00    +0.379 N 
ATOM     13  H   LIG    1       -3.794   4.515   0.641  0.00  0.00    -0.086 HD
ATOM     14  H   LIG    1       -5.294   3.894   0.555  0.00  0.00    -0.086 HD
ATOM     15  C   LIG    1       -3.995   3.080  -0.882  0.00  0.00    -0.081 C 
ATOM     16  C   LIG    1       -2.499   2.725  -0.966  0.00  0.00    +0.003 C 
ATOM     17  C   LIG    1       -2.008   1.816   0.188  0.00  0.00    +0.070 C 
ATOM     18  C   LIG    1       -2.474   2.316   1.573  0.00  0.00    +0.003 C 
ENDBRANCH   7  17
ENDBRANCH   1   9
BRANCH   2  19
ATOM     19  N   LIG    1        1.903  -1.129  -2.439  0.00  0.00    -0.278 N 
ATOM     20  H   LIG    1        0.924  -1.370  -2.492  0.00  0.00    +0.155 HD
ATOM     21  C   LIG    1        2.687  -1.456  -3.487  0.00  0.00    +0.251 C 
ATOM     22  O   LIG    1        3.850  -1.085  -3.658  0.00  0.00    -0.270 OA
BRANCH  21  23
ATOM     23  C   LIG    1        2.002  -2.305  -4.525  0.00  0.00    +0.074 A 
ATOM     24  C   LIG    1        1.000  -1.759  -5.356  0.00  0.00    +0.054 A 
ATOM     25 CL   LIG    1        0.500  -0.101  -5.247  0.00  0.00    -0.083 Cl
ATOM     26  C   LIG    1        0.374  -2.558  -6.314  0.00  0.00    +0.021 A 
ATOM     27  C   LIG    1        0.732  -3.895  -6.462  0.00  0.00    +0.003 A 
ATOM     28  C   LIG    1        1.720  -4.442  -5.649  0.00  0.00    +0.021 A 
ATOM     29  C   LIG    1        2.357  -3.661  -4.684  0.00  0.00    +0.054 A 
ATOM     30 CL   LIG    1        3.569  -4.425  -3.706  0.00  0.00    -0.083 Cl
ENDBRANCH  21  23
ENDBRANCH   2  19
TORSDOF 4
