REMARK  Name = DB08820
REMARK                            x       y       z     vdW  Elec       q    Type
REMARK                         _______ _______ _______ _____ _____    ______ ____
ROOT
ATOM      1  C   LIG    1        3.606   1.295   0.000  0.00  0.00    +0.122 A 
ATOM      2  C   LIG    1        2.216   1.320   0.000  0.00  0.00    +0.069 A 
ATOM      3  C   LIG    1        1.450   0.143   0.000  0.00  0.00    +0.041 A 
ATOM      4  C   LIG    1        2.120  -1.111   0.000  0.00  0.00    -0.020 A 
ATOM      5  C   LIG    1        3.530  -1.098   0.000  0.00  0.00    +0.013 A 
ATOM      6  C   LIG    1        4.302   0.075   0.000  0.00  0.00    -0.000 A 
ENDROOT
BRANCH   4   7
ATOM      7  C   LIG    1        1.362  -2.486   0.000  0.00  0.00    -0.011 C 
ATOM      8  C   LIG    1        0.498  -2.639  -1.281  0.00  0.00    +0.015 C 
ATOM      9  C   LIG    1        2.308  -3.725   0.000  0.00  0.00    +0.015 C 
ATOM     10  C   LIG    1        0.498  -2.639   1.281  0.00  0.00    +0.015 C 
ENDBRANCH   4   7
BRANCH   3  11
ATOM     11  N   LIG    1        0.031   0.169   0.000  0.00  0.00    -0.281 N 
ATOM     12  H   LIG    1       -0.378  -0.753   0.000  0.00  0.00    +0.155 HD
ATOM     13  C   LIG    1       -0.862   1.196   0.000  0.00  0.00    +0.253 C 
ATOM     14  O   LIG    1       -0.512   2.377   0.000  0.00  0.00    -0.270 OA
BRANCH  13  15
ATOM     15  C   LIG    1       -2.290   0.827   0.000  0.00  0.00    +0.100 A 
ATOM     16  C   LIG    1       -2.678  -0.482   0.000  0.00  0.00    +0.100 A 
ATOM     17  N   LIG    1       -3.979  -0.926   0.000  0.00  0.00    -0.360 N 
ATOM     18  H   LIG    1       -4.168  -1.918   0.000  0.00  0.00    +0.165 HD
ATOM     19  C   LIG    1       -5.056  -0.034   0.000  0.00  0.00    +0.050 A 
ATOM     20  C   LIG    1       -6.367  -0.514   0.000  0.00  0.00    +0.026 A 
ATOM     21  C   LIG    1       -7.432   0.384   0.000  0.00  0.00    +0.002 A 
ATOM     22  C   LIG    1       -7.187   1.755   0.000  0.00  0.00    +0.001 A 
ATOM     23  C   LIG    1       -5.876   2.232   0.000  0.00  0.00    +0.014 A 
ATOM     24  C   LIG    1       -4.783   1.349   0.000  0.00  0.00    +0.046 A 
ATOM     25  C   LIG    1       -3.365   1.886   0.000  0.00  0.00    +0.201 A 
ATOM     26  O   LIG    1       -3.168   3.104   0.000  0.00  0.00    -0.286 OA
ENDBRANCH  13  15
ENDBRANCH   3  11
BRANCH   6  27
ATOM     27  C   LIG    1        5.864   0.015   0.000  0.00  0.00    -0.009 C 
ATOM     28  C   LIG    1        6.432   0.698   1.271  0.00  0.00    +0.015 C 
ATOM     29  C   LIG    1        6.431  -1.434   0.000  0.00  0.00    +0.015 C 
ATOM     30  C   LIG    1        6.432   0.698  -1.271  0.00  0.00    +0.015 C 
ENDBRANCH   6  27
BRANCH   1  31
ATOM     31  O   LIG    1        4.244   2.509   0.000  0.00  0.00    -0.506 OA
ATOM     32  H   LIG    1        3.634   3.250   0.000  0.00  0.00    +0.292 HD
ENDBRANCH   1  31
TORSDOF 5
