REMARK  Name = DB08981
REMARK                            x       y       z     vdW  Elec       q    Type
REMARK                         _______ _______ _______ _____ _____    ______ ____
ROOT
ATOM      1  C   LIG    1        3.390  -3.928   0.012  0.00  0.00    -0.018 A 
ATOM      2  C   LIG    1        4.151  -2.753   0.011  0.00  0.00    +0.009 A 
ATOM      3  C   LIG    1        3.539  -1.503   0.003  0.00  0.00    +0.012 A 
ATOM      4  C   LIG    1        2.143  -1.394  -0.006  0.00  0.00    +0.017 A 
ATOM      5  C   LIG    1        1.376  -2.567  -0.005  0.00  0.00    +0.012 A 
ATOM      6  C   LIG    1        1.994  -3.814   0.004  0.00  0.00    +0.009 A 
ENDROOT
BRANCH   1  10
ATOM      7  C   LIG    1        5.289  -7.783   0.047  0.00  0.00    +0.000 A 
ATOM      8  C   LIG    1        4.077  -7.604   0.706  0.00  0.00    +0.001 A 
ATOM      9  C   LIG    1        3.463  -6.354   0.692  0.00  0.00    +0.008 A 
ATOM     10  C   LIG    1        4.051  -5.270   0.023  0.00  0.00    -0.018 A 
ATOM     11  C   LIG    1        5.273  -5.474  -0.635  0.00  0.00    +0.008 A 
ATOM     12  C   LIG    1        5.890  -6.723  -0.624  0.00  0.00    +0.001 A 
ENDBRANCH   1  10
BRANCH   4  13
ATOM     13  C   LIG    1        1.509  -0.034  -0.014  0.00  0.00    +0.164 C 
ATOM     14  O   LIG    1        2.165   1.011   0.006  0.00  0.00    -0.292 OA
BRANCH  13  15
ATOM     15  C   LIG    1       -0.031   0.038  -0.063  0.00  0.00    +0.091 C 
BRANCH  15  16
ATOM     16  C   LIG    1       -0.626   1.466  -0.129  0.00  0.00    +0.128 C 
BRANCH  16  17
ATOM     17  C   LIG    1       -2.154   1.494  -0.248  0.00  0.00    +0.305 C 
ATOM     18  O   LIG    1       -2.866   0.491  -0.258  0.00  0.00    -0.251 OA
BRANCH  17  19
ATOM     19  O   LIG    1       -2.615   2.775  -0.338  0.00  0.00    -0.481 OA
ATOM     20  H   LIG    1       -3.571   2.813  -0.412  0.00  0.00    +0.295 HD
ENDBRANCH  17  19
ENDBRANCH  16  17
ENDBRANCH  15  16
ENDBRANCH  13  15
ENDBRANCH   4  13
TORSDOF 6
