REMARK  Name = DB08907
REMARK                            x       y       z     vdW  Elec       q    Type
REMARK                         _______ _______ _______ _____ _____    ______ ____
ROOT
ATOM      1  C   LIG    1        1.609   0.095   0.199  0.00  0.00    -0.016 A 
ATOM      2  C   LIG    1        2.365  -0.917  -0.401  0.00  0.00    +0.010 A 
ATOM      3  C   LIG    1        3.762  -0.921  -0.320  0.00  0.00    -0.039 A 
ATOM      4  C   LIG    1        4.416   0.113   0.377  0.00  0.00    -0.047 A 
ATOM      5  C   LIG    1        5.934   0.162   0.500  0.00  0.00    +0.044 C 
ATOM      6  C   LIG    1        3.659   1.124   0.977  0.00  0.00    +0.004 A 
ATOM      7  C   LIG    1        2.269   1.116   0.890  0.00  0.00    +0.006 A 
ENDROOT
BRANCH   1  11
ATOM      8  C   LIG    1       -2.599   0.809   1.024  0.00  0.00    +0.176 C 
ATOM      9  C   LIG    1       -1.842   1.510  -0.134  0.00  0.00    +0.175 C 
ATOM     10  O   LIG    1       -0.441   1.403   0.122  0.00  0.00    -0.361 OA
ATOM     11  C   LIG    1        0.082   0.072   0.097  0.00  0.00    +0.180 C 
ATOM     12  C   LIG    1       -0.577  -0.749   1.241  0.00  0.00    +0.179 C 
ATOM     13  C   LIG    1       -2.122  -0.656   1.177  0.00  0.00    +0.177 C 
BRANCH   8  14
ATOM     14  O   LIG    1       -4.003   0.867   0.837  0.00  0.00    -0.386 OA
ATOM     15  H   LIG    1       -4.427   0.521   1.627  0.00  0.00    +0.210 HD
ENDBRANCH   8  14
BRANCH  12  16
ATOM     16  O   LIG    1       -0.156  -2.104   1.226  0.00  0.00    -0.386 OA
ATOM     17  H   LIG    1       -0.393  -2.503   2.067  0.00  0.00    +0.210 HD
ENDBRANCH  12  16
BRANCH  13  18
ATOM     18  O   LIG    1       -2.725  -1.285   2.297  0.00  0.00    -0.386 OA
ATOM     19  H   LIG    1       -3.215  -2.051   1.988  0.00  0.00    +0.210 HD
ENDBRANCH  13  18
BRANCH   9  20
ATOM     20  C   LIG    1       -2.190   3.012  -0.232  0.00  0.00    +0.190 C 
BRANCH  20  21
ATOM     21  O   LIG    1       -1.570   3.600  -1.358  0.00  0.00    -0.392 OA
ATOM     22  H   LIG    1       -1.798   4.533  -1.381  0.00  0.00    +0.210 HD
ENDBRANCH  20  21
ENDBRANCH   9  20
ENDBRANCH   1  11
BRANCH   3  23
ATOM     23  C   LIG    1        4.535  -2.054  -0.996  0.00  0.00    +0.077 C 
BRANCH  23  24
ATOM     24  C   LIG    1        5.257  -1.625  -2.260  0.00  0.00    -0.005 A 
ATOM     25  C   LIG    1        4.857  -0.739  -3.257  0.00  0.00    +0.012 A 
ATOM     26  C   LIG    1        5.787  -0.565  -4.284  0.00  0.00    +0.016 A 
ATOM     27  C   LIG    1        6.943  -1.322  -4.125  0.00  0.00    +0.020 A 
ATOM     28  S   LIG    1        6.830  -2.256  -2.656  0.00  0.00    -0.093 S 
BRANCH  27  29
ATOM     29  C   LIG    1        8.161  -1.387  -4.998  0.00  0.00    -0.011 A 
ATOM     30  C   LIG    1        9.043  -2.477  -4.962  0.00  0.00    +0.012 A 
ATOM     31  C   LIG    1       10.165  -2.505  -5.786  0.00  0.00    +0.039 A 
ATOM     32  C   LIG    1       10.413  -1.443  -6.652  0.00  0.00    +0.123 A 
ATOM     33  F   LIG    1       11.503  -1.469  -7.451  0.00  0.00    -0.205 F 
ATOM     34  C   LIG    1        9.545  -0.356  -6.702  0.00  0.00    +0.039 A 
ATOM     35  C   LIG    1        8.422  -0.330  -5.878  0.00  0.00    +0.012 A 
ENDBRANCH  27  29
ENDBRANCH  23  24
ENDBRANCH   3  23
TORSDOF 9
