REMARK  Name = DB08987
REMARK                            x       y       z     vdW  Elec       q    Type
REMARK                         _______ _______ _______ _____ _____    ______ ____
ROOT
ATOM      1  N   LIG    1       -1.402  -1.743   1.093  0.00  0.00    -0.284 N 
ATOM      2  H   LIG    1       -1.728  -1.861   0.145  0.00  0.00    +0.155 HD
ATOM      3  C   LIG    1       -0.490  -0.777   1.330  0.00  0.00    +0.234 C 
ATOM      4  O   LIG    1       -0.085  -0.452   2.450  0.00  0.00    -0.274 OA
ENDROOT
BRANCH   1   5
ATOM      5  C   LIG    1       -2.019  -2.554   2.064  0.00  0.00    +0.039 A 
ATOM      6  C   LIG    1       -3.428  -2.556   2.125  0.00  0.00    -0.029 A 
ATOM      7  C   LIG    1       -4.276  -1.702   1.188  0.00  0.00    +0.045 C 
ATOM      8  C   LIG    1       -4.079  -3.353   3.071  0.00  0.00    +0.005 A 
ATOM      9  C   LIG    1       -3.351  -4.152   3.946  0.00  0.00    +0.001 A 
ATOM     10  C   LIG    1       -1.962  -4.174   3.873  0.00  0.00    +0.005 A 
ATOM     11  C   LIG    1       -1.282  -3.391   2.935  0.00  0.00    -0.029 A 
ATOM     12  C   LIG    1        0.235  -3.541   2.858  0.00  0.00    +0.045 C 
ENDBRANCH   1   5
BRANCH   3  13
ATOM     13  C   LIG    1        0.056  -0.042   0.074  0.00  0.00    +0.143 C 
BRANCH  13  14
ATOM     14  C   LIG    1       -0.550   1.394   0.016  0.00  0.00    +0.025 C 
ATOM     15  C   LIG    1       -2.086   1.460  -0.100  0.00  0.00    +0.006 C 
ENDBRANCH  13  14
BRANCH  13  16
ATOM     16  N   LIG    1        1.557  -0.173   0.108  0.00  0.00    -0.292 NA
BRANCH  16  17
ATOM     17  C   LIG    1        2.300   0.822  -0.689  0.00  0.00    +0.082 C 
ATOM     18  C   LIG    1        2.628   2.094   0.114  0.00  0.00    +0.020 C 
ENDBRANCH  16  17
BRANCH  16  19
ATOM     19  C   LIG    1        1.960  -1.524  -0.335  0.00  0.00    +0.085 C 
BRANCH  19  20
ATOM     20  C   LIG    1        3.340  -1.945   0.215  0.00  0.00    +0.012 C 
ATOM     21  C   LIG    1        3.599  -3.451   0.077  0.00  0.00    +0.005 C 
ENDBRANCH  19  20
ENDBRANCH  16  19
ENDBRANCH  13  16
ENDBRANCH   3  13
TORSDOF 7
