REMARK  Name = DB08842
REMARK                            x       y       z     vdW  Elec       q    Type
REMARK                         _______ _______ _______ _____ _____    ______ ____
ROOT
ATOM      1  C   LIG    1       -0.023   0.202  -0.029  0.00  0.00    +0.171 C 
ENDROOT
BRANCH   1   2
ATOM      2  O   LIG    1       -0.686  -0.372  -1.157  0.00  0.00    -0.463 OA
BRANCH   2   4
ATOM      3  C   LIG    1       -2.463  -1.341  -2.429  0.00  0.00    +0.136 C 
ATOM      4  C   LIG    1       -1.979  -0.772  -1.102  0.00  0.00    +0.304 C 
ATOM      5  O   LIG    1       -2.719  -0.716  -0.120  0.00  0.00    -0.251 OA
ENDBRANCH   2   4
ENDBRANCH   1   2
BRANCH   1   6
ATOM      6  C   LIG    1        1.515   0.007  -0.152  0.00  0.00    -0.030 C 
BRANCH   6   7
ATOM      7  N   LIG    1        2.022  -1.465  -0.040  0.00  0.00    +0.377 N 
ATOM      8  C   LIG    1        1.585  -2.342  -1.239  0.00  0.00    -0.093 C 
ATOM      9  C   LIG    1        1.550  -2.128   1.277  0.00  0.00    -0.093 C 
ATOM     10  C   LIG    1        3.571  -1.425  -0.028  0.00  0.00    -0.093 C 
ENDBRANCH   6   7
ENDBRANCH   1   6
BRANCH   1  11
ATOM     11  C   LIG    1       -0.403   1.710   0.097  0.00  0.00    +0.163 C 
BRANCH  11  12
ATOM     12  C   LIG    1       -0.153   2.340   1.489  0.00  0.00    +0.308 C 
ATOM     13  O   LIG    1       -0.187   3.590   1.542  0.00  0.00    -0.251 OA
BRANCH  12  14
ATOM     14  O   LIG    1        0.055   1.603   2.482  0.00  0.00    -0.481 OA
ATOM     15  H   LIG    1        0.069   0.672   2.380  0.00  0.00    +0.295 HD
ENDBRANCH  12  14
ENDBRANCH  11  12
ENDBRANCH   1  11
TORSDOF 7
