REMARK  Name = DB08604
REMARK                            x       y       z     vdW  Elec       q    Type
REMARK                         _______ _______ _______ _____ _____    ______ ____
ROOT
ATOM      1  O   LIG    1        0.071   0.142  -0.092  0.00  0.00    -0.451 OA
ENDROOT
BRANCH   1   2
ATOM      2  C   LIG    1       -0.573   1.359  -0.030  0.00  0.00    +0.147 A 
ATOM      3  C   LIG    1       -0.221   2.415  -0.883  0.00  0.00    +0.049 A 
ATOM      4  C   LIG    1       -0.884   3.639  -0.802  0.00  0.00    +0.023 A 
ATOM      5  C   LIG    1       -1.907   3.817   0.130  0.00  0.00    +0.043 A 
ATOM      6 CL   LIG    1       -2.726   5.333   0.234  0.00  0.00    -0.083 Cl
ATOM      7  C   LIG    1       -2.267   2.770   0.977  0.00  0.00    +0.043 A 
ATOM      8  C   LIG    1       -1.605   1.543   0.899  0.00  0.00    +0.085 A 
ATOM      9 CL   LIG    1       -2.067   0.264   1.965  0.00  0.00    -0.080 Cl
ENDBRANCH   1   2
BRANCH   1  10
ATOM     10  C   LIG    1        1.450   0.085  -0.094  0.00  0.00    +0.170 A 
ATOM     11  C   LIG    1        2.212   0.836   0.812  0.00  0.00    +0.051 A 
ATOM     12  C   LIG    1        3.604   0.745   0.810  0.00  0.00    +0.024 A 
ATOM     13  C   LIG    1        4.246  -0.105  -0.091  0.00  0.00    +0.045 A 
ATOM     14 CL   LIG    1        5.968  -0.220  -0.093  0.00  0.00    -0.083 Cl
ATOM     15  C   LIG    1        3.495  -0.865  -0.988  0.00  0.00    +0.069 A 
ATOM     16  C   LIG    1        2.101  -0.775  -0.989  0.00  0.00    +0.160 A 
BRANCH  16  17
ATOM     17  O   LIG    1        1.381  -1.535  -1.875  0.00  0.00    -0.503 OA
ATOM     18  H   LIG    1        1.935  -2.089  -2.430  0.00  0.00    +0.292 HD
ENDBRANCH  16  17
ENDBRANCH   1  10
TORSDOF 3
