REMARK  Name = DB08801
REMARK                            x       y       z     vdW  Elec       q    Type
REMARK                         _______ _______ _______ _____ _____    ______ ____
ROOT
ATOM      1  C   LIG    1       -4.713   0.175  -0.769  0.00  0.00    +0.001 A 
ATOM      2  C   LIG    1       -4.601  -1.204  -0.584  0.00  0.00    +0.000 A 
ATOM      3  C   LIG    1       -3.355  -1.774  -0.324  0.00  0.00    +0.004 A 
ATOM      4  C   LIG    1       -2.227  -0.956  -0.248  0.00  0.00    -0.036 A 
ATOM      5  C   LIG    1       -0.801  -1.311   0.014  0.00  0.00    +0.066 C 
ATOM      6  C   LIG    1       -0.090   0.025  -0.028  0.00  0.00    -0.060 C 
ATOM      7  C   LIG    1       -0.977   1.017  -0.291  0.00  0.00    -0.032 C 
ATOM      8  C   LIG    1       -2.327   0.418  -0.428  0.00  0.00    -0.018 A 
ATOM      9  C   LIG    1       -3.579   0.986  -0.693  0.00  0.00    +0.008 A 
ENDROOT
BRANCH   7  10
ATOM     10  C   LIG    1       -0.721   2.522  -0.430  0.00  0.00    +0.065 C 
ATOM     11  C   LIG    1       -1.022   3.080  -1.838  0.00  0.00    +0.019 C 
BRANCH  10  12
ATOM     12  C   LIG    1       -1.312   3.341   0.724  0.00  0.00    +0.048 A 
ATOM     13  N   LIG    1       -2.528   3.923   0.528  0.00  0.00    -0.259 NA
ATOM     14  C   LIG    1       -3.063   4.649   1.542  0.00  0.00    +0.111 A 
ATOM     15  C   LIG    1       -2.420   4.827   2.768  0.00  0.00    +0.020 A 
ATOM     16  C   LIG    1       -1.171   4.233   2.957  0.00  0.00    +0.003 A 
ATOM     17  C   LIG    1       -0.605   3.483   1.925  0.00  0.00    +0.024 A 
ENDBRANCH  10  12
ENDBRANCH   7  10
BRANCH   6  18
ATOM     18  C   LIG    1        1.414   0.088   0.212  0.00  0.00    +0.046 C 
BRANCH  18  19
ATOM     19  C   LIG    1        1.933  -0.524   1.535  0.00  0.00    +0.088 C 
BRANCH  19  20
ATOM     20  N   LIG    1        1.679   0.295   2.728  0.00  0.00    -0.308 NA
ATOM     21  C   LIG    1        0.288   0.228   3.175  0.00  0.00    +0.104 C 
ATOM     22  C   LIG    1        2.532  -0.159   3.824  0.00  0.00    +0.104 C 
ENDBRANCH  19  20
ENDBRANCH  18  19
ENDBRANCH   6  18
TORSDOF 5
