REMARK  Name = DB08966
REMARK                            x       y       z     vdW  Elec       q    Type
REMARK                         _______ _______ _______ _____ _____    ______ ____
ROOT
ATOM      1  C   LIG    1        1.230  -0.881  -1.121  0.00  0.00    +0.021 C 
ATOM      2  C   LIG    1        1.580   0.537  -1.587  0.00  0.00    +0.062 C 
ATOM      3  C   LIG    1        2.123  -1.745  -0.564  0.00  0.00    +0.015 C 
ENDROOT
BRANCH   1   4
ATOM      4  N   LIG    1       -0.093  -1.187  -1.307  0.00  0.00    -0.273 N 
ATOM      5  C   LIG    1       -0.533  -1.550  -2.535  0.00  0.00    +0.332 C 
ATOM      6  O   LIG    1       -1.695  -1.853  -2.809  0.00  0.00    -0.279 OA
BRANCH   4   7
ATOM      7  C   LIG    1       -0.995  -1.167  -0.137  0.00  0.00    +0.153 C 
BRANCH   7   8
ATOM      8  C   LIG    1       -1.108   0.195   0.546  0.00  0.00    +0.028 A 
ATOM      9  C   LIG    1       -1.741   1.258  -0.111  0.00  0.00    +0.121 A 
ATOM     10  N   LIG    1       -1.867   2.494   0.439  0.00  0.00    -0.240 NA
ATOM     11  C   LIG    1       -1.352   2.643   1.686  0.00  0.00    +0.128 A 
ATOM     12  C   LIG    1       -1.471   4.012   2.327  0.00  0.00    +0.088 C 
ATOM     13  N   LIG    1       -0.737   1.680   2.420  0.00  0.00    -0.218 NA
ATOM     14  C   LIG    1       -0.625   0.456   1.841  0.00  0.00    +0.124 A 
BRANCH  14  15
ATOM     15  N   LIG    1        0.005  -0.526   2.604  0.00  0.00    -0.343 N 
ATOM     16  H   LIG    1        0.336  -0.294   3.530  0.00  0.00    +0.144 HD
ATOM     17  H   LIG    1        0.124  -1.454   2.225  0.00  0.00    +0.144 HD
ENDBRANCH  14  15
ENDBRANCH   7   8
ENDBRANCH   4   7
ENDBRANCH   1   4
BRANCH   3  18
ATOM     18  C   LIG    1        1.801  -3.191  -0.166  0.00  0.00    +0.072 C 
BRANCH  18  19
ATOM     19  C   LIG    1        1.919  -3.519   1.333  0.00  0.00    +0.161 C 
BRANCH  19  20
ATOM     20  O   LIG    1        1.478  -4.837   1.578  0.00  0.00    -0.395 OA
ATOM     21  H   LIG    1        1.588  -5.027   2.512  0.00  0.00    +0.209 HD
ENDBRANCH  19  20
ENDBRANCH  18  19
ENDBRANCH   3  18
BRANCH   3  22
ATOM     22  S   LIG    1        3.828  -1.297  -0.267  0.00  0.00    -0.060 S 
BRANCH  22  23
ATOM     23  S   LIG    1        3.865  -0.698   1.686  0.00  0.00    -0.086 S 
BRANCH  23  24
ATOM     24  C   LIG    1        3.182   0.981   1.637  0.00  0.00    +0.113 C 
BRANCH  24  25
ATOM     25  C   LIG    1        3.022   1.663   3.009  0.00  0.00    +0.129 C 
ATOM     26  O   LIG    1        4.274   1.778   3.678  0.00  0.00    -0.376 OA
ATOM     27  C   LIG    1        4.911   2.997   3.296  0.00  0.00    +0.160 C 
ATOM     28  C   LIG    1        3.778   3.957   2.924  0.00  0.00    +0.031 C 
ATOM     29  C   LIG    1        2.523   3.106   2.961  0.00  0.00    +0.034 C 
ENDBRANCH  24  25
ENDBRANCH  23  24
ENDBRANCH  22  23
ENDBRANCH   3  22
TORSDOF 11
