REMARK  Name = DB08985
REMARK                            x       y       z     vdW  Elec       q    Type
REMARK                         _______ _______ _______ _____ _____    ______ ____
ROOT
ATOM      1  C   LIG    1       -0.545   1.435  -0.063  0.00  0.00    -0.014 A 
ATOM      2  C   LIG    1       -0.800   2.036   1.176  0.00  0.00    +0.006 A 
ATOM      3  C   LIG    1       -1.260   3.351   1.242  0.00  0.00    +0.004 A 
ATOM      4  C   LIG    1       -1.465   4.080   0.071  0.00  0.00    +0.045 A 
ATOM      5  C   LIG    1       -1.206   3.494  -1.168  0.00  0.00    +0.117 A 
ATOM      6  C   LIG    1       -0.745   2.178  -1.235  0.00  0.00    +0.051 A 
ENDROOT
BRANCH   5   7
ATOM      7  O   LIG    1       -1.402   4.212  -2.318  0.00  0.00    -0.507 OA
ATOM      8  H   LIG    1       -1.191   3.714  -3.111  0.00  0.00    +0.292 HD
ENDBRANCH   5   7
BRANCH   1   9
ATOM      9  C   LIG    1       -0.024  -0.002  -0.115  0.00  0.00    +0.158 C 
BRANCH   9  10
ATOM     10  O   LIG    1       -0.569  -0.741  -1.197  0.00  0.00    -0.386 OA
ATOM     11  H   LIG    1       -1.509  -0.857  -1.041  0.00  0.00    +0.210 HD
ENDBRANCH   9  10
BRANCH   9  12
ATOM     12  C   LIG    1        1.520  -0.026  -0.190  0.00  0.00    +0.117 C 
BRANCH  12  13
ATOM     13  N   LIG    1        2.039  -1.373   0.019  0.00  0.00    -0.313 NA
ATOM     14  H   LIG    1        1.646  -1.997  -0.672  0.00  0.00    +0.122 HD
BRANCH  13  15
ATOM     15  C   LIG    1        3.492  -1.392  -0.063  0.00  0.00    +0.077 C 
ATOM     16  C   LIG    1        3.999  -2.822   0.159  0.00  0.00    +0.020 C 
ENDBRANCH  13  15
ENDBRANCH  12  13
ENDBRANCH   9  12
ENDBRANCH   1   9
TORSDOF 6
