REMARK  Name = DB08946
REMARK                            x       y       z     vdW  Elec       q    Type
REMARK                         _______ _______ _______ _____ _____    ______ ____
ROOT
ATOM      1  C   LIG    1       -0.537   1.490  -0.136  0.00  0.00    -0.019 A 
ATOM      2  C   LIG    1       -0.992   2.123  -1.314  0.00  0.00    +0.039 A 
ATOM      3  I   LIG    1       -0.933   1.136  -3.179  0.00  0.00    -0.042 I 
ATOM      4  C   LIG    1       -1.496   3.435  -1.257  0.00  0.00    +0.051 A 
ATOM      5  C   LIG    1       -1.555   4.112  -0.033  0.00  0.00    +0.036 A 
ATOM      6  I   LIG    1       -2.295   6.069   0.132  0.00  0.00    -0.042 I 
ATOM      7  C   LIG    1       -1.117   3.482   1.126  0.00  0.00    +0.031 A 
ATOM      8  C   LIG    1       -0.614   2.185   1.086  0.00  0.00    +0.019 A 
ATOM      9  I   LIG    1       -0.007   1.353   2.916  0.00  0.00    -0.043 I 
ENDROOT
BRANCH   4  10
ATOM     10  N   LIG    1       -1.943   4.075  -2.416  0.00  0.00    -0.356 N 
ATOM     11  H   LIG    1       -2.065   5.075  -2.341  0.00  0.00    +0.142 HD
ATOM     12  H   LIG    1       -1.581   3.708  -3.284  0.00  0.00    +0.142 HD
ENDBRANCH   4  10
BRANCH   1  13
ATOM     13  C   LIG    1        0.033   0.063  -0.160  0.00  0.00    +0.052 C 
BRANCH  13  14
ATOM     14  C   LIG    1        1.586  -0.037  -0.102  0.00  0.00    +0.102 C 
BRANCH  14  16
ATOM     15  C   LIG    1        3.560  -1.712   0.242  0.00  0.00    +0.004 C 
ATOM     16  C   LIG    1        2.050  -1.516   0.010  0.00  0.00    +0.011 C 
ENDBRANCH  14  16
BRANCH  14  17
ATOM     17  C   LIG    1        2.282   0.755  -1.231  0.00  0.00    +0.308 C 
ATOM     18  O   LIG    1        2.707   1.899  -1.080  0.00  0.00    -0.251 OA
BRANCH  17  19
ATOM     19  O   LIG    1        2.341   0.057  -2.403  0.00  0.00    -0.480 OA
ATOM     20  H   LIG    1        2.762   0.559  -3.104  0.00  0.00    +0.295 HD
ENDBRANCH  17  19
ENDBRANCH  14  17
ENDBRANCH  13  14
ENDBRANCH   1  13
TORSDOF 6
