REMARK  Name = DB08933
REMARK                            x       y       z     vdW  Elec       q    Type
REMARK                         _______ _______ _______ _____ _____    ______ ____
ROOT
ATOM      1  C   LIG    1        1.388   0.084   0.173  0.00  0.00    +0.145 C 
ATOM      2  C   LIG    1        2.080  -0.766   0.969  0.00  0.00    +0.076 C 
ATOM      3  S   LIG    1        1.363  -2.034   2.019  0.00  0.00    -0.114 S 
ATOM      4  C   LIG    1        2.916  -2.867   2.401  0.00  0.00    +0.094 C 
ATOM      5  C   LIG    1        3.984  -1.792   2.558  0.00  0.00    +0.093 C 
ATOM      6  S   LIG    1        3.867  -0.709   1.112  0.00  0.00    -0.107 S 
ENDROOT
BRANCH   5   7
ATOM      7  C   LIG    1        5.405  -2.344   2.733  0.00  0.00    -0.015 A 
ATOM      8  C   LIG    1        5.964  -3.129   1.713  0.00  0.00    +0.007 A 
ATOM      9  C   LIG    1        7.250  -3.652   1.834  0.00  0.00    +0.020 A 
ATOM     10  C   LIG    1        7.998  -3.400   2.982  0.00  0.00    +0.042 A 
ATOM     11 CL   LIG    1        9.590  -4.047   3.136  0.00  0.00    -0.083 Cl
ATOM     12  C   LIG    1        7.457  -2.624   4.006  0.00  0.00    +0.040 A 
ATOM     13  C   LIG    1        6.169  -2.096   3.891  0.00  0.00    +0.047 A 
ATOM     14 CL   LIG    1        5.569  -1.148   5.210  0.00  0.00    -0.083 Cl
ENDBRANCH   5   7
BRANCH   1  15
ATOM     15  N   LIG    1       -0.014   0.071   0.022  0.00  0.00    -0.296 N 
ATOM     16  C   LIG    1       -0.863   1.155  -0.003  0.00  0.00    +0.204 A 
ATOM     17  N   LIG    1       -2.125   0.840  -0.176  0.00  0.00    -0.244 NA
ATOM     18  C   LIG    1       -2.126  -0.476  -0.284  0.00  0.00    +0.130 A 
ATOM     19  C   LIG    1       -0.849  -1.003  -0.178  0.00  0.00    +0.113 A 
ENDBRANCH   1  15
BRANCH   1  20
ATOM     20  C   LIG    1        2.021   1.107  -0.600  0.00  0.00    +0.119 C 
ATOM     21  N   LIG    1        2.522   1.947  -1.219  0.00  0.00    -0.189 NA
ENDBRANCH   1  20
TORSDOF 3
