REMARK  Name = DB08837
REMARK                            x       y       z     vdW  Elec       q    Type
REMARK                         _______ _______ _______ _____ _____    ______ ____
ROOT
ATOM      1  N   LIG    1        0.000   0.000   0.000  0.00  0.00    +0.379 N 
ENDROOT
BRANCH   1   2
ATOM      2  C   LIG    1       -0.570  -0.781   1.233  0.00  0.00    -0.079 C 
ATOM      3  C   LIG    1       -2.101  -0.677   1.412  0.00  0.00    -0.016 C 
ENDBRANCH   1   2
BRANCH   1   4
ATOM      4  C   LIG    1       -0.546  -0.669  -1.307  0.00  0.00    -0.079 C 
ATOM      5  C   LIG    1        0.062  -0.119  -2.617  0.00  0.00    -0.016 C 
ENDBRANCH   1   4
BRANCH   1   6
ATOM      6  C   LIG    1       -0.449   1.501   0.014  0.00  0.00    -0.079 C 
ATOM      7  C   LIG    1       -0.133   2.257   1.325  0.00  0.00    -0.016 C 
ENDBRANCH   1   6
BRANCH   1   8
ATOM      8  C   LIG    1        1.565  -0.051   0.060  0.00  0.00    -0.079 C 
ATOM      9  C   LIG    1        2.172  -1.460  -0.119  0.00  0.00    -0.016 C 
ENDBRANCH   1   8
TORSDOF 4
