REMARK  Name = DB08822
REMARK                            x       y       z     vdW  Elec       q    Type
REMARK                         _______ _______ _______ _____ _____    ______ ____
ROOT
ATOM      1  C   LIG    1       -0.948   0.949   0.002  0.00  0.00    +0.086 A 
ATOM      2  C   LIG    1       -0.674   2.330   0.136  0.00  0.00    +0.085 A 
ATOM      3  C   LIG    1       -1.785   3.186   0.078  0.00  0.00    +0.017 A 
ATOM      4  C   LIG    1       -3.088   2.721  -0.074  0.00  0.00    +0.003 A 
ATOM      5  C   LIG    1       -3.360   1.361  -0.182  0.00  0.00    +0.030 A 
ATOM      6  C   LIG    1       -2.283   0.468  -0.147  0.00  0.00    +0.094 A 
ATOM      7  N   LIG    1       -2.330  -0.894  -0.242  0.00  0.00    -0.195 NA
ATOM      8  C   LIG    1       -1.075  -1.264  -0.172  0.00  0.00    +0.299 A 
ATOM      9  N   LIG    1       -0.184  -0.216  -0.049  0.00  0.00    -0.289 N 
ENDROOT
BRANCH   2  10
ATOM     10  C   LIG    1        0.663   2.947   0.320  0.00  0.00    +0.342 C 
ATOM     11  O   LIG    1        1.402   2.694   1.272  0.00  0.00    -0.245 OA
BRANCH  10  12
ATOM     12  O   LIG    1        0.980   3.780  -0.703  0.00  0.00    -0.453 OA
BRANCH  12  13
ATOM     13  C   LIG    1        2.223   4.479  -0.740  0.00  0.00    +0.310 C 
BRANCH  13  14
ATOM     14  C   LIG    1        2.158   5.800   0.006  0.00  0.00    +0.187 A 
ATOM     15  O   LIG    1        1.937   5.730   1.324  0.00  0.00    -0.392 OA
ATOM     16  C   LIG    1        1.930   6.996   1.792  0.00  0.00    +0.521 A 
ATOM     17  O   LIG    1        1.759   7.327   2.964  0.00  0.00    -0.202 OA
ATOM     18  O   LIG    1        2.143   7.836   0.756  0.00  0.00    -0.396 OA
ATOM     19  C   LIG    1        2.283   7.078  -0.338  0.00  0.00    +0.151 A 
ATOM     20  C   LIG    1        2.547   7.818  -1.631  0.00  0.00    +0.090 C 
ENDBRANCH  13  14
ENDBRANCH  12  13
ENDBRANCH  10  12
ENDBRANCH   2  10
BRANCH   8  21
ATOM     21  O   LIG    1       -0.638  -2.570  -0.212  0.00  0.00    -0.464 OA
BRANCH  21  22
ATOM     22  C   LIG    1       -1.631  -3.593  -0.244  0.00  0.00    +0.229 C 
ATOM     23  C   LIG    1       -0.934  -4.957  -0.242  0.00  0.00    +0.048 C 
ENDBRANCH  21  22
ENDBRANCH   8  21
BRANCH   9  24
ATOM     24  C   LIG    1        1.270  -0.365   0.057  0.00  0.00    +0.162 C 
BRANCH  24  25
ATOM     25  C   LIG    1        1.856  -0.260   1.464  0.00  0.00    -0.028 A 
ATOM     26  C   LIG    1        1.076  -0.455   2.610  0.00  0.00    +0.006 A 
ATOM     27  C   LIG    1        1.637  -0.280   3.872  0.00  0.00    +0.009 A 
ATOM     28  C   LIG    1        2.978   0.090   4.005  0.00  0.00    -0.017 A 
ATOM     29  C   LIG    1        3.765   0.233   2.858  0.00  0.00    +0.009 A 
ATOM     30  C   LIG    1        3.209   0.056   1.596  0.00  0.00    +0.006 A 
BRANCH  28  31
ATOM     31  C   LIG    1        3.560   0.351   5.351  0.00  0.00    -0.007 A 
ATOM     32  C   LIG    1        3.649  -0.725   6.245  0.00  0.00    +0.009 A 
ATOM     33  C   LIG    1        4.225  -0.572   7.503  0.00  0.00    +0.001 A 
ATOM     34  C   LIG    1        4.723   0.666   7.891  0.00  0.00    +0.001 A 
ATOM     35  C   LIG    1        4.633   1.754   7.027  0.00  0.00    +0.012 A 
ATOM     36  C   LIG    1        4.044   1.623   5.758  0.00  0.00    +0.028 A 
BRANCH  36  37
ATOM     37  C   LIG    1        3.928   2.838   4.919  0.00  0.00    +0.183 A 
ATOM     38  N   LIG    1        2.969   3.152   4.159  0.00  0.00    -0.054 NA
ATOM     39  O   LIG    1        3.319   4.365   3.574  0.00  0.00    -0.295 OA
ATOM     40  C   LIG    1        4.504   4.771   4.004  0.00  0.00    +0.440 A 
ATOM     41  O   LIG    1        5.059   5.808   3.649  0.00  0.00    -0.221 OA
ATOM     42  N   LIG    1        4.890   3.779   4.884  0.00  0.00    -0.271 N 
ATOM     43  H   LIG    1        5.762   3.782   5.391  0.00  0.00    +0.174 HD
ENDBRANCH  36  37
ENDBRANCH  28  31
ENDBRANCH  24  25
ENDBRANCH   9  24
TORSDOF 10
