REMARK  Name = DB08867
REMARK                            x       y       z     vdW  Elec       q    Type
REMARK                         _______ _______ _______ _____ _____    ______ ____
ROOT
ATOM      1  C   LIG    1       -1.039   3.706  -1.800  0.00  0.00    +0.129 C 
ATOM      2  C   LIG    1       -0.190   2.386  -1.640  0.00  0.00    +0.008 C 
ATOM      3  C   LIG    1        1.320   2.628  -1.996  0.00  0.00    +0.015 C 
ATOM      4  C   LIG    1       -0.302   1.653  -0.272  0.00  0.00    +0.022 C 
ATOM      5  C   LIG    1        0.240   0.183  -0.262  0.00  0.00    +0.046 C 
ATOM      6  C   LIG    1       -0.423  -0.613  -1.418  0.00  0.00    -0.055 C 
ATOM      7  C   LIG    1       -0.309   0.084  -2.805  0.00  0.00    +0.020 C 
ATOM      8  C   LIG    1       -0.894  -0.779  -3.954  0.00  0.00    +0.013 C 
ATOM      9  C   LIG    1       -2.168  -1.533  -3.563  0.00  0.00    +0.036 C 
ATOM     10  C   LIG    1       -1.854  -2.395  -2.350  0.00  0.00    -0.041 C 
ATOM     11  C   LIG    1       -2.290  -3.676  -2.296  0.00  0.00    +0.050 C 
ATOM     12  C   LIG    1       -2.061  -4.575  -1.172  0.00  0.00    +0.157 C 
ATOM     13  O   LIG    1       -2.574  -5.691  -1.116  0.00  0.00    -0.293 OA
ATOM     14  C   LIG    1       -1.037  -4.085  -0.140  0.00  0.00    +0.083 C 
ATOM     15  C   LIG    1       -1.101  -2.555   0.090  0.00  0.00    +0.043 C 
ATOM     16  C   LIG    1       -1.093  -1.789  -1.244  0.00  0.00    -0.044 C 
ATOM     17  C   LIG    1       -0.934   1.497  -2.674  0.00  0.00    +0.005 C 
ATOM     18  C   LIG    1       -1.078   2.394  -3.912  0.00  0.00    +0.008 C 
ATOM     19  C   LIG    1       -1.203   3.826  -3.348  0.00  0.00    +0.043 C 
ENDROOT
BRANCH   5  20
ATOM     20  C   LIG    1        1.765   0.042  -0.104  0.00  0.00    -0.040 A 
ATOM     21  C   LIG    1        2.526  -0.761  -0.961  0.00  0.00    +0.006 A 
ATOM     22  C   LIG    1        3.902  -0.877  -0.787  0.00  0.00    +0.023 A 
ATOM     23  C   LIG    1        4.563  -0.207   0.256  0.00  0.00    +0.029 A 
ATOM     24  C   LIG    1        3.786   0.584   1.119  0.00  0.00    +0.023 A 
ATOM     25  C   LIG    1        2.410   0.700   0.946  0.00  0.00    +0.006 A 
BRANCH  23  26
ATOM     26  N   LIG    1        5.972  -0.321   0.431  0.00  0.00    -0.336 N 
ATOM     27  C   LIG    1        6.599   0.172   1.658  0.00  0.00    +0.129 C 
ATOM     28  C   LIG    1        6.730  -1.307  -0.339  0.00  0.00    +0.129 C 
ENDBRANCH  23  26
ENDBRANCH   5  20
BRANCH   1  30
ATOM     29  C   LIG    1       -0.608   5.286   0.308  0.00  0.00    +0.089 C 
ATOM     30  C   LIG    1       -0.355   4.960  -1.167  0.00  0.00    +0.162 C 
ATOM     31  O   LIG    1        0.386   5.695  -1.821  0.00  0.00    -0.295 OA
ENDBRANCH   1  30
BRANCH   1  32
ATOM     32  O   LIG    1       -2.327   3.628  -1.193  0.00  0.00    -0.381 OA
ATOM     33  H   LIG    1       -2.812   2.908  -1.604  0.00  0.00    +0.211 HD
ENDBRANCH   1  32
TORSDOF 4
