REMARK  Name = DB08878
REMARK                            x       y       z     vdW  Elec       q    Type
REMARK                         _______ _______ _______ _____ _____    ______ ____
ROOT
ATOM      1  C   UNK A  0        4.309   0.030  -0.144  0.00  0.00    +0.027 A 
ATOM      2  C   UNK A  0        3.578   1.221  -0.062  0.00  0.00    +0.023 A 
ATOM      3  C   UNK A  0        2.186   1.188  -0.040  0.00  0.00    +0.015 A 
ATOM      4  C   UNK A  0        1.496  -0.031  -0.101  0.00  0.00    +0.037 A 
ATOM      5  C   UNK A  0        2.238  -1.220  -0.186  0.00  0.00    +0.015 A 
ATOM      6  C   UNK A  0        3.630  -1.186  -0.208  0.00  0.00    +0.023 A 
ENDROOT
BRANCH   4   7
ATOM      7  C   UNK A  0       -0.021  -0.037  -0.069  0.00  0.00    +0.245 C 
ATOM      8  O   UNK A  0       -0.653   1.019   0.019  0.00  0.00    -0.270 OA
ATOM      9  N   GLU A  1       -0.623  -1.243  -0.148  0.00  0.00    -0.298 N 
ATOM     10  H   GLU A  1       -0.037  -2.050  -0.307  0.00  0.00    +0.150 HD
BRANCH   9  11
ATOM     11  CA  GLU A  1       -2.068  -1.539  -0.128  0.00  0.00    +0.182 C 
BRANCH  11  12
ATOM     12  C   GLU A  1       -2.734  -1.104   1.236  0.00  0.00    +0.325 C 
ATOM     13  OXT GLU A  1       -3.567  -0.175   1.131  0.00  0.00    -0.249 OA
BRANCH  12  14
ATOM     14  O   GLU A  1       -2.353  -1.716   2.263  0.00  0.00    -0.479 OA
ATOM     15  H   GLU A  1       -2.715  -1.498   3.099  0.00  0.00    +0.295 HD
ENDBRANCH  12  14
ENDBRANCH  11  12
BRANCH  11  16
ATOM     16  CB  GLU A  1       -2.245  -3.066  -0.384  0.00  0.00    +0.045 C 
BRANCH  16  17
ATOM     17  CG  GLU A  1       -3.716  -3.531  -0.541  0.00  0.00    +0.123 C 
BRANCH  17  18
ATOM     18  CD  GLU A  1       -3.914  -5.018  -0.892  0.00  0.00    +0.305 C 
ATOM     19  OE2 GLU A  1       -5.096  -5.396  -1.052  0.00  0.00    -0.251 OA
BRANCH  18  20
ATOM     20  OE1 GLU A  1       -2.914  -5.764  -1.000  0.00  0.00    -0.481 OA
ATOM     21  HE1 GLU A  1       -3.026  -6.670  -1.213  0.00  0.00    +0.295 HD
ENDBRANCH  18  20
ENDBRANCH  17  18
ENDBRANCH  16  17
ENDBRANCH  11  16
ENDBRANCH   9  11
ENDBRANCH   4   7
BRANCH   1  22
ATOM     22  N   UNK A  0        5.713  -0.005  -0.164  0.00  0.00    -0.338 N 
ATOM     23  H   UNK A  0        6.168  -0.901  -0.059  0.00  0.00    +0.146 HD
BRANCH  22  24
ATOM     24  C   UNK A  0        6.517   1.194   0.044  0.00  0.00    +0.158 C 
BRANCH  24  31
ATOM     25  N   UNK A  0       11.948  -1.042   1.750  0.00  0.00    -0.198 NA
ATOM     26  C   UNK A  0       12.557  -0.625   0.614  0.00  0.00    +0.216 A 
ATOM     27  N   UNK A  0       11.976   0.037  -0.417  0.00  0.00    -0.193 NA
ATOM     28  C   UNK A  0       10.647   0.310  -0.292  0.00  0.00    +0.185 A 
ATOM     29  N   UNK A  0       10.056   0.976  -1.323  0.00  0.00    -0.232 NA
ATOM     30  C   UNK A  0        8.732   1.250  -1.205  0.00  0.00    +0.138 A 
ATOM     31  C   UNK A  0        7.995   0.867  -0.083  0.00  0.00    +0.077 A 
ATOM     32  N   UNK A  0        8.565   0.207   0.961  0.00  0.00    -0.242 NA
ATOM     33  C   UNK A  0        9.898  -0.079   0.862  0.00  0.00    +0.148 A 
ATOM     34  C   UNK A  0       10.627  -0.769   1.868  0.00  0.00    +0.149 A 
BRANCH  26  35
ATOM     35  N   UNK A  0       13.913  -0.906   0.491  0.00  0.00    -0.327 N 
ATOM     36  H   UNK A  0       14.384  -1.398   1.236  0.00  0.00    +0.145 HD
ATOM     37  H   UNK A  0       14.402  -0.615  -0.342  0.00  0.00    +0.145 HD
ENDBRANCH  26  35
BRANCH  34  38
ATOM     38  N   UNK A  0       10.023  -1.210   3.046  0.00  0.00    -0.341 N 
ATOM     39  H   UNK A  0       10.579  -1.698   3.732  0.00  0.00    +0.144 HD
ATOM     40  H   UNK A  0        9.039  -1.036   3.193  0.00  0.00    +0.144 HD
ENDBRANCH  34  38
ENDBRANCH  24  31
ENDBRANCH  22  24
ENDBRANCH   1  22
TORSDOF 13
