REMARK  Name = DB08903
REMARK                            x       y       z     vdW  Elec       q    Type
REMARK                         _______ _______ _______ _____ _____    ______ ____
ROOT
ATOM      1  C   LIG    1        0.115   0.137   0.215  0.00  0.00    +0.090 C 
ENDROOT
BRANCH   1   6
ATOM      2  C   LIG    1       -1.966  -2.740   4.741  0.00  0.00    +0.029 A 
ATOM      3  C   LIG    1       -1.458  -2.033   3.624  0.00  0.00    +0.075 A 
ATOM      4  N   LIG    1       -0.997  -0.767   3.799  0.00  0.00    -0.213 NA
ATOM      5  C   LIG    1       -0.504  -0.082   2.727  0.00  0.00    +0.219 A 
ATOM      6  C   LIG    1       -0.445  -0.634   1.435  0.00  0.00    +0.025 A 
ATOM      7  C   LIG    1       -0.928  -1.936   1.253  0.00  0.00    +0.019 A 
ATOM      8  C   LIG    1       -1.445  -2.666   2.347  0.00  0.00    +0.002 A 
ATOM      9  C   LIG    1       -1.942  -3.986   2.221  0.00  0.00    +0.025 A 
ATOM     10  C   LIG    1       -2.438  -4.655   3.338  0.00  0.00    +0.019 A 
ATOM     11 BR   LIG    1       -3.107  -6.428   3.157  0.00  0.00    -0.050 Br
ATOM     12  C   LIG    1       -2.448  -4.037   4.586  0.00  0.00    +0.017 A 
BRANCH   5  13
ATOM     13  O   LIG    1       -0.044   1.208   2.934  0.00  0.00    -0.479 OA
ATOM     14  C   LIG    1       -0.089   1.788   4.236  0.00  0.00    +0.279 C 
ENDBRANCH   5  13
ENDBRANCH   1   6
BRANCH   1  15
ATOM     15  C   LIG    1       -0.560   1.517   0.039  0.00  0.00    -0.037 A 
ATOM     16  C   LIG    1        0.119   2.726   0.250  0.00  0.00    +0.004 A 
ATOM     17  C   LIG    1       -0.534   3.943   0.075  0.00  0.00    +0.000 A 
ATOM     18  C   LIG    1       -1.871   3.959  -0.312  0.00  0.00    +0.000 A 
ATOM     19  C   LIG    1       -2.561   2.769  -0.522  0.00  0.00    +0.000 A 
ATOM     20  C   LIG    1       -1.907   1.553  -0.346  0.00  0.00    +0.004 A 
ENDBRANCH   1  15
BRANCH   1  21
ATOM     21  C   LIG    1        1.699   0.069   0.039  0.00  0.00    +0.104 C 
BRANCH  21  22
ATOM     22  C   LIG    1        2.204   0.832  -1.238  0.00  0.00    -0.007 A 
ATOM     23  C   LIG    1        3.411   1.647  -1.299  0.00  0.00    -0.012 A 
ATOM     24  C   LIG    1        4.373   1.789  -0.246  0.00  0.00    +0.009 A 
ATOM     25  C   LIG    1        5.487   2.612  -0.373  0.00  0.00    +0.001 A 
ATOM     26  C   LIG    1        5.713   3.320  -1.542  0.00  0.00    +0.001 A 
ATOM     27  C   LIG    1        4.835   3.198  -2.609  0.00  0.00    +0.008 A 
ATOM     28  C   LIG    1        3.694   2.361  -2.515  0.00  0.00    -0.018 A 
ATOM     29  C   LIG    1        2.844   2.223  -3.632  0.00  0.00    +0.008 A 
ATOM     30  C   LIG    1        1.748   1.382  -3.578  0.00  0.00    +0.001 A 
ATOM     31  C   LIG    1        1.446   0.699  -2.413  0.00  0.00    +0.007 A 
ENDBRANCH  21  22
BRANCH  21  32
ATOM     32  O   LIG    1        2.200   0.576   1.263  0.00  0.00    -0.383 OA
ATOM     33  H   LIG    1        1.743   0.136   1.984  0.00  0.00    +0.211 HD
ENDBRANCH  21  32
BRANCH  21  34
ATOM     34  C   LIG    1        2.183  -1.414  -0.031  0.00  0.00    +0.056 C 
BRANCH  34  35
ATOM     35  C   LIG    1        3.714  -1.623  -0.157  0.00  0.00    +0.087 C 
BRANCH  35  36
ATOM     36  N   LIG    1        4.119  -3.032  -0.109  0.00  0.00    -0.308 NA
ATOM     37  C   LIG    1        3.980  -3.599   1.232  0.00  0.00    +0.104 C 
ATOM     38  C   LIG    1        5.514  -3.152  -0.526  0.00  0.00    +0.104 C 
ENDBRANCH  35  36
ENDBRANCH  34  35
ENDBRANCH  21  34
ENDBRANCH   1  21
TORSDOF 9
