REMARK  Name = DB08818
REMARK                            x       y       z     vdW  Elec       q    Type
REMARK                         _______ _______ _______ _____ _____    ______ ____
ROOT
ATOM      1  O   LIG    1        0.260   0.197  -0.380  0.00  0.00    -0.340 OA
ENDROOT
BRANCH   1   2
ATOM      2  C   LIG    1       -0.336   1.496  -0.317  0.00  0.00    +0.192 C 
ATOM      3  C   LIG    1       -1.071   1.695   1.032  0.00  0.00    +0.260 C 
ATOM      4  O   LIG    1       -1.734   2.961   1.026  0.00  0.00    -0.331 OA
ATOM      5  C   LIG    1       -2.777   3.038   0.087  0.00  0.00    +0.283 C 
ATOM      6  C   LIG    1       -2.227   2.899  -1.348  0.00  0.00    +0.201 C 
ATOM      7  C   LIG    1       -1.345   1.631  -1.476  0.00  0.00    +0.180 C 
BRANCH   3   8
ATOM      8  C   LIG    1       -0.075   1.750   2.208  0.00  0.00    +0.337 C 
ATOM      9  O   LIG    1        0.301   2.793   2.744  0.00  0.00    -0.248 OA
BRANCH   8  10
ATOM     10  O   LIG    1        0.327   0.502   2.589  0.00  0.00    -0.479 OA
ATOM     11  H   LIG    1        0.942   0.527   3.325  0.00  0.00    +0.295 HD
ENDBRANCH   8  10
ENDBRANCH   3   8
BRANCH   6  12
ATOM     12  O   LIG    1       -3.293   2.857  -2.281  0.00  0.00    -0.384 OA
ATOM     13  H   LIG    1       -3.815   3.655  -2.185  0.00  0.00    +0.210 HD
ENDBRANCH   6  12
BRANCH   7  14
ATOM     14  O   LIG    1       -0.678   1.607  -2.727  0.00  0.00    -0.386 OA
ATOM     15  H   LIG    1       -0.976   0.835  -3.215  0.00  0.00    +0.210 HD
ENDBRANCH   7  14
BRANCH   5  16
ATOM     16  O   LIG    1       -3.496   4.240   0.223  0.00  0.00    -0.341 OA
BRANCH  16  17
ATOM     17  C   LIG    1       -2.779   5.482   0.318  0.00  0.00    +0.177 C 
ATOM     18  C   LIG    1       -3.307   6.487  -0.732  0.00  0.00    +0.176 C 
ATOM     19  C   LIG    1       -2.694   7.896  -0.501  0.00  0.00    +0.178 C 
ATOM     20  O   LIG    1       -2.899   8.302   0.857  0.00  0.00    -0.341 OA
ATOM     21  C   LIG    1       -2.281   7.470   1.802  0.00  0.00    +0.270 C 
ATOM     22  C   LIG    1       -2.923   6.066   1.752  0.00  0.00    +0.160 C 
BRANCH  22  23
ATOM     23  N   LIG    1       -2.488   5.161   2.830  0.00  0.00    -0.305 N 
ATOM     24  H   LIG    1       -1.504   5.189   3.057  0.00  0.00    +0.149 HD
ATOM     25  C   LIG    1       -3.269   4.305   3.513  0.00  0.00    +0.210 C 
ATOM     26  C   LIG    1       -2.580   3.465   4.582  0.00  0.00    +0.109 C 
ATOM     27  O   LIG    1       -4.476   4.168   3.316  0.00  0.00    -0.276 OA
ENDBRANCH  22  23
BRANCH  21  28
ATOM     28  O   LIG    1       -2.466   7.983   3.062  0.00  0.00    -0.365 OA
ATOM     29  H   LIG    1       -1.982   7.430   3.680  0.00  0.00    +0.213 HD
ENDBRANCH  21  28
BRANCH  18  30
ATOM     30  O   LIG    1       -3.040   6.029  -2.043  0.00  0.00    -0.387 OA
ATOM     31  H   LIG    1       -3.583   5.257  -2.213  0.00  0.00    +0.210 HD
ENDBRANCH  18  30
BRANCH  19  32
ATOM     32  C   LIG    1       -3.302   9.006  -1.390  0.00  0.00    +0.190 C 
BRANCH  32  33
ATOM     33  O   LIG    1       -2.854   8.925  -2.728  0.00  0.00    -0.392 OA
ATOM     34  H   LIG    1       -3.261   9.634  -3.231  0.00  0.00    +0.210 HD
ENDBRANCH  32  33
ENDBRANCH  19  32
ENDBRANCH  16  17
ENDBRANCH   5  16
ENDBRANCH   1   2
BRANCH   1  35
ATOM     35  C   LIG    1        1.653   0.144  -0.466  0.00  0.00    +0.274 C 
ATOM     36  C   LIG    1        2.067  -1.338  -0.387  0.00  0.00    +0.160 C 
ATOM     37  C   LIG    1        3.608  -1.431  -0.550  0.00  0.00    +0.177 C 
ATOM     38  C   LIG    1        4.134  -0.617  -1.761  0.00  0.00    +0.176 C 
ATOM     39  C   LIG    1        3.507   0.802  -1.783  0.00  0.00    +0.178 C 
ATOM     40  O   LIG    1        2.084   0.680  -1.690  0.00  0.00    -0.341 OA
BRANCH  36  41
ATOM     41  N   LIG    1        1.582  -2.033   0.813  0.00  0.00    -0.305 N 
ATOM     42  H   LIG    1        2.204  -2.021   1.608  0.00  0.00    +0.149 HD
ATOM     43  C   LIG    1        0.401  -2.662   0.942  0.00  0.00    +0.210 C 
ATOM     44  C   LIG    1        0.119  -3.303   2.296  0.00  0.00    +0.109 C 
ATOM     45  O   LIG    1       -0.439  -2.739   0.045  0.00  0.00    -0.276 OA
ENDBRANCH  36  41
BRANCH  38  46
ATOM     46  O   LIG    1        5.549  -0.568  -1.741  0.00  0.00    -0.387 OA
ATOM     47  H   LIG    1        5.832  -0.233  -0.887  0.00  0.00    +0.210 HD
ENDBRANCH  38  46
BRANCH  39  48
ATOM     48  C   LIG    1        3.806   1.606  -3.068  0.00  0.00    +0.190 C 
BRANCH  48  49
ATOM     49  O   LIG    1        5.152   2.036  -3.121  0.00  0.00    -0.392 OA
ATOM     50  H   LIG    1        5.716   1.264  -3.212  0.00  0.00    +0.210 HD
ENDBRANCH  48  49
ENDBRANCH  39  48
BRANCH  37  51
ATOM     51  O   LIG    1        4.136  -2.764  -0.495  0.00  0.00    -0.341 OA
BRANCH  51  52
ATOM     52  C   LIG    1        3.724  -3.697  -1.455  0.00  0.00    +0.283 C 
ATOM     53  C   LIG    1        4.830  -4.760  -1.554  0.00  0.00    +0.201 C 
ATOM     54  C   LIG    1        4.412  -5.860  -2.561  0.00  0.00    +0.179 C 
ATOM     55  C   LIG    1        2.993  -6.401  -2.273  0.00  0.00    +0.185 C 
ATOM     56  C   LIG    1        2.012  -5.222  -2.022  0.00  0.00    +0.260 C 
ATOM     57  O   LIG    1        2.538  -4.320  -1.039  0.00  0.00    -0.332 OA
BRANCH  56  58
ATOM     58  C   LIG    1        0.662  -5.738  -1.479  0.00  0.00    +0.337 C 
ATOM     59  O   LIG    1       -0.288  -6.003  -2.212  0.00  0.00    -0.248 OA
BRANCH  58  60
ATOM     60  O   LIG    1        0.647  -5.887  -0.120  0.00  0.00    -0.479 OA
ATOM     61  H   LIG    1       -0.198  -6.210   0.199  0.00  0.00    +0.295 HD
ENDBRANCH  58  60
ENDBRANCH  56  58
BRANCH  55  62
ATOM     62  O   LIG    1        2.556  -7.242  -3.331  0.00  0.00    -0.386 OA
ATOM     63  H   LIG    1        3.095  -8.037  -3.328  0.00  0.00    +0.210 HD
ENDBRANCH  55  62
BRANCH  54  64
ATOM     64  O   LIG    1        5.362  -6.913  -2.594  0.00  0.00    -0.386 OA
ATOM     65  H   LIG    1        6.238  -6.534  -2.485  0.00  0.00    +0.210 HD
ENDBRANCH  54  64
BRANCH  53  66
ATOM     66  O   LIG    1        6.070  -4.176  -1.920  0.00  0.00    -0.384 OA
ATOM     67  H   LIG    1        6.051  -3.981  -2.859  0.00  0.00    +0.210 HD
ENDBRANCH  53  66
ENDBRANCH  51  52
ENDBRANCH  37  51
ENDBRANCH   1  35
TORSDOF 24
