REMARK  Name = DB08872
REMARK                            x       y       z     vdW  Elec       q    Type
REMARK                         _______ _______ _______ _____ _____    ______ ____
ROOT
ATOM      1  N   LIG    1       -1.757   1.577   0.699  0.00  0.00    -0.280 N 
ATOM      2  H   LIG    1       -2.081   0.854   1.324  0.00  0.00    +0.152 HD
ATOM      3  C   LIG    1       -0.402   1.644   0.415  0.00  0.00    +0.403 C 
ATOM      4  O   LIG    1        0.140   2.463  -0.334  0.00  0.00    -0.226 OA
ENDROOT
BRANCH   1   5
ATOM      5  C   LIG    1       -2.755   2.434   0.052  0.00  0.00    +0.115 C 
BRANCH   5   9
ATOM      6  C   LIG    1       -6.326   1.758  -0.140  0.00  0.00    +0.000 C 
ATOM      7  C   LIG    1       -5.293   0.694   0.301  0.00  0.00    +0.001 C 
ATOM      8  C   LIG    1       -4.221   0.469  -0.791  0.00  0.00    +0.009 C 
ATOM      9  C   LIG    1       -3.473   1.785  -1.182  0.00  0.00    -0.004 C 
ATOM     10  C   LIG    1       -4.581   2.745  -1.726  0.00  0.00    +0.009 C 
ATOM     11  C   LIG    1       -5.683   3.055  -0.686  0.00  0.00    +0.001 C 
BRANCH   9  12
ATOM     12  C   LIG    1       -2.436   1.473  -2.322  0.00  0.00    +0.129 C 
BRANCH  12  13
ATOM     13  C   LIG    1       -2.964   0.919  -3.658  0.00  0.00    +0.305 C 
ATOM     14  O   LIG    1       -3.168  -0.276  -3.858  0.00  0.00    -0.251 OA
BRANCH  13  15
ATOM     15  O   LIG    1       -3.164   1.908  -4.577  0.00  0.00    -0.481 OA
ATOM     16  H   LIG    1       -3.486   1.566  -5.414  0.00  0.00    +0.295 HD
ENDBRANCH  13  15
ENDBRANCH  12  13
ENDBRANCH   9  12
ENDBRANCH   5   9
ENDBRANCH   1   5
BRANCH   3  17
ATOM     17  O   LIG    1        0.226   0.633   1.071  0.00  0.00    -0.411 OA
BRANCH  17  18
ATOM     18  C   LIG    1        1.498   0.247   0.612  0.00  0.00    +0.368 C 
ATOM     19  C   LIG    1        2.320  -0.083   1.851  0.00  0.00    +0.100 C 
BRANCH  18  20
ATOM     20  O   LIG    1        1.441  -0.931  -0.151  0.00  0.00    -0.425 OA
BRANCH  20  21
ATOM     21  C   LIG    1        1.233  -0.809  -1.494  0.00  0.00    +0.313 C 
ATOM     22  O   LIG    1        1.195   0.241  -2.143  0.00  0.00    -0.250 OA
BRANCH  21  23
ATOM     23  C   LIG    1        1.017  -2.175  -2.166  0.00  0.00    +0.092 C 
ATOM     24  C   LIG    1       -0.100  -2.129  -3.230  0.00  0.00    +0.019 C 
ATOM     25  C   LIG    1        2.339  -2.709  -2.750  0.00  0.00    +0.019 C 
ENDBRANCH  21  23
ENDBRANCH  20  21
ENDBRANCH  18  20
ENDBRANCH  17  18
ENDBRANCH   3  17
TORSDOF 10
