REMARK  Name = DB08893
REMARK                            x       y       z     vdW  Elec       q    Type
REMARK                         _______ _______ _______ _____ _____    ______ ____
ROOT
ATOM      1  C   LIG    1        2.015   0.882   1.237  0.00  0.00    -0.046 A 
ATOM      2  C   LIG    1        2.257   0.053   2.334  0.00  0.00    +0.005 A 
ATOM      3  C   LIG    1        2.773   0.585   3.512  0.00  0.00    +0.023 A 
ATOM      4  C   LIG    1        3.056   1.958   3.599  0.00  0.00    +0.033 A 
ATOM      5  C   LIG    1        2.809   2.781   2.497  0.00  0.00    +0.023 A 
ATOM      6  C   LIG    1        2.294   2.247   1.320  0.00  0.00    +0.005 A 
ENDROOT
BRANCH   4   7
ATOM      7  N   LIG    1        3.563   2.607   4.741  0.00  0.00    -0.285 N 
ATOM      8  H   LIG    1        3.608   3.612   4.659  0.00  0.00    +0.155 HD
ATOM      9  C   LIG    1        4.000   2.088   5.909  0.00  0.00    +0.223 C 
ATOM     10  O   LIG    1        4.066   0.889   6.179  0.00  0.00    -0.275 OA
BRANCH   9  11
ATOM     11  C   LIG    1        4.449   3.112   6.963  0.00  0.00    +0.152 C 
BRANCH  11  12
ATOM     12  C   LIG    1        3.466   3.314   8.111  0.00  0.00    +0.059 A 
ATOM     13  N   LIG    1        3.768   4.287   8.956  0.00  0.00    -0.230 NA
ATOM     14  C   LIG    1        2.891   4.404   9.919  0.00  0.00    +0.156 A 
ATOM     15  S   LIG    1        1.580   3.276   9.865  0.00  0.00    -0.061 S 
ATOM     16  C   LIG    1        2.296   2.614   8.427  0.00  0.00    +0.072 A 
BRANCH  14  17
ATOM     17  N   LIG    1        2.955   5.329  10.920  0.00  0.00    -0.338 N 
ATOM     18  H   LIG    1        2.252   5.381  11.642  0.00  0.00    +0.144 HD
ATOM     19  H   LIG    1        3.712   5.997  10.972  0.00  0.00    +0.144 HD
ENDBRANCH  14  17
ENDBRANCH  11  12
ENDBRANCH   9  11
ENDBRANCH   4   7
BRANCH   1  20
ATOM     20  C   LIG    1        1.438   0.297  -0.047  0.00  0.00    +0.050 C 
BRANCH  20  21
ATOM     21  C   LIG    1       -0.097   0.163  -0.033  0.00  0.00    +0.085 C 
BRANCH  21  22
ATOM     22  N   LIG    1       -0.729   1.476  -0.043  0.00  0.00    -0.313 NA
ATOM     23  H   LIG    1       -0.431   1.990  -0.860  0.00  0.00    +0.122 HD
BRANCH  22  24
ATOM     24  C   LIG    1       -2.184   1.361  -0.032  0.00  0.00    +0.117 C 
BRANCH  24  25
ATOM     25  C   LIG    1       -2.852   2.754  -0.010  0.00  0.00    +0.158 C 
BRANCH  25  28
ATOM     26  C   LIG    1       -6.626   2.311   0.472  0.00  0.00    +0.000 A 
ATOM     27  C   LIG    1       -5.265   2.414   0.748  0.00  0.00    +0.006 A 
ATOM     28  C   LIG    1       -4.353   2.653  -0.288  0.00  0.00    -0.018 A 
ATOM     29  C   LIG    1       -4.816   2.773  -1.603  0.00  0.00    +0.006 A 
ATOM     30  C   LIG    1       -6.177   2.669  -1.879  0.00  0.00    +0.000 A 
ATOM     31  C   LIG    1       -7.076   2.441  -0.840  0.00  0.00    +0.000 A 
ENDBRANCH  25  28
BRANCH  25  32
ATOM     32  O   LIG    1       -2.562   3.403   1.218  0.00  0.00    -0.386 OA
ATOM     33  H   LIG    1       -1.643   3.231   1.437  0.00  0.00    +0.210 HD
ENDBRANCH  25  32
ENDBRANCH  24  25
ENDBRANCH  22  24
ENDBRANCH  21  22
ENDBRANCH  20  21
ENDBRANCH   1  20
TORSDOF 11
