REMARK  Name = DB08915
REMARK                            x       y       z     vdW  Elec       q    Type
REMARK                         _______ _______ _______ _____ _____    ______ ____
ROOT
ATOM      1  C   LIG    1       -0.184  -0.266   0.070  0.00  0.00    +0.129 A 
ATOM      2  C   LIG    1       -0.981  -1.401  -0.125  0.00  0.00    +0.046 A 
ATOM      3  C   LIG    1       -2.363  -1.302  -0.217  0.00  0.00    +0.008 A 
ATOM      4  C   LIG    1       -3.023  -0.076  -0.120  0.00  0.00    -0.030 A 
ATOM      5  C   LIG    1       -2.228   1.074   0.071  0.00  0.00    +0.026 A 
ATOM      6  S   LIG    1       -2.783   2.744   0.222  0.00  0.00    -0.096 S 
ATOM      7  C   LIG    1       -1.142   3.295   0.409  0.00  0.00    +0.046 A 
ATOM      8  C   LIG    1       -0.214   2.282   0.363  0.00  0.00    +0.020 A 
ATOM      9  C   LIG    1       -0.802   0.997   0.169  0.00  0.00    +0.031 A 
ENDROOT
BRANCH   1  10
ATOM     10  O   LIG    1        1.194  -0.261   0.178  0.00  0.00    -0.491 OA
BRANCH  10  11
ATOM     11  C   LIG    1        1.896  -1.498   0.098  0.00  0.00    +0.235 C 
BRANCH  11  12
ATOM     12  C   LIG    1        3.398  -1.228   0.287  0.00  0.00    +0.100 C 
BRANCH  12  13
ATOM     13  C   LIG    1        4.229  -2.497   0.255  0.00  0.00    +0.086 A 
ATOM     14  N   LIG    1        4.261  -3.263  -0.825  0.00  0.00    -0.214 NA
ATOM     15  C   LIG    1        5.065  -4.258  -0.522  0.00  0.00    +0.228 A 
ATOM     16  O   LIG    1        5.577  -4.181   0.733  0.00  0.00    -0.440 OA
ATOM     17  C   LIG    1        5.041  -3.047   1.240  0.00  0.00    +0.126 A 
ATOM     18  C   LIG    1        5.422  -2.674   2.652  0.00  0.00    +0.088 C 
BRANCH  15  19
ATOM     19  C   LIG    1        5.450  -5.416  -1.387  0.00  0.00    +0.037 A 
ATOM     20  C   LIG    1        6.337  -6.390  -0.912  0.00  0.00    +0.013 A 
ATOM     21  C   LIG    1        6.695  -7.467  -1.719  0.00  0.00    +0.001 A 
ATOM     22  C   LIG    1        6.168  -7.572  -3.004  0.00  0.00    +0.000 A 
ATOM     23  C   LIG    1        5.285  -6.610  -3.488  0.00  0.00    +0.001 A 
ATOM     24  C   LIG    1        4.927  -5.534  -2.680  0.00  0.00    +0.013 A 
ENDBRANCH  15  19
ENDBRANCH  12  13
ENDBRANCH  11  12
ENDBRANCH  10  11
ENDBRANCH   1  10
BRANCH   4  25
ATOM     25  C   LIG    1       -4.544  -0.059  -0.240  0.00  0.00    +0.079 C 
BRANCH  25  26
ATOM     26  C   LIG    1       -5.038   0.027  -1.706  0.00  0.00    +0.230 C 
BRANCH  26  27
ATOM     27  C   LIG    1       -6.593  -0.032  -1.745  0.00  0.00    +0.334 C 
ATOM     28  O   LIG    1       -7.115  -1.169  -1.809  0.00  0.00    -0.248 OA
BRANCH  27  29
ATOM     29  O   LIG    1       -7.244   1.038  -1.692  0.00  0.00    -0.479 OA
ATOM     30  H   LIG    1       -8.181   1.017  -1.715  0.00  0.00    +0.295 HD
ENDBRANCH  27  29
ENDBRANCH  26  27
BRANCH  26  31
ATOM     31  O   LIG    1       -4.551   1.247  -2.283  0.00  0.00    -0.368 OA
ATOM     32  C   LIG    1       -4.605   1.329  -3.704  0.00  0.00    +0.195 C 
ENDBRANCH  26  31
ENDBRANCH  25  26
ENDBRANCH   4  25
TORSDOF 10
