REMARK  Name = DB08887
REMARK                            x       y       z     vdW  Elec       q    Type
REMARK                         _______ _______ _______ _____ _____    ______ ____
ROOT
ATOM      1  C   LIG    1        4.374  -1.476   4.381  0.00  0.00    -0.027 C 
ATOM      2  C   LIG    1        5.022  -2.146   3.408  0.00  0.00    -0.027 C 
ENDROOT
BRANCH   1   3
ATOM      3  C   LIG    1        2.960  -0.927   4.322  0.00  0.00    +0.053 C 
BRANCH   3   5
ATOM      4  C   LIG    1        2.109   0.937   2.761  0.00  0.00    -0.027 C 
ATOM      5  C   LIG    1        2.885   0.487   3.767  0.00  0.00    -0.027 C 
BRANCH   4   6
ATOM      6  C   LIG    1        1.094   0.153   1.946  0.00  0.00    +0.053 C 
BRANCH   6   8
ATOM      7  C   LIG    1        0.896   0.505  -0.590  0.00  0.00    -0.027 C 
ATOM      8  C   LIG    1        1.495  -0.028   0.493  0.00  0.00    -0.027 C 
BRANCH   7   9
ATOM      9  C   LIG    1       -0.301   1.438  -0.609  0.00  0.00    +0.053 C 
BRANCH   9  11
ATOM     10  C   LIG    1       -2.315   0.913  -2.123  0.00  0.00    -0.031 C 
ATOM     11  C   LIG    1       -1.593   0.742  -0.999  0.00  0.00    -0.027 C 
BRANCH  10  12
ATOM     12  C   LIG    1       -2.019   1.842  -3.289  0.00  0.00    +0.023 C 
ATOM     13  C   LIG    1       -1.665   1.091  -4.578  0.00  0.00    +0.008 C 
ENDBRANCH  10  12
ENDBRANCH   9  11
ENDBRANCH   7   9
ENDBRANCH   6   8
ENDBRANCH   4   6
ENDBRANCH   3   5
ENDBRANCH   1   3
BRANCH   2  14
ATOM     14  C   LIG    1        4.501  -2.470   2.018  0.00  0.00    +0.053 C 
BRANCH  14  15
ATOM     15  C   LIG    1        4.313  -3.957   1.770  0.00  0.00    -0.027 C 
ATOM     16  C   LIG    1        3.167  -4.603   1.476  0.00  0.00    -0.031 C 
BRANCH  16  17
ATOM     17  C   LIG    1        1.774  -4.006   1.348  0.00  0.00    +0.027 C 
BRANCH  17  18
ATOM     18  C   LIG    1        1.367  -3.736  -0.110  0.00  0.00    +0.015 C 
BRANCH  18  19
ATOM     19  C   LIG    1       -0.084  -3.225  -0.237  0.00  0.00    +0.121 C 
BRANCH  19  20
ATOM     20  C   LIG    1       -0.517  -2.900  -1.672  0.00  0.00    +0.307 C 
ATOM     21  O   LIG    1        0.295  -2.738  -2.586  0.00  0.00    -0.251 OA
BRANCH  20  22
ATOM     22  O   LIG    1       -1.859  -2.840  -1.790  0.00  0.00    -0.465 OA
BRANCH  22  23
ATOM     23  C   LIG    1       -2.464  -2.594  -3.053  0.00  0.00    +0.229 C 
ATOM     24  C   LIG    1       -3.988  -2.597  -2.902  0.00  0.00    +0.048 C 
ENDBRANCH  22  23
ENDBRANCH  20  22
ENDBRANCH  19  20
ENDBRANCH  18  19
ENDBRANCH  17  18
ENDBRANCH  16  17
ENDBRANCH  14  15
ENDBRANCH   2  14
TORSDOF 15
