REMARK  Name = DB08809
REMARK                            x       y       z     vdW  Elec       q    Type
REMARK                         _______ _______ _______ _____ _____    ______ ____
ROOT
ATOM      1  C   LIG    1       -0.030  -0.015   0.042  0.00  0.00    +0.338 C 
ATOM      2  O   LIG    1       -0.744   0.981   0.157  0.00  0.00    -0.248 OA
ENDROOT
BRANCH   1   3
ATOM      3  C   LIG    1        1.501   0.028   0.012  0.00  0.00    +0.279 C 
ATOM      4 CL   LIG    1        2.102  -0.107  -1.661  0.00  0.00    -0.092 Cl
ATOM      5 CL   LIG    1        2.154   1.509   0.767  0.00  0.00    -0.092 Cl
ENDBRANCH   1   3
BRANCH   1   6
ATOM      6  O   LIG    1       -0.496  -1.289  -0.101  0.00  0.00    -0.479 OA
ATOM      7  H   LIG    1       -1.455  -1.329  -0.096  0.00  0.00    +0.295 HD
ENDBRANCH   1   6
TORSDOF 2
