REMARK  Name = DB08906
REMARK                            x       y       z     vdW  Elec       q    Type
REMARK                         _______ _______ _______ _____ _____    ______ ____
ROOT
ATOM      1  C   LIG    1       -4.665  -1.650   6.379  0.00  0.00    +0.047 C 
ATOM      2  C   LIG    1       -3.541  -2.013   5.730  0.00  0.00    -0.009 C 
ATOM      3  C   LIG    1       -3.473  -2.553   4.291  0.00  0.00    +0.047 C 
ATOM      4  C   LIG    1       -2.984  -4.025   4.405  0.00  0.00    +0.023 C 
ATOM      5  C   LIG    1       -2.580  -1.627   3.362  0.00  0.00    +0.153 C 
ATOM      6  F   LIG    1       -3.144  -0.411   3.423  0.00  0.00    -0.238 F 
ATOM      7  C   LIG    1       -1.101  -1.367   3.844  0.00  0.00    +0.154 C 
ATOM      8  C   LIG    1       -0.309  -0.479   2.842  0.00  0.00    +0.046 C 
ATOM      9  C   LIG    1       -0.311  -1.013   1.375  0.00  0.00    +0.022 C 
ATOM     10  C   LIG    1        0.415  -2.406   1.298  0.00  0.00    +0.016 C 
ATOM     11  C   LIG    1        0.224  -0.036   0.237  0.00  0.00    +0.189 C 
ATOM     12  C   LIG    1       -0.491  -0.606  -1.056  0.00  0.00    +0.039 C 
ATOM     13  C   LIG    1       -0.839   0.392  -2.193  0.00  0.00    +0.012 C 
ATOM     14  C   LIG    1       -1.760  -1.343  -0.558  0.00  0.00    +0.012 C 
ATOM     15  C   LIG    1       -1.798  -1.104   0.955  0.00  0.00    +0.006 C 
ATOM     16  C   LIG    1       -2.655  -2.052   1.849  0.00  0.00    +0.037 C 
ATOM     17  C   LIG    1       -4.124  -2.123   1.370  0.00  0.00    +0.048 C 
ATOM     18  C   LIG    1       -4.987  -3.051   2.240  0.00  0.00    +0.194 C 
ATOM     19  F   LIG    1       -6.247  -3.015   1.797  0.00  0.00    -0.241 F 
ATOM     20  C   LIG    1       -4.918  -2.578   3.701  0.00  0.00    -0.020 C 
ATOM     21  C   LIG    1       -6.010  -2.198   4.412  0.00  0.00    +0.054 C 
ATOM     22  C   LIG    1       -6.000  -1.718   5.794  0.00  0.00    +0.179 C 
ATOM     23  O   LIG    1       -7.018  -1.398   6.403  0.00  0.00    -0.288 OA
ENDROOT
BRANCH   7  24
ATOM     24  O   LIG    1       -0.372  -2.532   4.175  0.00  0.00    -0.389 OA
ATOM     25  H   LIG    1       -0.836  -2.992   4.879  0.00  0.00    +0.210 HD
ENDBRANCH   7  24
BRANCH  11  26
ATOM     26  C   LIG    1        1.796   0.023   0.117  0.00  0.00    +0.236 C 
ATOM     27  O   LIG    1        2.504  -0.176   1.105  0.00  0.00    -0.281 OA
BRANCH  26  28
ATOM     28  S   LIG    1        2.513   0.355  -1.554  0.00  0.00    -0.051 S 
BRANCH  28  29
ATOM     29  C   LIG    1        4.281   0.317  -1.132  0.00  0.00    +0.290 C 
ATOM     30  F   LIG    1        4.656   1.428  -0.499  0.00  0.00    -0.237 F 
ENDBRANCH  28  29
ENDBRANCH  26  28
ENDBRANCH  11  26
BRANCH  11  31
ATOM     31  O   LIG    1       -0.259   1.337   0.359  0.00  0.00    -0.443 OA
BRANCH  31  32
ATOM     32  C   LIG    1        0.179   2.348   1.186  0.00  0.00    +0.376 C 
ATOM     33  O   LIG    1        1.068   2.263   2.035  0.00  0.00    -0.241 OA
BRANCH  32  34
ATOM     34  C   LIG    1       -0.569   3.570   0.931  0.00  0.00    +0.211 A 
ATOM     35  O   LIG    1       -0.239   4.679   1.648  0.00  0.00    -0.456 OA
ATOM     36  C   LIG    1       -1.060   5.680   1.238  0.00  0.00    +0.196 A 
ATOM     37  C   LIG    1       -1.922   5.221   0.257  0.00  0.00    +0.042 A 
ATOM     38  C   LIG    1       -1.611   3.874   0.059  0.00  0.00    +0.056 A 
ENDBRANCH  32  34
ENDBRANCH  31  32
ENDBRANCH  11  31
TORSDOF 7
