REMARK  Name = DB08855
REMARK                            x       y       z     vdW  Elec       q    Type
REMARK                         _______ _______ _______ _____ _____    ______ ____
ROOT
ATOM      1  C   UNK A  1       -1.049   2.729  -2.302  0.00  0.00    +0.101 C 
ENDROOT
BRANCH   1   2
ATOM      2  C   UNK A  1       -1.746   2.828  -0.918  0.00  0.00    +0.169 C 
BRANCH   2   3
ATOM      3  C   UNK A  1       -3.232   2.424  -0.979  0.00  0.00    +0.235 C 
ATOM      4  O   UNK A  1       -3.538   1.277  -1.306  0.00  0.00    -0.274 OA
ATOM      5  N   GLY A  2       -4.119   3.375  -0.637  0.00  0.00    -0.303 N 
ATOM      6  H   GLY A  2       -3.781   4.295  -0.396  0.00  0.00    +0.149 HD
BRANCH   5   7
ATOM      7  CA  GLY A  2       -5.573   3.167  -0.544  0.00  0.00    +0.224 C 
BRANCH   7   8
ATOM      8  C   GLY A  2       -6.051   2.560   0.804  0.00  0.00    +0.322 C 
ATOM      9  OXT GLY A  2       -5.311   2.599   1.815  0.00  0.00    -0.249 OA
BRANCH   8  10
ATOM     10  O   GLY A  2       -7.206   2.077   0.809  0.00  0.00    -0.480 OA
ATOM     11  H   GLY A  2       -7.550   1.696   1.593  0.00  0.00    +0.295 HD
ENDBRANCH   8  10
ENDBRANCH   7   8
ENDBRANCH   5   7
ENDBRANCH   2   3
BRANCH   2  12
ATOM     12  N   UNK A  1       -1.079   2.038   0.119  0.00  0.00    -0.303 N 
ATOM     13  H   UNK A  1       -0.651   1.182  -0.204  0.00  0.00    +0.149 HD
ATOM     14  C   UNK A  1       -1.200   2.243   1.441  0.00  0.00    +0.214 C 
ATOM     15  O   UNK A  1       -1.699   3.258   1.928  0.00  0.00    -0.276 OA
BRANCH  14  16
ATOM     16  C   UNK A  1       -0.719   1.110   2.355  0.00  0.00    +0.095 C 
BRANCH  16  17
ATOM     17  C   UNK A  1       -1.877   0.423   3.122  0.00  0.00    +0.004 C 
BRANCH  17  18
ATOM     18  C   UNK A  1       -3.022  -0.166   2.245  0.00  0.00    +0.036 C 
BRANCH  18  19
ATOM     19  N   UNK A  1       -4.249  -0.417   3.138  0.00  0.00    +0.387 N 
ATOM     20  H   UNK A  1       -4.022  -1.082   3.863  0.00  0.00    -0.089 HD
ATOM     21  H   UNK A  1       -4.539   0.449   3.570  0.00  0.00    -0.089 HD
ATOM     22  H   UNK A  1       -5.014  -0.771   2.583  0.00  0.00    -0.089 HD
ENDBRANCH  18  19
BRANCH  18  23
ATOM     23  C   UNK A  1       -2.626  -1.499   1.558  0.00  0.00    +0.290 C 
ATOM     24  O   UNK A  1       -1.981  -1.393   0.492  0.00  0.00    -0.253 OA
BRANCH  23  25
ATOM     25  O   UNK A  1       -2.933  -2.596   2.081  0.00  0.00    -0.482 OA
ATOM     26  H   UNK A  1       -2.692  -3.399   1.663  0.00  0.00    +0.295 HD
ENDBRANCH  23  25
ENDBRANCH  18  23
ENDBRANCH  17  18
ENDBRANCH  16  17
ENDBRANCH  14  16
ENDBRANCH   2  12
ENDBRANCH   1   2
BRANCH   1  27
ATOM     27  S   UNK A  1       -0.502   1.044  -2.759  0.00  0.00    -0.148 S 
BRANCH  27  28
ATOM     28  C   UNK A  1        1.304   1.180  -2.535  0.00  0.00    +0.098 C 
BRANCH  28  29
ATOM     29  C   UNK A  1        1.943   1.831  -3.760  0.00  0.00    -0.010 C 
ATOM     30  C   UNK A  1        2.512   1.173  -4.787  0.00  0.00    -0.003 C 
BRANCH  30  31
ATOM     31  C   UNK A  1        3.132   1.834  -5.918  0.00  0.00    -0.000 C 
ATOM     32  C   UNK A  1        3.715   1.149  -6.916  0.00  0.00    -0.000 C 
BRANCH  32  33
ATOM     33  C   UNK A  1        4.374   1.783  -8.045  0.00  0.00    -0.004 C 
ATOM     34  C   UNK A  1        5.101   1.150  -8.988  0.00  0.00    -0.023 C 
BRANCH  34  35
ATOM     35  C   UNK A  1        5.404  -0.339  -9.093  0.00  0.00    +0.054 C 
BRANCH  35  36
ATOM     36  C   UNK A  1        6.852  -0.680  -8.778  0.00  0.00    -0.027 C 
ATOM     37  C   UNK A  1        7.341  -1.175  -7.623  0.00  0.00    -0.031 C 
BRANCH  37  38
ATOM     38  C   UNK A  1        6.564  -1.462  -6.348  0.00  0.00    +0.027 C 
BRANCH  38  39
ATOM     39  C   UNK A  1        6.341  -2.962  -6.084  0.00  0.00    +0.004 C 
BRANCH  39  40
ATOM     40  C   UNK A  1        5.344  -3.261  -4.946  0.00  0.00    +0.000 C 
BRANCH  40  41
ATOM     41  C   UNK A  1        5.765  -2.725  -3.565  0.00  0.00    -0.003 C 
ATOM     42  C   UNK A  1        4.791  -3.128  -2.449  0.00  0.00    +0.004 C 
ENDBRANCH  40  41
ENDBRANCH  39  40
ENDBRANCH  38  39
ENDBRANCH  37  38
ENDBRANCH  35  36
ENDBRANCH  34  35
ENDBRANCH  32  33
ENDBRANCH  30  31
ENDBRANCH  28  29
BRANCH  28  43
ATOM     43  C   UNK A  1        1.982  -0.134  -2.042  0.00  0.00    +0.131 C 
BRANCH  43  44
ATOM     44  O   UNK A  1        3.383   0.063  -1.938  0.00  0.00    -0.390 OA
ATOM     45  H   UNK A  1        3.713   0.348  -2.793  0.00  0.00    +0.210 HD
ENDBRANCH  43  44
BRANCH  43  46
ATOM     46  C   UNK A  1        1.456  -0.618  -0.667  0.00  0.00    +0.033 C 
BRANCH  46  47
ATOM     47  C   UNK A  1        2.094  -1.927  -0.158  0.00  0.00    +0.014 C 
BRANCH  47  48
ATOM     48  C   UNK A  1        1.510  -2.394   1.201  0.00  0.00    +0.120 C 
BRANCH  48  49
ATOM     49  C   UNK A  1        2.248  -3.591   1.849  0.00  0.00    +0.305 C 
ATOM     50  O   UNK A  1        2.017  -3.792   3.062  0.00  0.00    -0.251 OA
BRANCH  49  51
ATOM     51  O   UNK A  1        3.008  -4.307   1.155  0.00  0.00    -0.481 OA
ATOM     52  H   UNK A  1        3.455  -5.032   1.546  0.00  0.00    +0.295 HD
ENDBRANCH  49  51
ENDBRANCH  48  49
ENDBRANCH  47  48
ENDBRANCH  46  47
ENDBRANCH  43  46
ENDBRANCH  28  43
ENDBRANCH  27  28
ENDBRANCH   1  27
TORSDOF 30
