REMARK  Name = DB08971
REMARK                            x       y       z     vdW  Elec       q    Type
REMARK                         _______ _______ _______ _____ _____    ______ ____
ROOT
ATOM      1  C   LIG    1        0.496  -2.276   1.314  0.00  0.00    +0.012 C 
ATOM      2  C   LIG    1       -0.391  -0.988   1.250  0.00  0.00    -0.017 C 
ATOM      3  C   LIG    1       -0.466  -0.258   2.621  0.00  0.00    +0.039 C 
ATOM      4  C   LIG    1       -1.212  -1.071   3.718  0.00  0.00    +0.120 C 
ATOM      5  C   LIG    1       -2.635  -1.545   3.237  0.00  0.00    +0.035 C 
ATOM      6  C   LIG    1       -3.464  -2.403   4.275  0.00  0.00    +0.016 C 
ATOM      7  C   LIG    1       -3.625  -1.655   5.609  0.00  0.00    -0.012 C 
ATOM      8  C   LIG    1       -4.794  -1.289   6.168  0.00  0.00    +0.047 C 
ATOM      9  C   LIG    1       -6.098  -1.555   5.572  0.00  0.00    +0.179 C 
ATOM     10  O   LIG    1       -7.159  -1.230   6.102  0.00  0.00    -0.288 OA
ATOM     11  C   LIG    1       -6.023  -2.240   4.282  0.00  0.00    +0.053 C 
ATOM     12  C   LIG    1       -4.880  -2.634   3.665  0.00  0.00    -0.023 C 
ATOM     13  C   LIG    1       -4.859  -3.325   2.293  0.00  0.00    +0.193 C 
ATOM     14  F   LIG    1       -6.101  -3.471   1.824  0.00  0.00    -0.241 F 
ATOM     15  C   LIG    1       -4.051  -2.456   1.317  0.00  0.00    +0.045 C 
ATOM     16  C   LIG    1       -2.854  -3.791   4.618  0.00  0.00    +0.020 C 
ATOM     17  C   LIG    1       -2.609  -2.197   1.808  0.00  0.00    +0.002 C 
ATOM     18  C   LIG    1        0.003  -0.075   0.050  0.00  0.00    +0.067 C 
ATOM     19  C   LIG    1       -0.584  -0.784  -1.207  0.00  0.00    -0.003 C 
ATOM     20  C   LIG    1       -0.941   0.191  -2.344  0.00  0.00    +0.008 C 
ATOM     21  C   LIG    1       -1.791  -1.593  -0.675  0.00  0.00    +0.008 C 
ATOM     22  C   LIG    1       -1.852  -1.261   0.825  0.00  0.00    -0.000 C 
ENDROOT
BRANCH   4  23
ATOM     23  O   LIG    1       -0.383  -2.103   4.212  0.00  0.00    -0.391 OA
ATOM     24  H   LIG    1       -0.831  -2.529   4.945  0.00  0.00    +0.210 HD
ENDBRANCH   4  23
BRANCH  18  25
ATOM     25  C   LIG    1        1.511   0.254  -0.053  0.00  0.00    +0.162 C 
ATOM     26  O   LIG    1        2.283  -0.456  -0.704  0.00  0.00    -0.295 OA
BRANCH  25  27
ATOM     27  C   LIG    1        1.971   1.538   0.657  0.00  0.00    +0.230 C 
BRANCH  27  28
ATOM     28  O   LIG    1        3.361   1.744   0.473  0.00  0.00    -0.388 OA
ATOM     29  H   LIG    1        3.612   2.556   0.919  0.00  0.00    +0.210 HD
ENDBRANCH  27  28
ENDBRANCH  25  27
ENDBRANCH  18  25
TORSDOF 4
