REMARK  Name = DB08883
REMARK                            x       y       z     vdW  Elec       q    Type
REMARK                         _______ _______ _______ _____ _____    ______ ____
ROOT
ATOM      1  C   LIG    1        0.072  -0.050  -0.048  0.00  0.00    +0.049 A 
ATOM      2  C   LIG    1       -0.647   1.101  -0.060  0.00  0.00    +0.025 A 
ATOM      3  C   LIG    1       -2.107   1.095  -0.057  0.00  0.00    +0.018 A 
ATOM      4  C   LIG    1       -2.654  -0.145  -0.063  0.00  0.00    +0.104 A 
ATOM      5  N   LIG    1       -1.962  -1.343  -0.062  0.00  0.00    -0.283 N 
ATOM      6  C   LIG    1       -0.580  -1.371  -0.001  0.00  0.00    +0.264 A 
ATOM      7  O   LIG    1        0.081  -2.409   0.107  0.00  0.00    -0.267 OA
ENDROOT
BRANCH   1   8
ATOM      8  C   LIG    1        1.554   0.022  -0.074  0.00  0.00    +0.005 A 
ATOM      9  C   LIG    1        2.235   0.011   1.150  0.00  0.00    +0.010 A 
ATOM     10  C   LIG    1        3.627   0.070   1.196  0.00  0.00    +0.001 A 
ATOM     11  C   LIG    1        4.359   0.135   0.014  0.00  0.00    +0.001 A 
ATOM     12  C   LIG    1        3.700   0.137  -1.214  0.00  0.00    +0.019 A 
ATOM     13  C   LIG    1        2.303   0.078  -1.271  0.00  0.00    +0.060 A 
BRANCH  13  14
ATOM     14  C   LIG    1        1.668   0.075  -2.587  0.00  0.00    +0.100 C 
ATOM     15  N   LIG    1        1.164   0.073  -3.629  0.00  0.00    -0.191 NA
ENDBRANCH  13  14
ENDBRANCH   1   8
BRANCH   5  16
ATOM     16  C   LIG    1       -2.711  -2.547  -0.008  0.00  0.00    +0.049 A 
ATOM     17  C   LIG    1       -3.669  -2.732   1.000  0.00  0.00    +0.026 A 
ATOM     18  C   LIG    1       -4.408  -3.911   1.053  0.00  0.00    +0.002 A 
ATOM     19  C   LIG    1       -4.194  -4.904   0.100  0.00  0.00    +0.000 A 
ATOM     20  C   LIG    1       -3.249  -4.730  -0.908  0.00  0.00    +0.002 A 
ATOM     21  C   LIG    1       -2.508  -3.553  -0.965  0.00  0.00    +0.026 A 
ENDBRANCH   5  16
BRANCH   3  22
ATOM     22  C   LIG    1       -2.912   2.350  -0.069  0.00  0.00    +0.072 A 
ATOM     23  C   LIG    1       -2.373   3.594  -0.434  0.00  0.00    +0.028 A 
ATOM     24  C   LIG    1       -3.186   4.728  -0.386  0.00  0.00    +0.004 A 
ATOM     25  C   LIG    1       -4.512   4.608   0.028  0.00  0.00    +0.020 A 
ATOM     26  C   LIG    1       -4.984   3.345   0.382  0.00  0.00    +0.111 A 
ATOM     27  N   LIG    1       -4.209   2.232   0.340  0.00  0.00    -0.255 NA
ENDBRANCH   3  22
TORSDOF 4
