REMARK  Name = DB08502
REMARK                            x       y       z     vdW  Elec       q    Type
REMARK                         _______ _______ _______ _____ _____    ______ ____
ROOT
ATOM      1  N   LIG    1       -0.578   1.345   0.382  0.00  0.00    -0.232 NA
ATOM      2  C   LIG    1       -1.830   1.010   0.182  0.00  0.00    +0.149 A 
ATOM      3  N   LIG    1       -1.987  -0.352   0.058  0.00  0.00    -0.315 N 
ATOM      4  C   LIG    1       -0.722  -0.880   0.193  0.00  0.00    +0.104 A 
ATOM      5  C   LIG    1        0.115   0.217   0.392  0.00  0.00    +0.076 A 
ENDROOT
BRANCH   5   6
ATOM      6  C   LIG    1        1.627   0.238   0.583  0.00  0.00    +0.034 C 
ATOM      7  C   LIG    1        2.335   0.865  -0.632  0.00  0.00    +0.014 C 
ATOM      8  C   LIG    1        2.034   0.927   1.900  0.00  0.00    +0.014 C 
ENDBRANCH   5   6
BRANCH   2   9
ATOM      9  C   LIG    1       -2.998   1.991   0.122  0.00  0.00    +0.308 C 
BRANCH   9  10
ATOM     10  O   LIG    1       -2.563   3.345  -0.025  0.00  0.00    -0.443 OA
BRANCH  10  11
ATOM     11  C   LIG    1       -2.214   3.846  -1.232  0.00  0.00    +0.398 C 
ATOM     12  O   LIG    1       -2.233   3.226  -2.295  0.00  0.00    -0.227 OA
ATOM     13  N   LIG    1       -1.831   5.161  -1.088  0.00  0.00    -0.295 N 
ATOM     14  H   LIG    1       -1.535   5.680  -1.901  0.00  0.00    +0.148 HD
ATOM     15  H   LIG    1       -1.842   5.583  -0.171  0.00  0.00    +0.148 HD
ENDBRANCH  10  11
ENDBRANCH   9  10
ENDBRANCH   2   9
BRANCH   3  16
ATOM     16  C   LIG    1       -3.241  -1.080  -0.149  0.00  0.00    +0.159 C 
BRANCH  16  17
ATOM     17  C   LIG    1       -4.085  -1.305   1.104  0.00  0.00    -0.025 A 
ATOM     18  C   LIG    1       -3.531  -1.292   2.394  0.00  0.00    +0.025 A 
ATOM     19  C   LIG    1       -4.369  -1.511   3.489  0.00  0.00    +0.111 A 
ATOM     20  N   LIG    1       -5.701  -1.740   3.366  0.00  0.00    -0.263 NA
ATOM     21  C   LIG    1       -6.225  -1.757   2.114  0.00  0.00    +0.111 A 
ATOM     22  C   LIG    1       -5.457  -1.548   0.967  0.00  0.00    +0.025 A 
ENDBRANCH  16  17
ENDBRANCH   3  16
BRANCH   4  23
ATOM     23  S   LIG    1       -0.320  -2.596   0.127  0.00  0.00    -0.070 S 
BRANCH  23  24
ATOM     24  C   LIG    1        0.305  -2.769  -1.528  0.00  0.00    +0.017 A 
ATOM     25  C   LIG    1       -0.069  -1.898  -2.561  0.00  0.00    +0.035 A 
ATOM     26  C   LIG    1        0.452  -2.068  -3.845  0.00  0.00    +0.043 A 
ATOM     27 CL   LIG    1       -0.007  -0.989  -5.110  0.00  0.00    -0.083 Cl
ATOM     28  C   LIG    1        1.342  -3.111  -4.105  0.00  0.00    +0.040 A 
ATOM     29  C   LIG    1        1.711  -3.985  -3.082  0.00  0.00    +0.043 A 
ATOM     30 CL   LIG    1        2.810  -5.276  -3.404  0.00  0.00    -0.083 Cl
ATOM     31  C   LIG    1        1.192  -3.814  -1.798  0.00  0.00    +0.035 A 
ENDBRANCH  23  24
ENDBRANCH   4  23
TORSDOF 8
