REMARK  Name = DB08964
REMARK                            x       y       z     vdW  Elec       q    Type
REMARK                         _______ _______ _______ _____ _____    ______ ____
ROOT
ATOM      1  C   LIG    1       -0.935  -0.625   1.054  0.00  0.00    +0.065 C 
ATOM      2  C   LIG    1       -2.303  -1.100   0.516  0.00  0.00    +0.140 C 
ATOM      3  O   LIG    1       -3.261  -1.490   1.182  0.00  0.00    -0.297 OA
ATOM      4  C   LIG    1       -2.297  -0.961  -1.008  0.00  0.00    +0.106 C 
ATOM      5  C   LIG    1       -0.849  -0.641  -1.372  0.00  0.00    +0.129 C 
ATOM      6  C   LIG    1       -0.295   0.098  -0.147  0.00  0.00    +0.051 C 
ENDROOT
BRANCH   5   7
ATOM      7  O   LIG    1       -0.744   0.088  -2.579  0.00  0.00    -0.391 OA
ATOM      8  H   LIG    1       -0.713   1.024  -2.368  0.00  0.00    +0.210 HD
ENDBRANCH   5   7
BRANCH   6   9
ATOM      9  C   LIG    1        1.228   0.187  -0.037  0.00  0.00    -0.022 C 
ATOM     10  C   LIG    1        2.134  -0.233  -0.946  0.00  0.00    +0.001 C 
BRANCH  10  11
ATOM     11  C   LIG    1        3.662  -0.153  -0.854  0.00  0.00    +0.143 C 
BRANCH  11  12
ATOM     12  C   LIG    1        4.411  -1.524  -1.020  0.00  0.00    -0.005 C 
ATOM     13  C   LIG    1        4.056  -2.478   0.153  0.00  0.00    +0.014 C 
ATOM     14  C   LIG    1        5.946  -1.293  -1.002  0.00  0.00    +0.014 C 
BRANCH  12  15
ATOM     15  C   LIG    1        4.024  -2.250  -2.350  0.00  0.00    +0.009 C 
BRANCH  15  16
ATOM     16  C   LIG    1        4.226  -1.456  -3.661  0.00  0.00    +0.000 C 
BRANCH  16  17
ATOM     17  C   LIG    1        3.846  -2.268  -4.911  0.00  0.00    -0.003 C 
ATOM     18  C   LIG    1        4.020  -1.477  -6.215  0.00  0.00    +0.004 C 
ENDBRANCH  16  17
ENDBRANCH  15  16
ENDBRANCH  12  15
ENDBRANCH  11  12
BRANCH  11  19
ATOM     19  O   LIG    1        4.047   0.503   0.347  0.00  0.00    -0.387 OA
ATOM     20  H   LIG    1        3.660   1.382   0.350  0.00  0.00    +0.210 HD
ENDBRANCH  11  19
ENDBRANCH  10  11
ENDBRANCH   6   9
BRANCH   1  21
ATOM     21  C   LIG    1       -1.072   0.255   2.327  0.00  0.00    +0.012 C 
BRANCH  21  22
ATOM     22  C   LIG    1       -1.421  -0.516   3.618  0.00  0.00    +0.001 C 
BRANCH  22  23
ATOM     23  C   LIG    1       -1.422   0.384   4.870  0.00  0.00    +0.004 C 
BRANCH  23  24
ATOM     24  C   LIG    1       -1.899  -0.329   6.149  0.00  0.00    +0.027 C 
BRANCH  24  25
ATOM     25  C   LIG    1       -1.003  -1.466   6.607  0.00  0.00    -0.020 C 
ATOM     26  C   LIG    1       -1.400  -2.750   6.706  0.00  0.00    +0.087 C 
BRANCH  26  27
ATOM     27  C   LIG    1       -0.515  -3.820   7.149  0.00  0.00    +0.331 C 
ATOM     28  O   LIG    1        0.662  -3.644   7.479  0.00  0.00    -0.246 OA
BRANCH  27  29
ATOM     29  O   LIG    1       -1.142  -5.017   7.152  0.00  0.00    -0.465 OA
ATOM     30  C   LIG    1       -0.457  -6.196   7.552  0.00  0.00    +0.280 C 
ENDBRANCH  27  29
ENDBRANCH  26  27
ENDBRANCH  24  25
ENDBRANCH  23  24
ENDBRANCH  22  23
ENDBRANCH  21  22
ENDBRANCH   1  21
TORSDOF 15
