REMARK  Name = DB08973
REMARK                            x       y       z     vdW  Elec       q    Type
REMARK                         _______ _______ _______ _____ _____    ______ ____
ROOT
ATOM      1  C   LIG    1        0.095   2.458  -1.923  0.00  0.00    +0.074 C 
ATOM      2  C   LIG    1       -0.917   1.537  -1.244  0.00  0.00    +0.166 C 
ATOM      3  O   LIG    1       -1.048   0.373  -1.988  0.00  0.00    -0.343 OA
ATOM      4  C   LIG    1       -0.432  -0.721  -1.331  0.00  0.00    +0.162 C 
ATOM      5  C   LIG    1        0.194  -0.114  -0.041  0.00  0.00    +0.164 C 
ATOM      6  C   LIG    1       -0.253  -1.090   1.113  0.00  0.00    +0.011 C 
ATOM      7  C   LIG    1        0.674  -2.354   1.170  0.00  0.00    +0.015 C 
ATOM      8  C   LIG    1       -0.414  -0.426   2.518  0.00  0.00    +0.031 C 
ATOM      9  C   LIG    1       -1.222  -1.272   3.553  0.00  0.00    +0.103 C 
ATOM     10 CL   LIG    1       -0.137  -2.537   4.202  0.00  0.00    -0.120 Cl
ATOM     11  C   LIG    1       -2.611  -1.799   2.995  0.00  0.00    +0.077 C 
ATOM     12 CL   LIG    1       -3.603  -0.288   2.849  0.00  0.00    -0.115 Cl
ATOM     13  C   LIG    1       -3.439  -2.782   3.945  0.00  0.00    +0.031 C 
ATOM     14  C   LIG    1       -2.777  -4.156   4.260  0.00  0.00    +0.022 C 
ATOM     15  C   LIG    1       -3.734  -2.139   5.312  0.00  0.00    -0.010 C 
ATOM     16  C   LIG    1       -4.959  -1.891   5.815  0.00  0.00    +0.047 C 
ATOM     17  C   LIG    1       -6.202  -2.203   5.117  0.00  0.00    +0.179 C 
ATOM     18  O   LIG    1       -7.314  -1.971   5.588  0.00  0.00    -0.288 OA
ATOM     19  C   LIG    1       -6.001  -2.819   3.805  0.00  0.00    +0.054 C 
ATOM     20  C   LIG    1       -4.797  -3.096   3.242  0.00  0.00    -0.021 C 
ATOM     21  C   LIG    1       -4.641  -3.739   1.854  0.00  0.00    +0.193 C 
ATOM     22  F   LIG    1       -5.838  -3.957   1.304  0.00  0.00    -0.241 F 
ATOM     23  C   LIG    1       -3.832  -2.803   0.942  0.00  0.00    +0.047 C 
ATOM     24  C   LIG    1       -2.462  -2.401   1.543  0.00  0.00    +0.019 C 
ATOM     25  C   LIG    1       -1.674  -1.434   0.611  0.00  0.00    +0.006 C 
ATOM     26  C   LIG    1       -1.494  -1.750  -0.879  0.00  0.00    +0.039 C 
ATOM     27  C   LIG    1       -2.289   2.173  -1.076  0.00  0.00    +0.074 C 
ATOM     28  O   LIG    1       -0.452   1.154   0.013  0.00  0.00    -0.332 OA
ENDROOT
BRANCH   5  29
ATOM     29  C   LIG    1        1.735   0.106  -0.109  0.00  0.00    +0.193 C 
ATOM     30  O   LIG    1        2.446  -0.567  -0.860  0.00  0.00    -0.292 OA
BRANCH  29  31
ATOM     31  C   LIG    1        2.317   1.217   0.784  0.00  0.00    +0.233 C 
BRANCH  31  32
ATOM     32  O   LIG    1        3.720   1.317   0.613  0.00  0.00    -0.387 OA
ATOM     33  H   LIG    1        4.053   2.003   1.196  0.00  0.00    +0.210 HD
ENDBRANCH  31  32
ENDBRANCH  29  31
ENDBRANCH   5  29
TORSDOF 3
