REMARK  Name = DB08930
REMARK                            x       y       z     vdW  Elec       q    Type
REMARK                         _______ _______ _______ _____ _____    ______ ____
ROOT
ATOM      1  C   LIG    1       -2.927  -0.145   0.234  0.00  0.00    +0.151 A 
ATOM      2  C   LIG    1       -4.391   0.035   0.150  0.00  0.00    +0.269 C 
ATOM      3  O   LIG    1       -5.178  -0.804   0.598  0.00  0.00    -0.268 OA
ATOM      4  N   LIG    1       -4.865   1.160  -0.479  0.00  0.00    -0.266 N 
ATOM      5  C   LIG    1       -6.290   1.251  -0.889  0.00  0.00    +0.078 C 
ATOM      6  C   LIG    1       -6.545   0.847  -2.354  0.00  0.00    +0.028 C 
ATOM      7  C   LIG    1       -6.790   2.675  -0.574  0.00  0.00    +0.050 C 
ATOM      8  C   LIG    1       -5.817   3.763  -1.039  0.00  0.00    +0.164 C 
ATOM      9  O   LIG    1       -4.511   3.495  -0.540  0.00  0.00    -0.357 OA
ATOM     10  C   LIG    1       -3.989   2.250  -0.932  0.00  0.00    +0.228 C 
ATOM     11  C   LIG    1       -2.616   2.231  -0.257  0.00  0.00    +0.173 C 
ATOM     12  C   LIG    1       -2.329  -1.225   0.829  0.00  0.00    +0.194 A 
ATOM     13  C   LIG    1       -0.847  -1.408   0.864  0.00  0.00    +0.236 A 
ATOM     14  O   LIG    1       -0.294  -2.340   1.457  0.00  0.00    -0.283 OA
ATOM     15  C   LIG    1       -0.103  -0.365   0.093  0.00  0.00    +0.103 A 
ATOM     16  C   LIG    1       -0.780   0.675  -0.461  0.00  0.00    +0.103 A 
ATOM     17  N   LIG    1       -2.147   0.856  -0.349  0.00  0.00    -0.335 N 
ENDROOT
BRANCH  15  18
ATOM     18  C   LIG    1        1.338  -0.434  -0.071  0.00  0.00    +0.250 C 
ATOM     19  O   LIG    1        1.905  -1.445  -0.489  0.00  0.00    -0.270 OA
ATOM     20  N   LIG    1        1.999   0.677   0.311  0.00  0.00    -0.307 N 
ATOM     21  H   LIG    1        1.462   1.460   0.654  0.00  0.00    +0.149 HD
BRANCH  20  22
ATOM     22  C   LIG    1        3.446   0.876   0.224  0.00  0.00    +0.142 C 
BRANCH  22  23
ATOM     23  C   LIG    1        4.011   0.902  -1.196  0.00  0.00    +0.005 A 
ATOM     24  C   LIG    1        3.495   1.778  -2.162  0.00  0.00    +0.131 A 
ATOM     25  F   LIG    1        2.485   2.625  -1.853  0.00  0.00    -0.205 F 
ATOM     26  C   LIG    1        4.022   1.788  -3.454  0.00  0.00    +0.077 A 
ATOM     27  C   LIG    1        5.068   0.929  -3.789  0.00  0.00    +0.126 A 
ATOM     28  F   LIG    1        5.578   0.941  -5.042  0.00  0.00    -0.205 F 
ATOM     29  C   LIG    1        5.589   0.059  -2.832  0.00  0.00    +0.039 A 
ATOM     30  C   LIG    1        5.064   0.047  -1.540  0.00  0.00    +0.011 A 
ENDBRANCH  22  23
ENDBRANCH  20  22
ENDBRANCH  15  18
BRANCH  12  31
ATOM     31  O   LIG    1       -2.989  -2.254   1.438  0.00  0.00    -0.502 OA
ATOM     32  H   LIG    1       -2.349  -2.890   1.769  0.00  0.00    +0.292 HD
ENDBRANCH  12  31
TORSDOF 4
