REMARK  Name = DB08947
REMARK                            x       y       z     vdW  Elec       q    Type
REMARK                         _______ _______ _______ _____ _____    ______ ____
ROOT
ATOM      1  C   UNK A  0        1.523   0.015   0.043  0.00  0.00    +0.065 A 
ATOM      2  C   UNK A  0        2.217   0.087   1.265  0.00  0.00    +0.049 A 
ATOM      3  I   UNK A  0        1.179   0.242   3.102  0.00  0.00    -0.041 I 
ATOM      4  C   UNK A  0        3.620   0.061   1.266  0.00  0.00    +0.061 A 
ATOM      5  C   UNK A  0        4.339  -0.006   0.063  0.00  0.00    +0.049 A 
ATOM      6  I   UNK A  0        6.455   0.011   0.113  0.00  0.00    -0.041 I 
ATOM      7  C   UNK A  0        3.643  -0.083  -1.158  0.00  0.00    +0.065 A 
ATOM      8  C   UNK A  0        2.233  -0.076  -1.171  0.00  0.00    +0.040 A 
ATOM      9  I   UNK A  0        1.187  -0.197  -3.010  0.00  0.00    -0.042 I 
ENDROOT
BRANCH   1  10
ATOM     10  C   UNK A  0        0.019   0.034   0.039  0.00  0.00    +0.247 C 
ATOM     11  O   UNK A  0       -0.624  -1.014   0.091  0.00  0.00    -0.270 OA
ATOM     12  N   SER A  1       -0.523   1.264  -0.009  0.00  0.00    -0.304 N 
ATOM     13  H   SER A  1        0.097   2.057  -0.093  0.00  0.00    +0.149 HD
BRANCH  12  14
ATOM     14  CA  SER A  1       -1.957   1.571   0.022  0.00  0.00    +0.124 C 
BRANCH  14  15
ATOM     15  C   SER A  1       -2.568   1.320   1.426  0.00  0.00    +0.180 C 
BRANCH  15  16
ATOM     16  O   SER A  1       -3.949   1.621   1.468  0.00  0.00    -0.393 OA
ATOM     17  H   SER A  1       -4.272   1.446   2.354  0.00  0.00    +0.209 HD
ENDBRANCH  15  16
ENDBRANCH  14  15
BRANCH  14  18
ATOM     18  CB  SER A  1       -2.211   3.000  -0.519  0.00  0.00    +0.180 C 
BRANCH  18  19
ATOM     19  OG  SER A  1       -1.682   4.004   0.329  0.00  0.00    -0.393 OA
ATOM     20  H   SER A  1       -1.867   4.861  -0.061  0.00  0.00    +0.209 HD
ENDBRANCH  18  19
ENDBRANCH  14  18
ENDBRANCH  12  14
ENDBRANCH   1  10
BRANCH   4  21
ATOM     21  N   UNK A  0        4.312   0.125   2.483  0.00  0.00    -0.282 N 
ATOM     22  H   UNK A  0        4.545   1.043   2.831  0.00  0.00    +0.155 HD
ATOM     23  C   UNK A  0        4.681  -0.961   3.194  0.00  0.00    +0.246 C 
ATOM     24  O   UNK A  0        4.441  -2.119   2.838  0.00  0.00    -0.273 OA
BRANCH  23  25
ATOM     25  C   UNK A  0        5.444  -0.668   4.503  0.00  0.00    +0.197 C 
ATOM     26  C   UNK A  0        6.942  -0.420   4.242  0.00  0.00    +0.047 C 
BRANCH  25  27
ATOM     27  O   UNK A  0        5.325  -1.768   5.390  0.00  0.00    -0.383 OA
ATOM     28  H   UNK A  0        4.394  -1.919   5.567  0.00  0.00    +0.210 HD
ENDBRANCH  25  27
ENDBRANCH  23  25
ENDBRANCH   4  21
BRANCH   7  29
ATOM     29  C   UNK A  0        4.409  -0.172  -2.449  0.00  0.00    +0.247 C 
ATOM     30  O   UNK A  0        4.682   0.842  -3.092  0.00  0.00    -0.270 OA
ATOM     31  N   SER A  1        4.749  -1.423  -2.808  0.00  0.00    -0.304 N 
ATOM     32  H   SER A  1        4.526  -2.177  -2.174  0.00  0.00    +0.149 HD
BRANCH  31  33
ATOM     33  CA  SER A  1        5.510  -1.797  -4.006  0.00  0.00    +0.124 C 
BRANCH  33  34
ATOM     34  C   SER A  1        6.143  -3.205  -3.864  0.00  0.00    +0.180 C 
BRANCH  34  35
ATOM     35  O   SER A  1        6.849  -3.351  -2.646  0.00  0.00    -0.393 OA
ATOM     36  H   SER A  1        7.215  -4.238  -2.608  0.00  0.00    +0.209 HD
ENDBRANCH  34  35
ENDBRANCH  33  34
BRANCH  33  37
ATOM     37  CB  SER A  1        4.666  -1.651  -5.297  0.00  0.00    +0.180 C 
BRANCH  37  38
ATOM     38  OG  SER A  1        5.413  -1.951  -6.460  0.00  0.00    -0.393 OA
ATOM     39  H   SER A  1        4.850  -1.821  -7.227  0.00  0.00    +0.209 HD
ENDBRANCH  37  38
ENDBRANCH  33  37
ENDBRANCH  31  33
ENDBRANCH   7  29
TORSDOF 15
