REMARK  Name = DB08950
REMARK                            x       y       z     vdW  Elec       q    Type
REMARK                         _______ _______ _______ _____ _____    ______ ____
ROOT
ATOM      1  N   LIG    1        1.359   0.080  -0.129  0.00  0.00    -0.302 NA
ATOM      2  C   LIG    1        1.867  -0.290   1.200  0.00  0.00    +0.086 C 
ATOM      3  C   LIG    1        3.407  -0.243   1.274  0.00  0.00    +0.037 C 
ATOM      4  C   LIG    1        4.100  -1.053   0.161  0.00  0.00    +0.076 C 
ATOM      5  C   LIG    1        3.451  -0.766  -1.210  0.00  0.00    +0.037 C 
ATOM      6  C   LIG    1        1.910  -0.793  -1.173  0.00  0.00    +0.086 C 
ENDROOT
BRANCH   4   7
ATOM      7  N   LIG    1        5.562  -0.972   0.199  0.00  0.00    -0.308 N 
ATOM      8  H   LIG    1        5.947  -0.153   0.647  0.00  0.00    +0.149 HD
ATOM      9  C   LIG    1        6.415  -1.820  -0.409  0.00  0.00    +0.244 C 
ATOM     10  O   LIG    1        6.035  -2.810  -1.038  0.00  0.00    -0.270 OA
BRANCH   9  11
ATOM     11  C   LIG    1        7.893  -1.520  -0.254  0.00  0.00    +0.037 A 
ATOM     12  C   LIG    1        8.346  -0.264   0.183  0.00  0.00    +0.013 A 
ATOM     13  C   LIG    1        9.709  -0.010   0.313  0.00  0.00    +0.001 A 
ATOM     14  C   LIG    1       10.630  -1.007   0.006  0.00  0.00    +0.000 A 
ATOM     15  C   LIG    1       10.200  -2.256  -0.431  0.00  0.00    +0.001 A 
ATOM     16  C   LIG    1        8.837  -2.511  -0.563  0.00  0.00    +0.013 A 
ENDBRANCH   9  11
ENDBRANCH   4   7
BRANCH   1  17
ATOM     17  C   LIG    1       -0.107   0.078  -0.198  0.00  0.00    +0.089 C 
BRANCH  17  18
ATOM     18  C   LIG    1       -0.756   1.183   0.664  0.00  0.00    +0.052 C 
BRANCH  18  28
ATOM     19  C   LIG    1       -2.889   1.803  -0.773  0.00  0.00    +0.003 A 
ATOM     20  C   LIG    1       -2.417   2.362  -1.973  0.00  0.00    +0.010 A 
ATOM     21  C   LIG    1       -3.333   2.780  -2.936  0.00  0.00    +0.001 A 
ATOM     22  C   LIG    1       -4.704   2.654  -2.728  0.00  0.00    +0.002 A 
ATOM     23  C   LIG    1       -5.223   2.107  -1.554  0.00  0.00    +0.026 A 
ATOM     24  C   LIG    1       -4.302   1.687  -0.588  0.00  0.00    +0.047 A 
ATOM     25  N   LIG    1       -4.489   1.117   0.651  0.00  0.00    -0.360 N 
ATOM     26  H   LIG    1       -5.365   0.893   1.101  0.00  0.00    +0.165 HD
ATOM     27  C   LIG    1       -3.275   0.874   1.238  0.00  0.00    +0.087 A 
ATOM     28  C   LIG    1       -2.246   1.277   0.405  0.00  0.00    -0.021 A 
ENDBRANCH  18  28
ENDBRANCH  17  18
ENDBRANCH   1  17
TORSDOF 5
