REMARK  Name = DB08881
REMARK                            x       y       z     vdW  Elec       q    Type
REMARK                         _______ _______ _______ _____ _____    ______ ____
ROOT
ATOM      1  C   LIG    1       -2.855   3.328   0.129  0.00  0.00    +0.201 C 
ATOM      2  O   LIG    1       -3.164   3.982   1.125  0.00  0.00    -0.286 OA
ENDROOT
BRANCH   1  11
ATOM      3  C   LIG    1       -2.039   1.839  -4.332  0.00  0.00    +0.001 A 
ATOM      4  C   LIG    1       -2.228   2.041  -2.958  0.00  0.00    +0.022 A 
ATOM      5  C   LIG    1       -2.660   3.300  -2.495  0.00  0.00    +0.030 A 
ATOM      6  C   LIG    1       -2.892   4.293  -3.491  0.00  0.00    +0.139 A 
ATOM      7  N   LIG    1       -3.310   5.436  -2.852  0.00  0.00    -0.345 N 
ATOM      8  H   LIG    1       -3.558   6.323  -3.267  0.00  0.00    +0.167 HD
ATOM      9  C   LIG    1       -3.347   5.210  -1.499  0.00  0.00    +0.096 A 
ATOM     10  N   LIG    1       -2.733   4.142  -4.807  0.00  0.00    -0.237 NA
ATOM     11  C   LIG    1       -2.950   3.910  -1.214  0.00  0.00    +0.049 A 
ATOM     12  C   LIG    1       -2.305   2.912  -5.194  0.00  0.00    +0.121 A 
BRANCH   3  17
ATOM     13  C   LIG    1       -0.678  -1.940  -5.835  0.00  0.00    +0.041 A 
ATOM     14 CL   LIG    1       -0.130  -3.460  -6.440  0.00  0.00    -0.084 Cl
ATOM     15  C   LIG    1       -1.660  -1.233  -6.526  0.00  0.00    +0.020 A 
ATOM     16  C   LIG    1       -2.101  -0.007  -6.036  0.00  0.00    +0.010 A 
ATOM     17  C   LIG    1       -1.567   0.525  -4.855  0.00  0.00    -0.016 A 
ATOM     18  C   LIG    1       -0.581  -0.201  -4.173  0.00  0.00    +0.010 A 
ATOM     19  C   LIG    1       -0.137  -1.427  -4.660  0.00  0.00    +0.020 A 
ENDBRANCH   3  17
ENDBRANCH   1  11
BRANCH   1  20
ATOM     20  C   LIG    1       -2.367   1.931   0.263  0.00  0.00    +0.094 A 
ATOM     21  C   LIG    1       -3.282   0.873   0.363  0.00  0.00    +0.137 A 
ATOM     22  F   LIG    1       -4.618   1.099   0.352  0.00  0.00    -0.205 F 
ATOM     23  C   LIG    1       -2.820  -0.438   0.465  0.00  0.00    +0.041 A 
ATOM     24  C   LIG    1       -1.453  -0.704   0.465  0.00  0.00    +0.030 A 
ATOM     25  C   LIG    1       -0.526   0.343   0.370  0.00  0.00    +0.084 A 
ATOM     26  C   LIG    1       -0.989   1.662   0.277  0.00  0.00    +0.159 A 
ATOM     27  F   LIG    1       -0.094   2.678   0.178  0.00  0.00    -0.203 F 
BRANCH  25  28
ATOM     28  N   LIG    1        0.857   0.108   0.340  0.00  0.00    -0.218 N 
ATOM     29  H   LIG    1        1.471   0.903   0.436  0.00  0.00    +0.173 HD
BRANCH  28  30
ATOM     30  S   LIG    1        1.576  -1.449  -0.112  0.00  0.00    +0.043 S 
ATOM     31  O   LIG    1        1.050  -1.804  -1.434  0.00  0.00    -0.155 OA
ATOM     32  O   LIG    1        1.379  -2.365   1.017  0.00  0.00    -0.155 OA
BRANCH  30  33
ATOM     33  C   LIG    1        3.413  -1.034  -0.264  0.00  0.00    +0.188 C 
BRANCH  33  34
ATOM     34  C   LIG    1        4.207  -2.289  -0.658  0.00  0.00    +0.021 C 
ATOM     35  C   LIG    1        5.705  -2.010  -0.836  0.00  0.00    +0.005 C 
ENDBRANCH  33  34
ENDBRANCH  30  33
ENDBRANCH  28  30
ENDBRANCH  25  28
ENDBRANCH   1  20
TORSDOF 7
