REMARK  Name = DB08901
REMARK                            x       y       z     vdW  Elec       q    Type
REMARK                         _______ _______ _______ _____ _____    ______ ____
ROOT
ATOM      1  N   LIG    1        1.350  -0.082   0.285  0.00  0.00    -0.281 N 
ATOM      2  H   LIG    1        1.780   0.764   0.629  0.00  0.00    +0.155 HD
ATOM      3  C   LIG    1        2.195  -1.009  -0.223  0.00  0.00    +0.248 C 
ATOM      4  O   LIG    1        1.852  -2.113  -0.648  0.00  0.00    -0.270 OA
ENDROOT
BRANCH   3   5
ATOM      5  C   LIG    1        3.654  -0.605  -0.262  0.00  0.00    +0.038 A 
ATOM      6  C   LIG    1        4.535  -1.248  -1.142  0.00  0.00    +0.013 A 
ATOM      7  C   LIG    1        5.881  -0.891  -1.192  0.00  0.00    +0.005 A 
ATOM      8  C   LIG    1        6.386   0.115  -0.363  0.00  0.00    -0.035 A 
ATOM      9  C   LIG    1        7.868   0.468  -0.461  0.00  0.00    +0.045 C 
ATOM     10  C   LIG    1        5.516   0.766   0.532  0.00  0.00    +0.029 A 
ATOM     11  C   LIG    1        4.165   0.401   0.576  0.00  0.00    +0.030 A 
BRANCH  10  12
ATOM     12  C   LIG    1        5.974   1.823   1.429  0.00  0.00    -0.059 C 
ATOM     13  C   LIG    1        6.356   2.717   2.169  0.00  0.00    -0.040 C 
BRANCH  13  14
ATOM     14  C   LIG    1        6.821   3.788   3.037  0.00  0.00    +0.136 A 
ATOM     15  N   LIG    1        8.066   4.381   3.006  0.00  0.00    -0.205 N 
ATOM     16  N   LIG    1        9.100   4.101   2.184  0.00  0.00    -0.172 NA
ATOM     17  C   LIG    1       10.208   4.857   2.390  0.00  0.00    +0.133 A 
ATOM     18  C   LIG    1       10.309   5.853   3.361  0.00  0.00    +0.025 A 
ATOM     19  C   LIG    1        9.220   6.117   4.195  0.00  0.00    +0.050 A 
ATOM     20  C   LIG    1        8.050   5.357   4.019  0.00  0.00    +0.155 A 
ATOM     21  N   LIG    1        6.859   5.385   4.664  0.00  0.00    -0.233 NA
ATOM     22  C   LIG    1        6.150   4.450   4.067  0.00  0.00    +0.150 A 
ENDBRANCH  13  14
ENDBRANCH  10  12
ENDBRANCH   3   5
BRANCH   1  26
ATOM     23  C   LIG    1       -2.833   0.004   0.856  0.00  0.00    -0.022 A 
ATOM     24  C   LIG    1       -1.976   0.944   1.437  0.00  0.00    +0.007 A 
ATOM     25  C   LIG    1       -0.602   0.887   1.228  0.00  0.00    +0.023 A 
ATOM     26  C   LIG    1       -0.049  -0.121   0.440  0.00  0.00    +0.034 A 
ATOM     27  C   LIG    1       -0.901  -1.070  -0.146  0.00  0.00    +0.036 A 
ATOM     28  C   LIG    1       -2.291  -1.026   0.055  0.00  0.00    +0.061 A 
BRANCH  28  29
ATOM     29  C   LIG    1       -3.177  -2.097  -0.599  0.00  0.00    +0.418 C 
ATOM     30  F   LIG    1       -4.066  -1.526  -1.412  0.00  0.00    -0.166 F 
ATOM     31  F   LIG    1       -3.826  -2.785   0.341  0.00  0.00    -0.166 F 
ATOM     32  F   LIG    1       -2.480  -2.974  -1.326  0.00  0.00    -0.166 F 
ENDBRANCH  28  29
BRANCH  23  33
ATOM     33  C   LIG    1       -4.333   0.137   1.141  0.00  0.00    +0.120 C 
BRANCH  33  34
ATOM     34  N   LIG    1       -4.887   1.417   0.684  0.00  0.00    -0.296 NA
ATOM     35  C   LIG    1       -6.226   1.622   1.253  0.00  0.00    +0.100 C 
ATOM     36  C   LIG    1       -6.796   2.989   0.801  0.00  0.00    +0.099 C 
ATOM     37  N   LIG    1       -6.888   3.037  -0.662  0.00  0.00    -0.303 NA
ATOM     38  C   LIG    1       -7.434   4.318  -1.095  0.00  0.00    +0.105 C 
ATOM     39  C   LIG    1       -5.553   2.833  -1.235  0.00  0.00    +0.099 C 
ATOM     40  C   LIG    1       -4.989   1.464  -0.783  0.00  0.00    +0.100 C 
ENDBRANCH  33  34
ENDBRANCH  23  33
ENDBRANCH   1  26
TORSDOF 7
