REMARK  Name = DB08823
REMARK                            x       y       z     vdW  Elec       q    Type
REMARK                         _______ _______ _______ _____ _____    ______ ____
ROOT
ATOM      1  C   LIG    1       -4.796  -7.718  -4.375  0.00  0.00    +0.176 C 
ATOM      2  O   LIG    1       -5.173  -6.916  -3.251  0.00  0.00    -0.461 OA
ATOM      3  C   LIG    1       -4.315  -6.026  -2.696  0.00  0.00    +0.308 C 
ATOM      4  O   LIG    1       -3.159  -5.818  -3.072  0.00  0.00    -0.251 OA
ATOM      5  C   LIG    1       -4.963  -5.228  -1.547  0.00  0.00    +0.129 C 
ATOM      6  C   LIG    1       -4.372  -3.814  -1.239  0.00  0.00    +0.040 C 
ATOM      7  C   LIG    1       -4.211  -2.900  -2.456  0.00  0.00    -0.004 C 
ATOM      8  C   LIG    1       -5.305  -2.718  -3.412  0.00  0.00    +0.164 C 
ATOM      9  O   LIG    1       -6.482  -2.768  -3.053  0.00  0.00    -0.292 OA
ATOM     10  C   LIG    1       -4.968  -2.545  -4.911  0.00  0.00    +0.086 C 
ATOM     11  C   LIG    1       -5.983  -3.246  -5.871  0.00  0.00    +0.132 C 
ATOM     12  C   LIG    1       -6.242  -4.757  -5.599  0.00  0.00    +0.032 C 
ATOM     13  C   LIG    1       -5.115  -5.716  -6.043  0.00  0.00    +0.006 C 
ATOM     14  C   LIG    1       -4.831  -1.040  -5.242  0.00  0.00    +0.018 C 
ATOM     15  C   LIG    1       -2.991  -2.332  -2.498  0.00  0.00    -0.015 C 
ATOM     16  C   LIG    1       -2.148  -2.689  -1.290  0.00  0.00    +0.023 C 
ATOM     17  C   LIG    1       -1.907  -1.496  -0.339  0.00  0.00    +0.006 C 
ATOM     18  C   LIG    1       -1.243  -1.976   0.950  0.00  0.00    +0.021 C 
ATOM     19  C   LIG    1       -2.147  -2.981   1.657  0.00  0.00    -0.073 C 
ATOM     20  C   LIG    1       -2.906  -3.817   0.913  0.00  0.00    -0.023 C 
ATOM     21  C   LIG    1       -2.115  -3.059   3.173  0.00  0.00    +0.039 C 
ATOM     22  C   LIG    1       -0.808  -0.681   1.641  0.00  0.00    +0.039 C 
ATOM     23  C   LIG    1       -0.379   0.245   0.478  0.00  0.00    +0.122 C 
ATOM     24  C   LIG    1       -0.991  -0.358  -0.809  0.00  0.00    +0.036 C 
ATOM     25  C   LIG    1       -2.959  -3.833  -0.623  0.00  0.00    +0.027 C 
ATOM     26  C   LIG    1       -5.406  -7.197  -5.702  0.00  0.00    +0.045 C 
ENDROOT
BRANCH   1  28
ATOM     27  C   LIG    1       -6.646  -9.474  -3.816  0.00  0.00    +0.007 C 
ATOM     28  C   LIG    1       -5.154  -9.191  -4.070  0.00  0.00    +0.041 C 
ENDBRANCH   1  28
BRANCH  11  29
ATOM     29  O   LIG    1       -5.494  -3.058  -7.203  0.00  0.00    -0.347 OA
BRANCH  29  30
ATOM     30  C   LIG    1       -6.437  -3.003  -8.232  0.00  0.00    +0.251 C 
ATOM     31  O   LIG    1       -6.982  -4.270  -8.487  0.00  0.00    -0.347 OA
ATOM     32  C   LIG    1       -8.021  -4.246  -9.473  0.00  0.00    +0.135 C 
ATOM     33  C   LIG    1       -7.448  -3.793 -10.851  0.00  0.00    +0.085 C 
ATOM     34  C   LIG    1       -6.663  -2.467 -10.672  0.00  0.00    +0.026 C 
ATOM     35  C   LIG    1       -8.640  -5.654  -9.504  0.00  0.00    +0.039 C 
ATOM     36  C   LIG    1       -5.689  -2.548  -9.484  0.00  0.00    +0.063 C 
BRANCH  33  37
ATOM     37  N   LIG    1       -8.416  -3.840 -11.963  0.00  0.00    -0.303 NA
ATOM     38  C   LIG    1       -9.398  -2.758 -11.946  0.00  0.00    +0.105 C 
ATOM     39  C   LIG    1       -7.758  -3.891 -13.267  0.00  0.00    +0.105 C 
ENDBRANCH  33  37
ENDBRANCH  29  30
ENDBRANCH  11  29
BRANCH  23  40
ATOM     40  O   LIG    1        1.039   0.236   0.318  0.00  0.00    -0.345 OA
BRANCH  40  41
ATOM     41  C   LIG    1        1.760   1.089   1.163  0.00  0.00    +0.282 C 
ATOM     42  O   LIG    1        1.509   2.450   0.908  0.00  0.00    -0.343 OA
ATOM     43  C   LIG    1        1.835   2.871  -0.424  0.00  0.00    +0.150 C 
ATOM     44  C   LIG    1        3.330   2.636  -0.746  0.00  0.00    +0.178 C 
ATOM     45  C   LIG    1        3.716   1.173  -0.436  0.00  0.00    +0.183 C 
ATOM     46  C   LIG    1        1.428   4.347  -0.560  0.00  0.00    +0.041 C 
ATOM     47  C   LIG    1        3.260   0.786   0.994  0.00  0.00    +0.205 C 
BRANCH  44  48
ATOM     48  O   LIG    1        3.540   2.946  -2.126  0.00  0.00    -0.375 OA
ATOM     49  C   LIG    1        4.803   3.514  -2.446  0.00  0.00    +0.194 C 
ENDBRANCH  44  48
BRANCH  45  50
ATOM     50  O   LIG    1        5.120   0.985  -0.621  0.00  0.00    -0.374 OA
ATOM     51  C   LIG    1        5.571  -0.364  -0.647  0.00  0.00    +0.194 C 
ENDBRANCH  45  50
BRANCH  47  52
ATOM     52  O   LIG    1        4.052   1.512   1.936  0.00  0.00    -0.372 OA
ATOM     53  C   LIG    1        4.095   0.964   3.247  0.00  0.00    +0.194 C 
ENDBRANCH  47  52
ENDBRANCH  40  41
ENDBRANCH  23  40
TORSDOF 9
