REMARK  Name = DB08846
REMARK                            x       y       z     vdW  Elec       q    Type
REMARK                         _______ _______ _______ _____ _____    ______ ____
ROOT
ATOM      1  C   LIG    1        1.373  -0.004   0.000  0.00  0.00    +0.163 A 
ATOM      2  C   LIG    1        2.073   1.207   0.000  0.00  0.00    +0.065 A 
ATOM      3  C   LIG    1        3.472   1.224   0.000  0.00  0.00    +0.074 A 
ATOM      4  C   LIG    1        4.260   2.501   0.000  0.00  0.00    +0.345 A 
ATOM      5  O   LIG    1        5.640   2.432   0.000  0.00  0.00    -0.418 OA
ATOM      6  C   LIG    1        6.311   1.212   0.000  0.00  0.00    +0.185 A 
ATOM      7  C   LIG    1        7.712   1.215   0.000  0.00  0.00    +0.202 A 
ATOM      8  C   LIG    1        8.406  -0.004   0.000  0.00  0.00    +0.163 A 
ATOM      9  C   LIG    1        7.707  -1.216   0.000  0.00  0.00    +0.065 A 
ATOM     10  C   LIG    1        6.307  -1.233   0.000  0.00  0.00    +0.074 A 
ATOM     11  C   LIG    1        5.520  -2.510   0.000  0.00  0.00    +0.345 A 
ATOM     12  O   LIG    1        4.139  -2.441   0.000  0.00  0.00    -0.418 OA
ATOM     13  C   LIG    1        3.469  -1.220   0.000  0.00  0.00    +0.185 A 
ATOM     14  O   LIG    1        6.015  -3.636   0.000  0.00  0.00    -0.244 OA
ATOM     15  C   LIG    1        5.627  -0.012   0.000  0.00  0.00    +0.047 A 
ATOM     16  O   LIG    1        3.766   3.628   0.000  0.00  0.00    -0.244 OA
ATOM     17  C   LIG    1        4.152   0.004   0.000  0.00  0.00    +0.047 A 
ATOM     18  C   LIG    1        2.067  -1.224   0.000  0.00  0.00    +0.202 A 
ENDROOT
BRANCH   1  19
ATOM     19  O   LIG    1        0.001   0.023   0.000  0.00  0.00    -0.503 OA
ATOM     20  H   LIG    1       -0.357   0.913   0.000  0.00  0.00    +0.292 HD
ENDBRANCH   1  19
BRANCH   7  21
ATOM     21  O   LIG    1        8.405   2.402   0.000  0.00  0.00    -0.501 OA
ATOM     22  H   LIG    1        9.357   2.272   0.000  0.00  0.00    +0.292 HD
ENDBRANCH   7  21
BRANCH   8  23
ATOM     23  O   LIG    1        9.779  -0.031   0.000  0.00  0.00    -0.503 OA
ATOM     24  H   LIG    1       10.137  -0.922   0.000  0.00  0.00    +0.292 HD
ENDBRANCH   8  23
BRANCH  18  25
ATOM     25  O   LIG    1        1.374  -2.411   0.000  0.00  0.00    -0.501 OA
ATOM     26  H   LIG    1        0.423  -2.281   0.000  0.00  0.00    +0.292 HD
ENDBRANCH  18  25
TORSDOF 4
