REMARK  Name = DB08439
REMARK                            x       y       z     vdW  Elec       q    Type
REMARK                         _______ _______ _______ _____ _____    ______ ____
ROOT
ATOM      1  C   LIG    1        1.876  -0.045   0.358  0.00  0.00    +0.109 A 
ATOM      2  C   LIG    1        2.472   0.220  -0.875  0.00  0.00    +0.029 A 
ATOM      3  C   LIG    1        3.857   0.182  -0.996  0.00  0.00    +0.010 A 
ATOM      4  C   LIG    1        4.650  -0.128   0.113  0.00  0.00    -0.012 A 
ATOM      5  C   LIG    1        4.048  -0.394   1.345  0.00  0.00    +0.010 A 
ATOM      6  C   LIG    1        2.662  -0.353   1.470  0.00  0.00    +0.029 A 
ENDROOT
BRANCH   4   7
ATOM      7  C   LIG    1        6.136  -0.169  -0.019  0.00  0.00    +0.052 A 
ATOM      8  C   LIG    1        6.925  -0.771  -1.020  0.00  0.00    +0.121 A 
ATOM      9  N   LIG    1        8.210  -0.569  -0.814  0.00  0.00    -0.077 NA
ATOM     10  O   LIG    1        8.313   0.163   0.364  0.00  0.00    -0.359 OA
ATOM     11  C   LIG    1        7.067   0.403   0.835  0.00  0.00    +0.142 A 
ATOM     12  C   LIG    1        6.986   1.212   2.109  0.00  0.00    +0.090 C 
BRANCH   8  13
ATOM     13  C   LIG    1        6.480  -1.571  -2.204  0.00  0.00    +0.004 A 
ATOM     14  C   LIG    1        5.448  -2.507  -2.072  0.00  0.00    +0.010 A 
ATOM     15  C   LIG    1        5.029  -3.251  -3.172  0.00  0.00    +0.001 A 
ATOM     16  C   LIG    1        5.647  -3.065  -4.406  0.00  0.00    +0.000 A 
ATOM     17  C   LIG    1        6.681  -2.143  -4.549  0.00  0.00    +0.001 A 
ATOM     18  C   LIG    1        7.098  -1.398  -3.449  0.00  0.00    +0.010 A 
ENDBRANCH   8  13
ENDBRANCH   4   7
BRANCH   1  19
ATOM     19  S   LIG    1        0.093   0.020   0.496  0.00  0.00    +0.074 S 
ATOM     20  O   LIG    1       -0.436  -0.979  -0.439  0.00  0.00    -0.150 OA
ATOM     21  O   LIG    1       -0.250  -0.033   1.923  0.00  0.00    -0.150 OA
BRANCH  19  23
ATOM     22  C   LIG    1       -0.037   2.841   0.487  0.00  0.00    +0.232 C 
ATOM     23  N   LIG    1       -0.358   1.608  -0.123  0.00  0.00    -0.185 N 
ATOM     24  H   LIG    1       -0.834   1.604  -1.028  0.00  0.00    +0.177 HD
ATOM     25  O   LIG    1        0.574   2.935   1.551  0.00  0.00    -0.274 OA
BRANCH  22  27
ATOM     26  C   LIG    1       -0.179   5.415   0.341  0.00  0.00    +0.013 C 
ATOM     27  C   LIG    1       -0.510   4.062  -0.314  0.00  0.00    +0.094 C 
ENDBRANCH  22  27
ENDBRANCH  19  23
ENDBRANCH   1  19
TORSDOF 5
