REMARK  Name = DB08839
REMARK                            x       y       z     vdW  Elec       q    Type
REMARK                         _______ _______ _______ _____ _____    ______ ____
ROOT
ATOM      1  C   LIG    1        2.064  -1.457  -0.117  0.00  0.00    -0.024 A 
ATOM      2  C   LIG    1        2.301  -2.266   1.053  0.00  0.00    +0.006 A 
ATOM      3  C   LIG    1        2.134  -2.055   2.432  0.00  0.00    +0.055 A 
ATOM      4  C   LIG    1        2.468  -3.074   3.322  0.00  0.00    +0.118 A 
ATOM      5  C   LIG    1        2.963  -4.293   2.864  0.00  0.00    +0.047 A 
ATOM      6  C   LIG    1        3.148  -4.551   1.506  0.00  0.00    +0.030 A 
ATOM      7  C   LIG    1        2.813  -3.526   0.614  0.00  0.00    +0.047 A 
ATOM      8  N   LIG    1        2.878  -3.467  -0.759  0.00  0.00    -0.360 N 
ATOM      9  H   LIG    1        3.196  -4.186  -1.394  0.00  0.00    +0.165 HD
ATOM     10  C   LIG    1        2.436  -2.244  -1.191  0.00  0.00    +0.087 A 
ENDROOT
BRANCH   4  11
ATOM     11  O   LIG    1        2.307  -2.874   4.667  0.00  0.00    -0.507 OA
ATOM     12  H   LIG    1        1.968  -2.002   4.879  0.00  0.00    +0.292 HD
ENDBRANCH   4  11
BRANCH   1  13
ATOM     13  C   LIG    1        1.517  -0.046  -0.149  0.00  0.00    +0.018 C 
BRANCH  13  14
ATOM     14  C   LIG    1        0.015  -0.006   0.190  0.00  0.00    -0.082 C 
BRANCH  14  15
ATOM     15  N   LIG    1       -0.509   1.435   0.160  0.00  0.00    +0.378 N 
ATOM     16  H   LIG    1       -0.012   1.998   0.835  0.00  0.00    -0.090 HD
ATOM     17  H   LIG    1       -0.378   1.834  -0.758  0.00  0.00    -0.090 HD
ATOM     18  H   LIG    1       -1.494   1.451   0.385  0.00  0.00    -0.090 HD
ENDBRANCH  14  15
ENDBRANCH  13  14
ENDBRANCH   1  13
TORSDOF 4
