REMARK  Name = DB08486
REMARK                            x       y       z     vdW  Elec       q    Type
REMARK                         _______ _______ _______ _____ _____    ______ ____
ROOT
ATOM      1  C   LIG    1        1.428   0.306   0.206  0.00  0.00    +0.122 A 
ATOM      2  C   LIG    1        2.196   1.456  -0.039  0.00  0.00    +0.046 A 
ATOM      3  C   LIG    1        3.581   1.371  -0.137  0.00  0.00    +0.007 A 
ATOM      4  C   LIG    1        4.219   0.138   0.013  0.00  0.00    -0.038 A 
ATOM      5  C   LIG    1        3.464  -1.008   0.271  0.00  0.00    +0.007 A 
ATOM      6  C   LIG    1        2.079  -0.919   0.366  0.00  0.00    +0.046 A 
ENDROOT
BRANCH   1   7
ATOM      7  O   LIG    1        0.048   0.275   0.338  0.00  0.00    -0.475 OA
BRANCH   7   8
ATOM      8  C   LIG    1       -0.840   1.345  -0.064  0.00  0.00    +0.200 C 
ATOM      9  C   LIG    1       -0.635   1.717  -1.565  0.00  0.00    +0.067 C 
ATOM     10  C   LIG    1       -2.252   0.735   0.105  0.00  0.00    +0.067 C 
BRANCH   8  11
ATOM     11  C   LIG    1       -0.719   2.570   0.913  0.00  0.00    +0.348 C 
ATOM     12  O   LIG    1       -0.982   3.717   0.480  0.00  0.00    -0.247 OA
BRANCH  11  13
ATOM     13  O   LIG    1       -0.389   2.350   2.103  0.00  0.00    -0.478 OA
ATOM     14  H   LIG    1       -0.522   3.009   2.756  0.00  0.00    +0.295 HD
ENDBRANCH  11  13
ENDBRANCH   8  11
ENDBRANCH   7   8
ENDBRANCH   1   7
BRANCH   4  15
ATOM     15  C   LIG    1        5.744   0.052  -0.063  0.00  0.00    +0.131 C 
BRANCH  15  16
ATOM     16  C   LIG    1        6.486   0.367   1.253  0.00  0.00    +0.222 C 
ATOM     17  N   LIG    1        5.762   0.409   2.395  0.00  0.00    -0.285 N 
ATOM     18  H   LIG    1        4.788   0.156   2.316  0.00  0.00    +0.155 HD
ATOM     19  O   LIG    1        7.705   0.533   1.199  0.00  0.00    -0.275 OA
BRANCH  17  20
ATOM     20  C   LIG    1        6.188   0.699   3.704  0.00  0.00    +0.034 A 
ATOM     21  C   LIG    1        7.352   1.420   4.017  0.00  0.00    +0.026 A 
ATOM     22  C   LIG    1        7.689   1.676   5.349  0.00  0.00    -0.048 A 
ATOM     23  C   LIG    1        8.945   2.457   5.690  0.00  0.00    +0.044 C 
ATOM     24  C   LIG    1        6.859   1.216   6.374  0.00  0.00    +0.006 A 
ATOM     25  C   LIG    1        5.693   0.507   6.074  0.00  0.00    -0.048 A 
ATOM     26  C   LIG    1        4.781   0.020   7.185  0.00  0.00    +0.044 C 
ATOM     27  C   LIG    1        5.359   0.259   4.740  0.00  0.00    +0.026 A 
ENDBRANCH  17  20
ENDBRANCH  15  16
ENDBRANCH   4  15
TORSDOF 7
