REMARK  Name = DB08824
REMARK                            x       y       z     vdW  Elec       q    Type
REMARK                         _______ _______ _______ _____ _____    ______ ____
ROOT
ATOM      1  C   LIG    1       -0.080   2.013   1.286  0.00  0.00    +0.021 C 
ATOM      2  C   LIG    1       -0.149   0.938   2.379  0.00  0.00    +0.020 C 
ATOM      3  C   LIG    1       -0.434  -0.365   1.605  0.00  0.00    +0.058 C 
ATOM      4  N   LIG    1        0.108  -0.137   0.262  0.00  0.00    -0.296 NA
ATOM      5  C   LIG    1       -1.952  -0.667   1.440  0.00  0.00    +0.028 C 
ATOM      6  C   LIG    1       -2.710   0.493   0.724  0.00  0.00    +0.036 C 
ATOM      7  C   LIG    1       -1.864   1.200  -0.396  0.00  0.00    +0.122 C 
ATOM      8  C   LIG    1       -0.343   1.237  -0.023  0.00  0.00    +0.071 C 
ENDROOT
BRANCH   6   9
ATOM      9  C   LIG    1       -4.200   0.281   0.403  0.00  0.00    -0.043 A 
ATOM     10  C   LIG    1       -4.790  -0.990   0.439  0.00  0.00    +0.005 A 
ATOM     11  C   LIG    1       -6.141  -1.146   0.139  0.00  0.00    +0.014 A 
ATOM     12  C   LIG    1       -6.910  -0.033  -0.192  0.00  0.00    +0.013 A 
ATOM     13  I   LIG    1       -8.937  -0.270  -0.648  0.00  0.00    -0.044 I 
ATOM     14  C   LIG    1       -6.339   1.236  -0.222  0.00  0.00    +0.014 A 
ATOM     15  C   LIG    1       -4.989   1.391   0.077  0.00  0.00    +0.005 A 
ENDBRANCH   6   9
BRANCH   7  16
ATOM     16  C   LIG    1       -2.030   0.580  -1.806  0.00  0.00    +0.312 C 
ATOM     17  O   LIG    1       -2.017   1.298  -2.808  0.00  0.00    -0.250 OA
BRANCH  16  18
ATOM     18  O   LIG    1       -2.178  -0.765  -1.805  0.00  0.00    -0.468 OA
ATOM     19  C   LIG    1       -2.331  -1.476  -3.023  0.00  0.00    +0.280 C 
ENDBRANCH  16  18
ENDBRANCH   7  16
BRANCH   4  20
ATOM     20  C   LIG    1        1.561  -0.329   0.183  0.00  0.00    +0.087 C 
BRANCH  20  21
ATOM     21  C   LIG    1        2.060  -0.379  -1.275  0.00  0.00    +0.049 C 
BRANCH  21  22
ATOM     22  C   LIG    1        3.589  -0.469  -1.366  0.00  0.00    +0.214 C 
ATOM     23  F   LIG    1        4.032  -0.567  -2.619  0.00  0.00    -0.249 F 
ENDBRANCH  21  22
ENDBRANCH  20  21
ENDBRANCH   4  20
TORSDOF 6
