REMARK  Name = DB08827
REMARK                            x       y       z     vdW  Elec       q    Type
REMARK                         _______ _______ _______ _____ _____    ______ ____
ROOT
ATOM      1  C   LIG    1        1.700  -2.130  -0.457  0.00  0.00    +0.084 C 
ENDROOT
BRANCH   1   2
ATOM      2  N   LIG    1        1.190  -2.827   0.731  0.00  0.00    -0.302 NA
ATOM      3  C   LIG    1        1.422  -4.271   0.626  0.00  0.00    +0.086 C 
ATOM      4  C   LIG    1        0.758  -5.044   1.784  0.00  0.00    +0.037 C 
ATOM      5  C   LIG    1        1.142  -4.508   3.177  0.00  0.00    +0.076 C 
ATOM      6  C   LIG    1        1.075  -2.966   3.220  0.00  0.00    +0.037 C 
ATOM      7  C   LIG    1        1.718  -2.289   1.992  0.00  0.00    +0.086 C 
BRANCH   5   8
ATOM      8  N   LIG    1        0.460  -5.195   4.272  0.00  0.00    -0.308 N 
ATOM      9  H   LIG    1       -0.435  -5.604   4.047  0.00  0.00    +0.149 HD
ATOM     10  C   LIG    1        0.882  -5.262   5.549  0.00  0.00    +0.245 C 
ATOM     11  O   LIG    1        1.908  -4.718   5.961  0.00  0.00    -0.270 OA
BRANCH  10  12
ATOM     12  C   LIG    1        0.000  -6.056   6.484  0.00  0.00    +0.044 A 
ATOM     13  C   LIG    1       -0.375  -5.454   7.694  0.00  0.00    +0.013 A 
ATOM     14  C   LIG    1       -1.213  -6.110   8.591  0.00  0.00    +0.001 A 
ATOM     15  C   LIG    1       -1.690  -7.380   8.291  0.00  0.00    +0.001 A 
ATOM     16  C   LIG    1       -1.320  -7.997   7.098  0.00  0.00    +0.009 A 
ATOM     17  C   LIG    1       -0.469  -7.362   6.183  0.00  0.00    -0.006 A 
BRANCH  17  18
ATOM     18  C   LIG    1       -0.097  -8.110   4.946  0.00  0.00    -0.017 A 
ATOM     19  C   LIG    1        1.242  -8.397   4.659  0.00  0.00    +0.009 A 
ATOM     20  C   LIG    1        1.585  -9.074   3.492  0.00  0.00    +0.013 A 
ATOM     21  C   LIG    1        0.592  -9.481   2.597  0.00  0.00    +0.055 A 
ATOM     22  C   LIG    1       -0.749  -9.208   2.886  0.00  0.00    +0.013 A 
ATOM     23  C   LIG    1       -1.089  -8.530   4.053  0.00  0.00    +0.009 A 
BRANCH  21  24
ATOM     24  C   LIG    1        0.990 -10.216   1.318  0.00  0.00    +0.417 C 
ATOM     25  F   LIG    1       -0.066 -10.699   0.658  0.00  0.00    -0.166 F 
ATOM     26  F   LIG    1        1.798 -11.238   1.607  0.00  0.00    -0.166 F 
ATOM     27  F   LIG    1        1.635  -9.374   0.510  0.00  0.00    -0.166 F 
ENDBRANCH  21  24
ENDBRANCH  17  18
ENDBRANCH  10  12
ENDBRANCH   5   8
ENDBRANCH   1   2
BRANCH   1  28
ATOM     28  C   LIG    1        1.272  -0.647  -0.545  0.00  0.00    +0.015 C 
BRANCH  28  29
ATOM     29  C   LIG    1       -0.251  -0.420  -0.483  0.00  0.00    +0.003 C 
BRANCH  29  30
ATOM     30  C   LIG    1       -0.649   1.071  -0.555  0.00  0.00    +0.026 C 
BRANCH  30  36
ATOM     31  C   LIG    1       -2.732   0.786   0.909  0.00  0.00    -0.020 A 
ATOM     32  C   LIG    1       -2.399   1.087   2.235  0.00  0.00    +0.005 A 
ATOM     33  C   LIG    1       -3.020   0.407   3.283  0.00  0.00    +0.000 A 
ATOM     34  C   LIG    1       -3.975  -0.574   3.011  0.00  0.00    +0.001 A 
ATOM     35  C   LIG    1       -4.316  -0.874   1.692  0.00  0.00    +0.009 A 
ATOM     36  C   LIG    1       -2.178   1.363  -0.393  0.00  0.00    +0.098 C 
ATOM     37  C   LIG    1       -3.017   0.622  -1.432  0.00  0.00    -0.020 A 
ATOM     38  C   LIG    1       -3.016   0.734  -2.827  0.00  0.00    +0.005 A 
ATOM     39  C   LIG    1       -3.864  -0.068  -3.591  0.00  0.00    +0.000 A 
ATOM     40  C   LIG    1       -4.713  -0.984  -2.968  0.00  0.00    +0.001 A 
ATOM     41  C   LIG    1       -4.720  -1.097  -1.577  0.00  0.00    +0.009 A 
ATOM     42  C   LIG    1       -3.873  -0.291  -0.813  0.00  0.00    -0.013 A 
ATOM     43  C   LIG    1       -3.695  -0.190   0.645  0.00  0.00    -0.013 A 
BRANCH  36  44
ATOM     44  C   LIG    1       -2.452   2.899  -0.466  0.00  0.00    +0.228 C 
ATOM     45  O   LIG    1       -1.535   3.700  -0.666  0.00  0.00    -0.274 OA
ATOM     46  N   LIG    1       -3.728   3.303  -0.299  0.00  0.00    -0.306 N 
ATOM     47  H   LIG    1       -4.435   2.595  -0.156  0.00  0.00    +0.149 HD
BRANCH  46  48
ATOM     48  C   LIG    1       -4.194   4.691  -0.301  0.00  0.00    +0.217 C 
BRANCH  48  49
ATOM     49  C   LIG    1       -4.057   5.402   1.061  0.00  0.00    +0.405 C 
ATOM     50  F   LIG    1       -2.786   5.488   1.454  0.00  0.00    -0.169 F 
ATOM     51  F   LIG    1       -4.725   4.755   2.016  0.00  0.00    -0.169 F 
ATOM     52  F   LIG    1       -4.542   6.641   0.998  0.00  0.00    -0.169 F 
ENDBRANCH  48  49
ENDBRANCH  46  48
ENDBRANCH  36  44
ENDBRANCH  30  36
ENDBRANCH  29  30
ENDBRANCH  28  29
ENDBRANCH   1  28
TORSDOF 12
