REMARK  Name = DB09371
REMARK                            x       y       z     vdW  Elec       q    Type
REMARK                         _______ _______ _______ _____ _____    ______ ____
ROOT
ATOM      1  C   LIG    1        0.090   2.100   3.921  0.00  0.00    -0.066 C 
ATOM      2  C   LIG    1        0.051   3.635   4.015  0.00  0.00    +0.038 C 
ATOM      3  C   LIG    1        0.923   4.207   5.152  0.00  0.00    +0.079 C 
ATOM      4  C   LIG    1        0.629   3.511   6.476  0.00  0.00    +0.138 C 
ATOM      5  O   LIG    1        0.341   4.115   7.507  0.00  0.00    -0.297 OA
ATOM      6  C   LIG    1        0.706   1.986   6.389  0.00  0.00    +0.105 C 
ATOM      7  C   LIG    1        0.337   1.355   5.042  0.00  0.00    -0.063 C 
ATOM      8  C   LIG    1        0.360  -0.177   5.032  0.00  0.00    +0.031 C 
ATOM      9  C   LIG    1       -0.355  -0.765   3.809  0.00  0.00    +0.009 C 
ATOM     10  C   LIG    1        0.111  -0.055   2.531  0.00  0.00    +0.000 C 
ATOM     11  C   LIG    1       -0.441  -0.704   1.231  0.00  0.00    +0.002 C 
ATOM     12  C   LIG    1       -0.242  -2.204   0.983  0.00  0.00    +0.008 C 
ATOM     13  C   LIG    1       -0.347  -2.368  -0.549  0.00  0.00    +0.049 C 
ATOM     14  C   LIG    1       -0.544  -0.948  -1.165  0.00  0.00    +0.132 C 
ATOM     15  C   LIG    1        0.073  -0.003  -0.058  0.00  0.00    +0.011 C 
ATOM     16  C   LIG    1        1.636  -0.006  -0.178  0.00  0.00    +0.015 C 
ATOM     17  C   LIG    1       -0.443   1.469   0.013  0.00  0.00    +0.011 C 
ATOM     18  C   LIG    1        0.057   2.203   1.285  0.00  0.00    +0.009 C 
ATOM     19  C   LIG    1       -0.342   1.440   2.587  0.00  0.00    +0.018 C 
ENDROOT
BRANCH  14  20
ATOM     20  O   LIG    1        0.111  -0.856  -2.420  0.00  0.00    -0.376 OA
ATOM     21  H   LIG    1        0.075   0.057  -2.713  0.00  0.00    +0.211 HD
ENDBRANCH  14  20
BRANCH  14  22
ATOM     22  C   LIG    1       -1.981  -0.712  -1.465  0.00  0.00    -0.070 C 
ATOM     23  C   LIG    1       -3.166  -0.527  -1.697  0.00  0.00    +0.007 C 
ENDBRANCH  14  22
TORSDOF 2
