REMARK  Name = DB09026
REMARK                            x       y       z     vdW  Elec       q    Type
REMARK                         _______ _______ _______ _____ _____    ______ ____
ROOT
ATOM      1  C   LIG    1        1.706  -0.281  -0.009  0.00  0.00    +0.080 C 
ENDROOT
BRANCH   1   2
ATOM      2  N   LIG    1        2.334   0.416  -1.125  0.00  0.00    -0.325 NA
ATOM      3  H   LIG    1        2.070  -0.029  -1.993  0.00  0.00    +0.119 HD
ATOM      4  H   LIG    1        3.338   0.333  -1.057  0.00  0.00    +0.119 HD
ENDBRANCH   1   2
BRANCH   1   5
ATOM      5  C   LIG    1        0.164  -0.138  -0.155  0.00  0.00    +0.025 C 
BRANCH   5   6
ATOM      6  C   LIG    1       -0.414   1.311  -0.177  0.00  0.00    -0.003 C 
BRANCH   6   7
ATOM      7  C   LIG    1       -1.926   1.353  -0.577  0.00  0.00    -0.014 C 
ATOM      8  C   LIG    1       -2.174   0.935  -2.041  0.00  0.00    +0.007 C 
ATOM      9  C   LIG    1       -2.853   0.576   0.381  0.00  0.00    +0.007 C 
ENDBRANCH   6   7
BRANCH   6  10
ATOM     10  C   LIG    1       -0.108   2.060   1.152  0.00  0.00    +0.039 C 
BRANCH  10  14
ATOM     11  C   LIG    1       -1.446   6.185   1.245  0.00  0.00    +0.162 A 
ATOM     12  C   LIG    1       -2.152   5.204   1.958  0.00  0.00    +0.162 A 
ATOM     13  C   LIG    1       -1.705   3.871   1.925  0.00  0.00    +0.053 A 
ATOM     14  C   LIG    1       -0.575   3.511   1.188  0.00  0.00    -0.043 A 
ATOM     15  C   LIG    1        0.122   4.490   0.481  0.00  0.00    +0.007 A 
ATOM     16  C   LIG    1       -0.308   5.814   0.508  0.00  0.00    +0.049 A 
BRANCH  11  17
ATOM     17  O   LIG    1       -1.927   7.481   1.313  0.00  0.00    -0.491 OA
ATOM     18  C   LIG    1       -1.245   8.518   0.615  0.00  0.00    +0.277 C 
ENDBRANCH  11  17
BRANCH  12  19
ATOM     19  O   LIG    1       -3.269   5.619   2.663  0.00  0.00    -0.488 OA
BRANCH  19  20
ATOM     20  C   LIG    1       -4.044   4.665   3.384  0.00  0.00    +0.231 C 
BRANCH  20  21
ATOM     21  C   LIG    1       -5.224   5.391   4.048  0.00  0.00    +0.069 C 
BRANCH  21  22
ATOM     22  C   LIG    1       -6.165   4.451   4.818  0.00  0.00    +0.163 C 
BRANCH  22  23
ATOM     23  O   LIG    1       -5.454   3.821   5.875  0.00  0.00    -0.383 OA
ATOM     24  C   LIG    1       -6.249   2.920   6.632  0.00  0.00    +0.193 C 
ENDBRANCH  22  23
ENDBRANCH  21  22
ENDBRANCH  20  21
ENDBRANCH  19  20
ENDBRANCH  12  19
ENDBRANCH  10  14
ENDBRANCH   6  10
ENDBRANCH   5   6
ENDBRANCH   1   5
BRANCH   1  25
ATOM     25  C   LIG    1        2.192  -1.763   0.023  0.00  0.00    +0.132 C 
BRANCH  25  26
ATOM     26  O   LIG    1        3.606  -1.797   0.157  0.00  0.00    -0.390 OA
ATOM     27  H   LIG    1        3.990  -1.327  -0.587  0.00  0.00    +0.210 HD
ENDBRANCH  25  26
BRANCH  25  28
ATOM     28  C   LIG    1        1.591  -2.605   1.188  0.00  0.00    +0.046 C 
BRANCH  28  29
ATOM     29  C   LIG    1        2.095  -4.077   1.340  0.00  0.00    +0.080 C 
BRANCH  29  30
ATOM     30  C   LIG    1        1.940  -4.839   0.001  0.00  0.00    +0.216 C 
ATOM     31  O   LIG    1        0.826  -5.209  -0.376  0.00  0.00    -0.276 OA
ATOM     32  N   LIG    1        3.065  -5.036  -0.708  0.00  0.00    -0.314 N 
ATOM     33  H   LIG    1        3.936  -4.713  -0.314  0.00  0.00    +0.149 HD
BRANCH  32  34
ATOM     34  C   LIG    1        3.154  -5.668  -2.030  0.00  0.00    +0.119 C 
BRANCH  34  35
ATOM     35  C   LIG    1        3.034  -4.707  -3.264  0.00  0.00    +0.057 C 
ATOM     36  C   LIG    1        1.551  -4.279  -3.450  0.00  0.00    +0.022 C 
ATOM     37  C   LIG    1        3.459  -5.479  -4.540  0.00  0.00    +0.022 C 
BRANCH  35  38
ATOM     38  C   LIG    1        3.954  -3.453  -3.122  0.00  0.00    +0.218 C 
ATOM     39  O   LIG    1        3.533  -2.315  -3.328  0.00  0.00    -0.275 OA
ATOM     40  N   LIG    1        5.233  -3.651  -2.784  0.00  0.00    -0.329 N 
ATOM     41  H   LIG    1        5.581  -4.585  -2.622  0.00  0.00    +0.145 HD
ATOM     42  H   LIG    1        5.859  -2.865  -2.689  0.00  0.00    +0.145 HD
ENDBRANCH  35  38
ENDBRANCH  34  35
ENDBRANCH  32  34
ENDBRANCH  29  30
BRANCH  29  43
ATOM     43  C   LIG    1        1.428  -4.838   2.540  0.00  0.00    -0.005 C 
ATOM     44  C   LIG    1        1.927  -6.295   2.698  0.00  0.00    +0.008 C 
ATOM     45  C   LIG    1        1.593  -4.103   3.888  0.00  0.00    +0.008 C 
ENDBRANCH  29  43
ENDBRANCH  28  29
ENDBRANCH  25  28
ENDBRANCH   1  25
TORSDOF 21
