REMARK  Name = DB09096
REMARK                            x       y       z     vdW  Elec       q    Type
REMARK                         _______ _______ _______ _____ _____    ______ ____
ROOT
ATOM      1  O   LIG    1       -0.112  -0.002   0.000  0.00  0.00    -0.241 OA
ENDROOT
BRANCH   1   2
ATOM      2  C   LIG    1       -0.610   1.264   0.000  0.00  0.00    +0.387 C 
ATOM      3  O   LIG    1        0.089   2.283   0.000  0.00  0.00    -0.241 OA
BRANCH   2   7
ATOM      4  C   LIG    1       -4.905   1.441   0.000  0.00  0.00    +0.000 A 
ATOM      5  C   LIG    1       -4.155   2.614   0.000  0.00  0.00    +0.001 A 
ATOM      6  C   LIG    1       -2.764   2.545   0.000  0.00  0.00    +0.015 A 
ATOM      7  C   LIG    1       -2.111   1.303   0.000  0.00  0.00    +0.063 A 
ATOM      8  C   LIG    1       -2.885   0.129   0.000  0.00  0.00    +0.015 A 
ATOM      9  C   LIG    1       -4.276   0.200   0.000  0.00  0.00    +0.001 A 
ENDBRANCH   2   7
ENDBRANCH   1   2
BRANCH   1  10
ATOM     10  O   LIG    1        1.372   0.002   0.000  0.00  0.00    -0.241 OA
BRANCH  10  11
ATOM     11  C   LIG    1        1.870  -1.264   0.000  0.00  0.00    +0.387 C 
ATOM     12  O   LIG    1        1.171  -2.283   0.000  0.00  0.00    -0.241 OA
BRANCH  11  13
ATOM     13  C   LIG    1        3.372  -1.303   0.000  0.00  0.00    +0.063 A 
ATOM     14  C   LIG    1        4.024  -2.545   0.000  0.00  0.00    +0.015 A 
ATOM     15  C   LIG    1        5.415  -2.614   0.000  0.00  0.00    +0.001 A 
ATOM     16  C   LIG    1        6.165  -1.441   0.000  0.00  0.00    +0.000 A 
ATOM     17  C   LIG    1        5.535  -0.200   0.000  0.00  0.00    +0.001 A 
ATOM     18  C   LIG    1        4.145  -0.129   0.000  0.00  0.00    +0.015 A 
ENDBRANCH  11  13
ENDBRANCH  10  11
ENDBRANCH   1  10
TORSDOF 5
