REMARK  Name = DB09546
REMARK                            x       y       z     vdW  Elec       q    Type
REMARK                         _______ _______ _______ _____ _____    ______ ____
ROOT
ATOM      1  C   LIG    1       -0.036  -0.054   0.001  0.00  0.00    +0.231 C 
ENDROOT
BRANCH   1   4
ATOM      2  C   LIG    1       -1.146   3.390  -1.215  0.00  0.00    +0.001 A 
ATOM      3  C   LIG    1       -0.714   2.063  -1.213  0.00  0.00    +0.007 A 
ATOM      4  C   LIG    1       -0.497   1.395  -0.003  0.00  0.00    -0.013 A 
ATOM      5  C   LIG    1       -0.723   2.066   1.205  0.00  0.00    +0.021 A 
ATOM      6  C   LIG    1       -1.155   3.393   1.201  0.00  0.00    +0.014 A 
ATOM      7  I   LIG    1       -1.485   4.390   3.010  0.00  0.00    -0.044 I 
ATOM      8  C   LIG    1       -1.366   4.055  -0.009  0.00  0.00    +0.014 A 
ENDBRANCH   1   4
BRANCH   1   9
ATOM      9  N   LIG    1        1.422  -0.105  -0.001  0.00  0.00    -0.272 N 
ATOM     10  H   LIG    1        1.920   0.773   0.003  0.00  0.00    +0.258 HD
BRANCH   9  11
ATOM     11  C   LIG    1        2.137  -1.334  -0.002  0.00  0.00    +0.376 C 
ATOM     12  N   LIG    1        1.616  -2.483  -0.003  0.00  0.00    -0.130 NA
ATOM     13  H   LIG    1        2.301  -3.225  -0.003  0.00  0.00    +0.306 HD
BRANCH  11  14
ATOM     14  N   LIG    1        3.534  -1.136  -0.002  0.00  0.00    -0.289 N 
ATOM     15  H   LIG    1        3.950  -0.216   0.004  0.00  0.00    +0.255 HD
ATOM     16  H   LIG    1        4.187  -1.905   0.000  0.00  0.00    +0.255 HD
ENDBRANCH  11  14
ENDBRANCH   9  11
ENDBRANCH   1   9
TORSDOF 4
