REMARK  Name = DB09039
REMARK                            x       y       z     vdW  Elec       q    Type
REMARK                         _______ _______ _______ _____ _____    ______ ____
ROOT
ATOM      1  C   LIG    1       -1.983  -1.644   0.001  0.00  0.00    +0.120 C 
ENDROOT
BRANCH   1   4
ATOM      2  C   LIG    1        0.092  -0.257  -0.277  0.00  0.00    +0.213 C 
ATOM      3  O   LIG    1       -0.471   0.671  -0.859  0.00  0.00    -0.276 OA
ATOM      4  N   LIG    1       -0.549  -1.352   0.169  0.00  0.00    -0.308 N 
ATOM      5  H   LIG    1       -0.017  -2.045   0.677  0.00  0.00    +0.149 HD
BRANCH   2   6
ATOM      6  C   LIG    1        1.606  -0.202  -0.031  0.00  0.00    +0.096 C 
BRANCH   6   7
ATOM      7  C   LIG    1        2.408   0.017  -1.334  0.00  0.00    +0.009 C 
BRANCH   7   8
ATOM      8  C   LIG    1        3.935   0.083  -1.134  0.00  0.00    +0.000 C 
BRANCH   8   9
ATOM      9  C   LIG    1        4.574  -1.243  -0.677  0.00  0.00    +0.000 C 
BRANCH   9  10
ATOM     10  C   LIG    1        6.110  -1.176  -0.607  0.00  0.00    -0.000 C 
BRANCH  10  11
ATOM     11  C   LIG    1        6.749  -2.504  -0.166  0.00  0.00    -0.003 C 
ATOM     12  C   LIG    1        8.282  -2.443  -0.119  0.00  0.00    +0.004 C 
ENDBRANCH  10  11
ENDBRANCH   9  10
ENDBRANCH   8   9
ENDBRANCH   7   8
ENDBRANCH   6   7
ENDBRANCH   2   6
ENDBRANCH   1   4
BRANCH   1  13
ATOM     13  C   LIG    1       -2.573  -2.321   1.268  0.00  0.00    +0.109 C 
BRANCH  13  14
ATOM     14  N   LIG    1       -2.347  -1.569   2.506  0.00  0.00    -0.300 NA
ATOM     15  C   LIG    1       -3.025  -0.280   2.565  0.00  0.00    +0.084 C 
ATOM     16  C   LIG    1       -3.004   0.122   4.041  0.00  0.00    +0.017 C 
ATOM     17  C   LIG    1       -2.876  -1.206   4.791  0.00  0.00    +0.017 C 
ATOM     18  C   LIG    1       -2.854  -2.261   3.683  0.00  0.00    +0.084 C 
ENDBRANCH  13  14
ENDBRANCH   1  13
BRANCH   1  19
ATOM     19  C   LIG    1       -2.278  -2.482  -1.282  0.00  0.00    +0.166 C 
BRANCH  19  20
ATOM     20  C   LIG    1       -2.045  -1.683  -2.570  0.00  0.00    -0.014 A 
ATOM     21  C   LIG    1       -3.023  -0.772  -2.990  0.00  0.00    +0.055 A 
ATOM     22  C   LIG    1       -2.827  -0.015  -4.144  0.00  0.00    +0.162 A 
ATOM     23  O   LIG    1       -3.800   0.903  -4.484  0.00  0.00    -0.485 OA
ATOM     24  C   LIG    1       -3.717   1.371  -5.834  0.00  0.00    +0.270 C 
ATOM     25  C   LIG    1       -2.252   1.707  -6.203  0.00  0.00    +0.270 C 
ATOM     26  O   LIG    1       -1.418   0.554  -6.048  0.00  0.00    -0.485 OA
ATOM     27  C   LIG    1       -1.638  -0.147  -4.879  0.00  0.00    +0.162 A 
ATOM     28  C   LIG    1       -0.663  -1.056  -4.472  0.00  0.00    +0.050 A 
ATOM     29  C   LIG    1       -0.867  -1.819  -3.321  0.00  0.00    +0.010 A 
ENDBRANCH  19  20
BRANCH  19  30
ATOM     30  O   LIG    1       -1.564  -3.709  -1.249  0.00  0.00    -0.385 OA
ATOM     31  H   LIG    1       -1.886  -4.268  -1.960  0.00  0.00    +0.210 HD
ENDBRANCH  19  30
ENDBRANCH   1  19
TORSDOF 12
