REMARK  Name = DB09101
REMARK                            x       y       z     vdW  Elec       q    Type
REMARK                         _______ _______ _______ _____ _____    ______ ____
ROOT
ATOM      1  N   LIG    1        1.440  -0.221  -0.351  0.00  0.00    -0.340 N 
ATOM      2  C   LIG    1        2.144   0.888  -0.892  0.00  0.00    +0.057 A 
ATOM      3  C   LIG    1        3.549   0.924  -0.744  0.00  0.00    +0.046 A 
ATOM      4  C   LIG    1        4.326  -0.198  -0.091  0.00  0.00    +0.203 A 
ATOM      5  O   LIG    1        5.540  -0.088   0.099  0.00  0.00    -0.286 OA
ATOM      6  C   LIG    1        3.504  -1.403   0.238  0.00  0.00    +0.122 A 
ATOM      7  C   LIG    1        4.243   2.045  -1.220  0.00  0.00    +0.021 A 
ATOM      8  C   LIG    1        3.588   3.103  -1.852  0.00  0.00    -0.001 A 
ATOM      9  C   LIG    1        2.201   3.051  -2.045  0.00  0.00    +0.126 A 
ATOM     10  C   LIG    1        1.496   1.937  -1.563  0.00  0.00    +0.072 A 
ATOM     11  C   LIG    1        2.158  -1.332   0.069  0.00  0.00    +0.105 A 
ENDROOT
BRANCH   6  12
ATOM     12  C   LIG    1        4.053  -2.673   0.724  0.00  0.00    +0.342 C 
ATOM     13  O   LIG    1        3.371  -3.654   1.025  0.00  0.00    -0.245 OA
BRANCH  12  14
ATOM     14  O   LIG    1        5.416  -2.704   0.822  0.00  0.00    -0.477 OA
ATOM     15  H   LIG    1        5.738  -3.548   1.145  0.00  0.00    +0.295 HD
ENDBRANCH  12  14
ENDBRANCH   6  12
BRANCH   9  16
ATOM     16  O   LIG    1        1.597   4.109  -2.704  0.00  0.00    -0.495 OA
ATOM     17  C   LIG    1        0.186   4.116  -2.889  0.00  0.00    +0.277 C 
ENDBRANCH   9  16
BRANCH   1  18
ATOM     18  C   LIG    1       -0.013  -0.194  -0.055  0.00  0.00    +0.115 C 
BRANCH  18  20
ATOM     19  C   LIG    1       -1.841  -0.161   1.788  0.00  0.00    +0.009 C 
ATOM     20  C   LIG    1       -0.335  -0.292   1.474  0.00  0.00    +0.008 C 
ATOM     21  C   LIG    1        0.457   0.738   2.311  0.00  0.00    +0.009 C 
ENDBRANCH  18  20
BRANCH  18  22
ATOM     22  C   LIG    1       -0.811  -1.195  -0.936  0.00  0.00    +0.181 C 
BRANCH  22  23
ATOM     23  O   LIG    1       -0.533  -1.019  -2.312  0.00  0.00    -0.393 OA
ATOM     24  H   LIG    1       -1.038  -1.666  -2.811  0.00  0.00    +0.209 HD
ENDBRANCH  22  23
ENDBRANCH  18  22
ENDBRANCH   1  18
BRANCH   8  25
ATOM     25  C   LIG    1        4.424   4.285  -2.346  0.00  0.00    +0.077 C 
BRANCH  25  26
ATOM     26  C   LIG    1        5.038   5.122  -1.227  0.00  0.00    -0.006 A 
ATOM     27  C   LIG    1        4.226   5.836  -0.333  0.00  0.00    +0.145 A 
ATOM     28  F   LIG    1        2.877   5.792  -0.452  0.00  0.00    -0.204 F 
ATOM     29  C   LIG    1        4.806   6.598   0.686  0.00  0.00    +0.076 A 
ATOM     30 CL   LIG    1        3.817   7.474   1.799  0.00  0.00    -0.081 Cl
ATOM     31  C   LIG    1        6.195   6.656   0.810  0.00  0.00    +0.023 A 
ATOM     32  C   LIG    1        7.005   5.956  -0.082  0.00  0.00    +0.002 A 
ATOM     33  C   LIG    1        6.429   5.192  -1.097  0.00  0.00    +0.007 A 
ENDBRANCH  25  26
ENDBRANCH   8  25
TORSDOF 9
