REMARK  Name = DB09205
REMARK                            x       y       z     vdW  Elec       q    Type
REMARK                         _______ _______ _______ _____ _____    ______ ____
ROOT
ATOM      1  C   LIG    1       -0.093   0.008  -0.432  0.00  0.00    +0.124 A 
ATOM      2  C   LIG    1       -0.761  -1.229  -0.441  0.00  0.00    +0.053 A 
ATOM      3  C   LIG    1       -2.151  -1.302  -0.345  0.00  0.00    -0.005 A 
ATOM      4  C   LIG    1       -2.899  -0.123  -0.243  0.00  0.00    +0.135 A 
ATOM      5  C   LIG    1       -2.242   1.110  -0.223  0.00  0.00    +0.054 A 
ATOM      6  C   LIG    1       -2.834  -2.663  -0.345  0.00  0.00    +0.047 C 
ATOM      7  C   LIG    1       -0.846   1.192  -0.322  0.00  0.00    +0.000 A 
ENDROOT
BRANCH   7   8
ATOM      8  C   LIG    1       -0.131   2.558  -0.306  0.00  0.00    +0.017 C 
ATOM      9  C   LIG    1       -1.007   3.758  -0.730  0.00  0.00    +0.012 C 
ATOM     10  C   LIG    1        0.539   2.826   1.055  0.00  0.00    +0.012 C 
ENDBRANCH   7   8
BRANCH   1  11
ATOM     11  O   LIG    1        1.283   0.128  -0.527  0.00  0.00    -0.490 OA
BRANCH  11  12
ATOM     12  C   LIG    1        2.095  -1.039  -0.626  0.00  0.00    +0.244 C 
BRANCH  12  13
ATOM     13  C   LIG    1        3.568  -0.597  -0.708  0.00  0.00    +0.124 C 
BRANCH  13  14
ATOM     14  N   LIG    1        4.481  -1.690  -1.063  0.00  0.00    -0.305 NA
ATOM     15  C   LIG    1        5.819  -1.156  -1.297  0.00  0.00    +0.104 C 
ATOM     16  C   LIG    1        4.549  -2.717  -0.025  0.00  0.00    +0.104 C 
ENDBRANCH  13  14
ENDBRANCH  12  13
ENDBRANCH  11  12
ENDBRANCH   1  11
BRANCH   4  17
ATOM     17  O   LIG    1       -4.272  -0.161  -0.120  0.00  0.00    -0.426 OA
BRANCH  17  18
ATOM     18  C   LIG    1       -5.047  -0.005  -1.226  0.00  0.00    +0.309 C 
ATOM     19  O   LIG    1       -4.660   0.171  -2.383  0.00  0.00    -0.251 OA
ATOM     20  C   LIG    1       -6.533  -0.075  -0.895  0.00  0.00    +0.136 C 
ENDBRANCH  17  18
ENDBRANCH   4  17
TORSDOF 7
