REMARK  Name = DB09449
REMARK                            x       y       z     vdW  Elec       q    Type
REMARK                         _______ _______ _______ _____ _____    ______ ____
ROOT
ATOM      1  O   LIG    1       -0.448   1.442  -0.005  0.00  0.00    -0.228 OA
ATOM      2  P   LIG    1       -0.002  -0.002  -0.003  0.00  0.00    +0.470 P 
ENDROOT
BRANCH   2   3
ATOM      3  O   LIG    1       -0.323  -0.659   1.545  0.00  0.00    -0.303 OA
ATOM      4  H   LIG    1       -0.062  -1.574   1.663  0.00  0.00    +0.222 HD
ENDBRANCH   2   3
BRANCH   2   5
ATOM      5  O   LIG    1        1.710  -0.032   0.031  0.00  0.00    -0.303 OA
ATOM      6  H   LIG    1        2.103  -0.907   0.051  0.00  0.00    +0.222 HD
ENDBRANCH   2   5
BRANCH   2   7
ATOM      7  O   LIG    1       -0.458  -1.011  -1.033  0.00  0.00    -0.303 OA
ATOM      8  H   LIG    1       -0.287  -0.664  -1.923  0.00  0.00    +0.222 HD
ENDBRANCH   2   7
TORSDOF 3
