REMARK  Name = DB09351
REMARK                            x       y       z     vdW  Elec       q    Type
REMARK                         _______ _______ _______ _____ _____    ______ ____
ROOT
ATOM      1  C   LIG    1       -1.670   3.852   0.007  0.00  0.00    -0.045 A 
ATOM      2  C   LIG    1       -0.282   3.736  -0.085  0.00  0.00    +0.007 A 
ATOM      3  C   LIG    1        0.310   2.477  -0.137  0.00  0.00    +0.046 A 
ATOM      4  C   LIG    1       -0.483   1.320  -0.097  0.00  0.00    +0.121 A 
ATOM      5  C   LIG    1       -1.870   1.447  -0.005  0.00  0.00    +0.046 A 
ATOM      6  C   LIG    1       -2.464   2.705   0.047  0.00  0.00    +0.007 A 
ENDROOT
BRANCH   1   7
ATOM      7  C   LIG    1       -2.319   5.228   0.067  0.00  0.00    +0.063 C 
BRANCH   7   8
ATOM      8  C   LIG    1       -2.597   5.706   1.502  0.00  0.00    +0.164 C 
BRANCH   8   9
ATOM      9  O   LIG    1       -1.373   5.817   2.218  0.00  0.00    -0.379 OA
BRANCH   9  10
ATOM     10  C   LIG    1       -1.535   6.244   3.563  0.00  0.00    +0.163 C 
BRANCH  10  12
ATOM     11  C   LIG    1        0.147   7.337   5.273  0.00  0.00    +0.006 C 
ATOM     12  C   LIG    1       -0.150   6.298   4.223  0.00  0.00    +0.015 C 
ATOM     13  C   LIG    1        0.794   7.426   3.900  0.00  0.00    +0.006 C 
ENDBRANCH  10  12
ENDBRANCH   9  10
ENDBRANCH   8   9
ENDBRANCH   7   8
ENDBRANCH   1   7
BRANCH   4  14
ATOM     14  O   LIG    1        0.015   0.032  -0.141  0.00  0.00    -0.489 OA
BRANCH  14  15
ATOM     15  C   LIG    1        1.423  -0.172  -0.239  0.00  0.00    +0.261 C 
BRANCH  15  16
ATOM     16  C   LIG    1        1.723  -1.684  -0.228  0.00  0.00    +0.166 C 
BRANCH  16  17
ATOM     17  O   LIG    1        3.092  -1.865  -0.547  0.00  0.00    -0.387 OA
ATOM     18  H   LIG    1        3.622  -1.504   0.167  0.00  0.00    +0.210 HD
ENDBRANCH  16  17
BRANCH  16  19
ATOM     19  C   LIG    1        1.411  -2.329   1.141  0.00  0.00    +0.115 C 
BRANCH  19  20
ATOM     20  N   LIG    1        1.561  -3.782   1.088  0.00  0.00    -0.311 NA
ATOM     21  H   LIG    1        1.051  -4.160   0.302  0.00  0.00    +0.122 HD
BRANCH  20  22
ATOM     22  C   LIG    1        1.175  -4.467   2.320  0.00  0.00    +0.048 C 
ATOM     23  C   LIG    1        1.129  -5.974   2.017  0.00  0.00    +0.023 C 
ATOM     24  C   LIG    1        2.148  -4.157   3.476  0.00  0.00    +0.023 C 
ENDBRANCH  20  22
ENDBRANCH  19  20
ENDBRANCH  16  19
ENDBRANCH  15  16
ENDBRANCH  14  15
ENDBRANCH   4  14
TORSDOF 12
