REMARK  Name = DB09102
REMARK                            x       y       z     vdW  Elec       q    Type
REMARK                         _______ _______ _______ _____ _____    ______ ____
ROOT
ATOM      1  C   LIG    1        4.119   0.187  -0.273  0.00  0.00    -0.000 A 
ATOM      2  C   LIG    1        3.551  -0.704   0.642  0.00  0.00    +0.010 A 
ATOM      3  C   LIG    1        2.168  -0.773   0.787  0.00  0.00    +0.009 A 
ATOM      4  C   LIG    1        1.327   0.044   0.022  0.00  0.00    -0.018 A 
ATOM      5  C   LIG    1        1.904   0.937  -0.889  0.00  0.00    +0.009 A 
ATOM      6  C   LIG    1        3.287   1.010  -1.035  0.00  0.00    +0.010 A 
ENDROOT
BRANCH   1  10
ATOM      7  C   LIG    1        7.757  -0.213  -0.288  0.00  0.00    +0.128 A 
ATOM      8  N   LIG    1        7.708   0.868  -1.033  0.00  0.00    -0.238 NA
ATOM      9  C   LIG    1        6.423   1.166  -1.126  0.00  0.00    +0.139 A 
ATOM     10  C   LIG    1        5.600   0.270  -0.446  0.00  0.00    +0.066 A 
ATOM     11  N   LIG    1        6.502  -0.611   0.092  0.00  0.00    -0.340 N 
ATOM     12  H   LIG    1        6.282  -1.421   0.654  0.00  0.00    +0.167 HD
BRANCH   7  19
ATOM     13  O   LIG    1        7.600  -3.446  -0.041  0.00  0.00    -0.274 OA
ATOM     14  C   LIG    1        8.585  -3.288  -0.768  0.00  0.00    +0.237 C 
ATOM     15  N   LIG    1        9.312  -2.140  -0.787  0.00  0.00    -0.290 N 
ATOM     16  C   LIG    1       10.546  -1.954  -1.564  0.00  0.00    +0.108 C 
ATOM     17  C   LIG    1       10.880  -0.481  -1.356  0.00  0.00    +0.021 C 
ATOM     18  C   LIG    1       10.319  -0.176   0.019  0.00  0.00    +0.032 C 
ATOM     19  C   LIG    1        9.017  -0.990   0.094  0.00  0.00    +0.142 C 
BRANCH  14  20
ATOM     20  C   LIG    1        8.960  -4.459  -1.733  0.00  0.00    +0.165 C 
BRANCH  20  21
ATOM     21  N   LIG    1        9.223  -5.715  -1.004  0.00  0.00    -0.270 N 
ATOM     22  H   LIG    1        8.639  -6.515  -1.199  0.00  0.00    +0.153 HD
ATOM     23  C   LIG    1       10.307  -5.856  -0.142  0.00  0.00    +0.401 C 
ATOM     24  O   LIG    1       11.156  -4.999   0.114  0.00  0.00    -0.226 OA
BRANCH  23  25
ATOM     25  O   LIG    1       10.293  -7.102   0.370  0.00  0.00    -0.454 OA
ATOM     26  C   LIG    1       11.296  -7.524   1.283  0.00  0.00    +0.282 C 
ENDBRANCH  23  25
ENDBRANCH  20  21
BRANCH  20  27
ATOM     27  C   LIG    1        7.784  -4.661  -2.752  0.00  0.00    +0.012 C 
ATOM     28  C   LIG    1        7.371  -3.385  -3.525  0.00  0.00    +0.009 C 
ATOM     29  C   LIG    1        8.082  -5.785  -3.766  0.00  0.00    +0.009 C 
ENDBRANCH  20  27
ENDBRANCH  14  20
ENDBRANCH   7  19
ENDBRANCH   1  10
BRANCH   4  30
ATOM     30  C   LIG    1       -0.155  -0.037   0.174  0.00  0.00    -0.018 A 
ATOM     31  C   LIG    1       -0.940   1.122   0.169  0.00  0.00    +0.009 A 
ATOM     32  C   LIG    1       -2.323   1.046   0.311  0.00  0.00    +0.010 A 
ATOM     33  C   LIG    1       -2.947  -0.195   0.463  0.00  0.00    -0.000 A 
ATOM     34  C   LIG    1       -2.172  -1.356   0.470  0.00  0.00    +0.010 A 
ATOM     35  C   LIG    1       -0.789  -1.277   0.326  0.00  0.00    +0.009 A 
BRANCH  33  36
ATOM     36  C   LIG    1       -4.428  -0.296   0.620  0.00  0.00    +0.066 A 
ATOM     37  C   LIG    1       -5.266  -1.332   1.030  0.00  0.00    +0.139 A 
ATOM     38  N   LIG    1       -6.546  -1.001   1.026  0.00  0.00    -0.238 NA
ATOM     39  C   LIG    1       -6.575   0.250   0.625  0.00  0.00    +0.128 A 
ATOM     40  N   LIG    1       -5.314   0.720   0.370  0.00  0.00    -0.340 N 
ATOM     41  H   LIG    1       -5.082   1.645   0.037  0.00  0.00    +0.167 HD
BRANCH  39  42
ATOM     42  C   LIG    1       -7.829   1.097   0.406  0.00  0.00    +0.142 C 
ATOM     43  C   LIG    1       -9.061   0.634   1.202  0.00  0.00    +0.032 C 
ATOM     44  C   LIG    1       -9.824  -0.253   0.239  0.00  0.00    +0.021 C 
ATOM     45  C   LIG    1       -9.638   0.433  -1.111  0.00  0.00    +0.108 C 
ATOM     46  N   LIG    1       -8.328   1.088  -0.985  0.00  0.00    -0.290 N 
ATOM     47  C   LIG    1       -7.691   1.730  -1.999  0.00  0.00    +0.237 C 
ATOM     48  O   LIG    1       -6.633   2.346  -1.843  0.00  0.00    -0.274 OA
BRANCH  47  49
ATOM     49  C   LIG    1       -8.274   1.661  -3.447  0.00  0.00    +0.165 C 
BRANCH  49  50
ATOM     50  N   LIG    1       -8.524   3.003  -4.005  0.00  0.00    -0.270 N 
ATOM     51  H   LIG    1       -8.013   3.286  -4.828  0.00  0.00    +0.153 HD
ATOM     52  C   LIG    1       -9.507   3.844  -3.490  0.00  0.00    +0.401 C 
ATOM     53  O   LIG    1      -10.267   3.593  -2.551  0.00  0.00    -0.226 OA
BRANCH  52  54
ATOM     54  O   LIG    1       -9.508   4.991  -4.197  0.00  0.00    -0.454 OA
ATOM     55  C   LIG    1      -10.424   6.032  -3.888  0.00  0.00    +0.282 C 
ENDBRANCH  52  54
ENDBRANCH  49  50
BRANCH  49  56
ATOM     56  C   LIG    1       -7.262   0.877  -4.354  0.00  0.00    +0.012 C 
ATOM     57  C   LIG    1       -6.874  -0.525  -3.826  0.00  0.00    +0.009 C 
ATOM     58  C   LIG    1       -7.769   0.741  -5.805  0.00  0.00    +0.009 C 
ENDBRANCH  49  56
ENDBRANCH  47  49
ENDBRANCH  39  42
ENDBRANCH  33  36
ENDBRANCH   4  30
TORSDOF 13
