REMARK  Name = DB09232
REMARK                            x       y       z     vdW  Elec       q    Type
REMARK                         _______ _______ _______ _____ _____    ______ ____
ROOT
ATOM      1  C   LIG    1       -0.553   1.160  -0.055  0.00  0.00    +0.016 C 
ATOM      2  C   LIG    1        0.044  -0.060   0.074  0.00  0.00    +0.065 C 
ATOM      3  C   LIG    1       -0.795  -1.347   0.348  0.00  0.00    +0.096 C 
ATOM      4  C   LIG    1       -2.321  -1.074   0.154  0.00  0.00    +0.065 C 
ATOM      5  C   LIG    1       -2.801   0.196   0.019  0.00  0.00    +0.016 C 
ATOM      6  C   LIG    1       -4.249   0.644  -0.176  0.00  0.00    +0.061 C 
ATOM      7  N   LIG    1       -1.927   1.255  -0.065  0.00  0.00    -0.321 N 
ATOM      8  H   LIG    1       -2.325   2.183  -0.064  0.00  0.00    +0.152 HD
ATOM      9  C   LIG    1        0.106   2.513  -0.322  0.00  0.00    +0.061 C 
ENDROOT
BRANCH   3  10
ATOM     10  C   LIG    1       -0.475  -1.976   1.722  0.00  0.00    -0.033 A 
ATOM     11  C   LIG    1       -0.876  -1.329   2.898  0.00  0.00    +0.037 A 
ATOM     12  C   LIG    1       -0.609  -1.879   4.161  0.00  0.00    +0.122 A 
ATOM     13  C   LIG    1        0.073  -3.103   4.226  0.00  0.00    +0.032 A 
ATOM     14  C   LIG    1        0.476  -3.757   3.063  0.00  0.00    +0.003 A 
ATOM     15  C   LIG    1        0.204  -3.195   1.819  0.00  0.00    +0.005 A 
BRANCH  12  16
ATOM     16  N   LIG    1       -1.037  -1.182   5.398  0.00  0.00    +0.006 N 
ATOM     17  O   LIG    1       -1.648  -0.122   5.295  0.00  0.00    -0.130 OA
BRANCH  16  18
ATOM     18  O   LIG    1       -0.764  -1.689   6.483  0.00  0.00    -0.396 OA
ATOM     19  H   LIG    1       -0.296  -2.500   6.516  0.00  0.00    +0.329 HD
ENDBRANCH  16  18
ENDBRANCH  12  16
ENDBRANCH   3  10
BRANCH   4  20
ATOM     20  C   LIG    1       -3.226  -2.255   0.261  0.00  0.00    +0.338 C 
ATOM     21  O   LIG    1       -4.429  -2.184   0.522  0.00  0.00    -0.245 OA
BRANCH  20  22
ATOM     22  O   LIG    1       -2.586  -3.433   0.067  0.00  0.00    -0.457 OA
BRANCH  22  23
ATOM     23  C   LIG    1       -3.255  -4.684   0.188  0.00  0.00    +0.260 C 
BRANCH  23  24
ATOM     24  C   LIG    1       -2.312  -5.861  -0.018  0.00  0.00    +0.014 C 
ATOM     25  C   LIG    1       -1.030  -5.787  -0.434  0.00  0.00    +0.007 C 
BRANCH  25  26
ATOM     26  C   LIG    1       -0.077  -6.904  -0.609  0.00  0.00    -0.025 A 
ATOM     27  C   LIG    1       -0.388  -8.221  -0.246  0.00  0.00    +0.008 A 
ATOM     28  C   LIG    1        0.546  -9.239  -0.425  0.00  0.00    +0.001 A 
ATOM     29  C   LIG    1        1.794  -8.944  -0.967  0.00  0.00    +0.000 A 
ATOM     30  C   LIG    1        2.115  -7.640  -1.333  0.00  0.00    +0.001 A 
ATOM     31  C   LIG    1        1.181  -6.623  -1.154  0.00  0.00    +0.008 A 
ENDBRANCH  25  26
ENDBRANCH  23  24
ENDBRANCH  22  23
ENDBRANCH  20  22
ENDBRANCH   4  20
BRANCH   2  32
ATOM     32  C   LIG    1        1.526  -0.215   0.090  0.00  0.00    +0.338 C 
ATOM     33  O   LIG    1        2.314   0.708   0.311  0.00  0.00    -0.245 OA
BRANCH  32  34
ATOM     34  O   LIG    1        1.932  -1.488  -0.146  0.00  0.00    -0.459 OA
BRANCH  34  35
ATOM     35  C   LIG    1        3.309  -1.848  -0.135  0.00  0.00    +0.260 C 
BRANCH  35  36
ATOM     36  C   LIG    1        3.397  -3.350  -0.433  0.00  0.00    +0.200 C 
BRANCH  36  37
ATOM     37  O   LIG    1        4.760  -3.745  -0.422  0.00  0.00    -0.380 OA
ATOM     38  C   LIG    1        4.947  -5.124  -0.703  0.00  0.00    +0.194 C 
ENDBRANCH  36  37
ENDBRANCH  35  36
ENDBRANCH  34  35
ENDBRANCH  32  34
ENDBRANCH   2  32
TORSDOF 13
