REMARK  Name = DB09502
REMARK                            x       y       z     vdW  Elec       q    Type
REMARK                         _______ _______ _______ _____ _____    ______ ____
ROOT
ATOM      1  C   LIG    1        1.430   0.103   0.015  0.00  0.00    +0.177 C 
ENDROOT
BRANCH   1   2
ATOM      2  O   LIG    1        1.995   0.733   1.154  0.00  0.00    -0.386 OA
ATOM      3  H   LIG    1        1.605   1.606   1.243  0.00  0.00    +0.210 HD
ENDBRANCH   1   2
BRANCH   1   4
ATOM      4  C   LIG    1       -0.126   0.056   0.124  0.00  0.00    +0.186 C 
BRANCH   4   5
ATOM      5  C   LIG    1       -0.653  -0.624   1.419  0.00  0.00    +0.259 C 
ATOM      6  F   LIG    1       -0.393   0.065   2.534  0.00  0.00    -0.235 F 
BRANCH   5   7
ATOM      7  C   LIG    1       -2.156  -0.943   1.359  0.00  0.00    +0.262 C 
ATOM      8  O   LIG    1       -2.959  -0.472   2.164  0.00  0.00    -0.298 OA
ENDBRANCH   5   7
ENDBRANCH   4   5
BRANCH   4   9
ATOM      9  O   LIG    1       -0.670   1.362  -0.008  0.00  0.00    -0.386 OA
ATOM     10  H   LIG    1       -0.382   1.729  -0.847  0.00  0.00    +0.210 HD
ENDBRANCH   4   9
ENDBRANCH   1   4
BRANCH   1  11
ATOM     11  C   LIG    1        1.989   0.777  -1.274  0.00  0.00    +0.171 C 
BRANCH  11  12
ATOM     12  O   LIG    1        1.394   0.187  -2.417  0.00  0.00    -0.387 OA
ATOM     13  H   LIG    1        1.786   0.584  -3.199  0.00  0.00    +0.210 HD
ENDBRANCH  11  12
BRANCH  11  14
ATOM     14  C   LIG    1        3.527   0.665  -1.415  0.00  0.00    +0.189 C 
BRANCH  14  15
ATOM     15  O   LIG    1        4.005   1.463  -2.481  0.00  0.00    -0.392 OA
ATOM     16  H   LIG    1        4.960   1.371  -2.528  0.00  0.00    +0.210 HD
ENDBRANCH  14  15
ENDBRANCH  11  14
ENDBRANCH   1  11
TORSDOF 9
