REMARK  Name = DB09271
REMARK                            x       y       z     vdW  Elec       q    Type
REMARK                         _______ _______ _______ _____ _____    ______ ____
ROOT
ATOM      1  C   LIG    1       -1.603  -4.342  -0.275  0.00  0.00    -0.091 C 
ATOM      2  N   LIG    1       -1.303  -2.819  -0.092  0.00  0.00    +0.386 N 
ATOM      3  C   LIG    1       -0.451  -2.195  -1.241  0.00  0.00    -0.030 C 
ATOM      4  C   LIG    1        1.012  -2.647  -1.004  0.00  0.00    +0.133 C 
ATOM      5  O   LIG    1        1.228  -3.933  -0.490  0.00  0.00    -0.372 OA
ATOM      6  C   LIG    1        1.126  -2.896   0.456  0.00  0.00    +0.133 C 
ATOM      7  C   LIG    1       -0.503  -0.642  -1.135  0.00  0.00    +0.032 C 
ATOM      8  C   LIG    1       -0.107  -0.064   0.274  0.00  0.00    +0.174 C 
ATOM      9  C   LIG    1       -0.298  -1.069   1.461  0.00  0.00    +0.032 C 
ATOM     10  C   LIG    1       -0.272  -2.571   1.052  0.00  0.00    -0.030 C 
ENDROOT
BRANCH   8  11
ATOM     11  O   LIG    1        1.266   0.333   0.282  0.00  0.00    -0.461 OA
BRANCH  11  12
ATOM     12  C   LIG    1        1.685   1.491  -0.279  0.00  0.00    +0.317 C 
ATOM     13  O   LIG    1        0.961   2.334  -0.813  0.00  0.00    -0.250 OA
BRANCH  12  14
ATOM     14  C   LIG    1        3.216   1.655  -0.182  0.00  0.00    +0.153 C 
BRANCH  14  15
ATOM     15  C   LIG    1        3.852   0.740  -1.236  0.00  0.00    -0.032 A 
ATOM     16  C   LIG    1        3.995   1.150  -2.569  0.00  0.00    +0.004 A 
ATOM     17  C   LIG    1        4.561   0.292  -3.507  0.00  0.00    +0.000 A 
ATOM     18  C   LIG    1        4.982  -0.978  -3.117  0.00  0.00    +0.000 A 
ATOM     19  C   LIG    1        4.841  -1.397  -1.797  0.00  0.00    +0.000 A 
ATOM     20  C   LIG    1        4.276  -0.538  -0.858  0.00  0.00    +0.004 A 
ENDBRANCH  14  15
BRANCH  14  21
ATOM     21  C   LIG    1        3.704   3.126  -0.264  0.00  0.00    +0.175 C 
BRANCH  21  22
ATOM     22  O   LIG    1        3.281   3.872   0.860  0.00  0.00    -0.394 OA
ATOM     23  H   LIG    1        3.600   4.772   0.768  0.00  0.00    +0.209 HD
ENDBRANCH  21  22
ENDBRANCH  14  21
ENDBRANCH  12  14
ENDBRANCH  11  12
ENDBRANCH   8  11
BRANCH   2  24
ATOM     24  C   LIG    1       -2.712  -2.158   0.128  0.00  0.00    -0.071 C 
BRANCH  24  25
ATOM     25  C   LIG    1       -3.653  -2.311  -1.090  0.00  0.00    -0.027 C 
ATOM     26  C   LIG    1       -4.616  -3.470  -1.189  0.00  0.00    +0.002 C 
ATOM     27  C   LIG    1       -5.130  -2.073  -0.903  0.00  0.00    +0.002 C 
ENDBRANCH  24  25
ENDBRANCH   2  24
TORSDOF 8
