REMARK  Name = DB09319
REMARK                            x       y       z     vdW  Elec       q    Type
REMARK                         _______ _______ _______ _____ _____    ______ ____
ROOT
ATOM      1  C   LIG    1        3.521   0.093  -1.073  0.00  0.00    +0.213 C 
ENDROOT
BRANCH   1   2
ATOM      2  C   LIG    1        3.905  -1.395  -1.174  0.00  0.00    -0.025 A 
ATOM      3  C   LIG    1        4.740  -1.953  -0.199  0.00  0.00    +0.005 A 
ATOM      4  C   LIG    1        5.107  -3.294  -0.272  0.00  0.00    +0.000 A 
ATOM      5  C   LIG    1        4.639  -4.082  -1.321  0.00  0.00    +0.000 A 
ATOM      6  C   LIG    1        3.809  -3.540  -2.299  0.00  0.00    +0.000 A 
ATOM      7  C   LIG    1        3.443  -2.199  -2.227  0.00  0.00    +0.005 A 
ENDBRANCH   1   2
BRANCH   1  10
ATOM      8  N   LIG    1        1.321  -0.311  -0.064  0.00  0.00    -0.301 N 
ATOM      9  H   LIG    1        1.849  -1.010   0.439  0.00  0.00    +0.150 HD
ATOM     10  C   LIG    1        1.983   0.299  -1.069  0.00  0.00    +0.232 C 
ATOM     11  O   LIG    1        1.421   0.971  -1.935  0.00  0.00    -0.275 OA
BRANCH   8  20
ATOM     12  N   LIG    1       -1.451   0.796   1.408  0.00  0.00    -0.271 N 
ATOM     13  CA  LIG    1       -1.589   1.858   2.420  0.00  0.00    +0.201 C 
ATOM     14  C   LIG    1       -0.841   1.341   3.699  0.00  0.00    +0.042 C 
ATOM     15  C   LIG    1       -1.710   0.386   4.568  0.00  0.00    +0.025 C 
ATOM     16  C   LIG    1       -0.312   2.458   4.622  0.00  0.00    +0.025 C 
ATOM     17  S   LIG    1        0.503   0.308   3.037  0.00  0.00    -0.127 S 
ATOM     18  C   LIG    1       -0.934   1.001   0.124  0.00  0.00    +0.240 C 
ATOM     19  O   LIG    1       -1.046   1.922  -0.683  0.00  0.00    -0.273 OA
ATOM     20  CA  LIG    1       -0.123  -0.325   0.218  0.00  0.00    +0.190 C 
ATOM     21  C   LIG    1       -0.543  -0.342   1.706  0.00  0.00    +0.165 C 
BRANCH  13  22
ATOM     22  C   LIG    1       -3.028   2.386   2.663  0.00  0.00    +0.327 C 
ATOM     23  OXT LIG    1       -3.317   3.116   3.587  0.00  0.00    -0.249 OA
BRANCH  22  24
ATOM     24  O   LIG    1       -3.912   1.947   1.718  0.00  0.00    -0.479 OA
ATOM     25  H   LIG    1       -4.799   2.282   1.863  0.00  0.00    +0.295 HD
ENDBRANCH  22  24
ENDBRANCH  13  22
ENDBRANCH   8  20
ENDBRANCH   1  10
BRANCH   1  26
ATOM     26  C   LIG    1        4.323   0.865  -2.149  0.00  0.00    +0.329 C 
ATOM     27  O   LIG    1        4.024   0.813  -3.347  0.00  0.00    -0.249 OA
BRANCH  26  28
ATOM     28  O   LIG    1        5.378   1.546  -1.616  0.00  0.00    -0.425 OA
BRANCH  28  29
ATOM     29  C   LIG    1        6.244   2.224  -2.444  0.00  0.00    +0.132 A 
ATOM     30  C   LIG    1        6.217   3.622  -2.470  0.00  0.00    +0.046 A 
ATOM     31  C   LIG    1        7.096   4.328  -3.292  0.00  0.00    +0.007 A 
ATOM     32  C   LIG    1        8.028   3.638  -4.069  0.00  0.00    -0.044 A 
ATOM     33  C   LIG    1        9.023   4.180  -5.071  0.00  0.00    +0.036 C 
ATOM     34  C   LIG    1        9.858   2.959  -5.468  0.00  0.00    +0.009 C 
ATOM     35  C   LIG    1        9.092   1.713  -5.018  0.00  0.00    +0.036 C 
ATOM     36  C   LIG    1        8.069   2.242  -4.038  0.00  0.00    -0.041 A 
ATOM     37  C   LIG    1        7.175   1.535  -3.232  0.00  0.00    +0.050 A 
ENDBRANCH  28  29
ENDBRANCH  26  28
ENDBRANCH   1  26
TORSDOF 8
