REMARK  Name = DB09487
REMARK                            x       y       z     vdW  Elec       q    Type
REMARK                         _______ _______ _______ _____ _____    ______ ____
ROOT
ATOM      1  C   LIG    1        1.531   0.445  -1.451  0.00  0.00    +0.192 C 
ENDROOT
BRANCH   1   4
ATOM      2  N   LIG    1        3.554   1.424  -0.349  0.00  0.00    -0.272 N 
ATOM      3  C   LIG    1        4.408   0.660  -1.265  0.00  0.00    +0.138 C 
ATOM      4  C   LIG    1        2.192   1.353  -0.385  0.00  0.00    +0.228 C 
ATOM      5  O   LIG    1        1.481   1.992   0.399  0.00  0.00    -0.275 OA
BRANCH   2   9
ATOM      6  C   LIG    1        5.194   4.429   1.104  0.00  0.00    +0.065 A 
ATOM      7  C   LIG    1        4.527   3.588   0.194  0.00  0.00    +0.049 A 
ATOM      8  I   LIG    1        4.000   4.280  -1.736  0.00  0.00    -0.041 I 
ATOM      9  C   LIG    1        4.210   2.271   0.568  0.00  0.00    +0.064 A 
ATOM     10  C   LIG    1        4.561   1.785   1.838  0.00  0.00    +0.049 A 
ATOM     11  I   LIG    1        4.095  -0.214   2.351  0.00  0.00    -0.041 I 
ATOM     12  C   LIG    1        5.222   2.629   2.749  0.00  0.00    +0.065 A 
ATOM     13  C   LIG    1        5.541   3.952   2.384  0.00  0.00    +0.040 A 
ATOM     14  I   LIG    1        6.547   5.220   3.755  0.00  0.00    -0.042 I 
BRANCH   6  15
ATOM     15  C   LIG    1        5.544   5.835   0.706  0.00  0.00    +0.247 C 
ATOM     16  O   LIG    1        6.627   6.089   0.177  0.00  0.00    -0.270 OA
ATOM     17  N   LIG    1        4.596   6.747   0.985  0.00  0.00    -0.304 N 
ATOM     18  H   LIG    1        3.722   6.426   1.375  0.00  0.00    +0.149 HD
BRANCH  17  19
ATOM     19  CA  LIG    1        4.697   8.192   0.737  0.00  0.00    +0.129 C 
BRANCH  19  20
ATOM     20  C   LIG    1        3.281   8.814   0.624  0.00  0.00    +0.180 C 
BRANCH  20  21
ATOM     21  O   LIG    1        2.527   8.749   1.820  0.00  0.00    -0.393 OA
ATOM     22  H   LIG    1        1.659   9.123   1.655  0.00  0.00    +0.209 HD
ENDBRANCH  20  21
ENDBRANCH  19  20
BRANCH  19  23
ATOM     23  C   LIG    1        5.661   8.901   1.745  0.00  0.00    +0.162 C 
BRANCH  23  24
ATOM     24  O   LIG    1        5.182   8.825   3.076  0.00  0.00    -0.388 OA
ATOM     25  H   LIG    1        4.977   7.907   3.272  0.00  0.00    +0.210 HD
ENDBRANCH  23  24
BRANCH  23  26
ATOM     26  C   LIG    1        5.981  10.373   1.403  0.00  0.00    +0.189 C 
BRANCH  26  27
ATOM     27  O   LIG    1        6.662  10.485   0.169  0.00  0.00    -0.392 OA
ATOM     28  H   LIG    1        6.867  11.410   0.016  0.00  0.00    +0.210 HD
ENDBRANCH  26  27
ENDBRANCH  23  26
ENDBRANCH  19  23
ENDBRANCH  17  19
ENDBRANCH   6  15
BRANCH  12  29
ATOM     29  C   LIG    1        5.591   2.116   4.112  0.00  0.00    +0.247 C 
ATOM     30  O   LIG    1        4.843   2.285   5.075  0.00  0.00    -0.270 OA
ATOM     31  N   LIG    1        6.781   1.491   4.168  0.00  0.00    -0.304 N 
ATOM     32  H   LIG    1        7.288   1.352   3.306  0.00  0.00    +0.149 HD
BRANCH  31  33
ATOM     33  CA  LIG    1        7.402   0.937   5.379  0.00  0.00    +0.129 C 
BRANCH  33  34
ATOM     34  C   LIG    1        8.396  -0.205   5.039  0.00  0.00    +0.180 C 
BRANCH  34  35
ATOM     35  O   LIG    1        7.827  -1.163   4.165  0.00  0.00    -0.393 OA
ATOM     36  H   LIG    1        7.115  -1.615   4.625  0.00  0.00    +0.209 HD
ENDBRANCH  34  35
ENDBRANCH  33  34
BRANCH  33  37
ATOM     37  C   LIG    1        8.012   2.052   6.286  0.00  0.00    +0.162 C 
BRANCH  37  38
ATOM     38  O   LIG    1        9.158   2.621   5.677  0.00  0.00    -0.388 OA
ATOM     39  H   LIG    1        9.828   1.939   5.584  0.00  0.00    +0.210 HD
ENDBRANCH  37  38
BRANCH  37  40
ATOM     40  C   LIG    1        8.367   1.597   7.719  0.00  0.00    +0.189 C 
BRANCH  40  41
ATOM     41  O   LIG    1        7.211   1.268   8.463  0.00  0.00    -0.392 OA
ATOM     42  H   LIG    1        6.833   0.461   8.106  0.00  0.00    +0.210 HD
ENDBRANCH  40  41
ENDBRANCH  37  40
ENDBRANCH  33  37
ENDBRANCH  31  33
ENDBRANCH  12  29
ENDBRANCH   2   9
ENDBRANCH   1   4
BRANCH   1  43
ATOM     43  C   LIG    1       -0.007   0.278  -1.372  0.00  0.00    +0.228 C 
ATOM     44  O   LIG    1       -0.698   1.252  -1.682  0.00  0.00    -0.275 OA
ATOM     45  N   LIG    1       -0.560  -0.904  -0.970  0.00  0.00    -0.272 N 
ATOM     46  C   LIG    1       -2.018  -1.056  -0.896  0.00  0.00    +0.138 C 
BRANCH  45  47
ATOM     47  C   LIG    1        0.207  -2.049  -0.681  0.00  0.00    +0.064 A 
ATOM     48  C   LIG    1        0.550  -2.940  -1.714  0.00  0.00    +0.049 A 
ATOM     49  I   LIG    1       -0.084  -2.532  -3.689  0.00  0.00    -0.041 I 
ATOM     50  C   LIG    1        1.311  -4.088  -1.421  0.00  0.00    +0.065 A 
ATOM     51  C   LIG    1        1.718  -4.344  -0.096  0.00  0.00    +0.040 A 
ATOM     52  I   LIG    1        2.872  -6.067   0.351  0.00  0.00    -0.042 I 
ATOM     53  C   LIG    1        1.354  -3.456   0.936  0.00  0.00    +0.065 A 
ATOM     54  C   LIG    1        0.603  -2.303   0.644  0.00  0.00    +0.049 A 
ATOM     55  I   LIG    1        0.051  -0.951   2.175  0.00  0.00    -0.041 I 
BRANCH  53  56
ATOM     56  C   LIG    1        1.760  -3.748   2.353  0.00  0.00    +0.247 C 
ATOM     57  O   LIG    1        2.845  -3.368   2.792  0.00  0.00    -0.270 OA
ATOM     58  N   LIG    1        0.858  -4.459   3.053  0.00  0.00    -0.304 N 
ATOM     59  H   LIG    1       -0.032  -4.658   2.621  0.00  0.00    +0.149 HD
BRANCH  58  60
ATOM     60  CA  LIG    1        1.010  -4.908   4.445  0.00  0.00    +0.129 C 
BRANCH  60  61
ATOM     61  C   LIG    1       -0.364  -5.246   5.084  0.00  0.00    +0.180 C 
BRANCH  61  62
ATOM     62  O   LIG    1       -1.316  -4.218   4.876  0.00  0.00    -0.393 OA
ATOM     63  H   LIG    1       -1.039  -3.440   5.366  0.00  0.00    +0.209 HD
ENDBRANCH  61  62
ENDBRANCH  60  61
BRANCH  60  64
ATOM     64  C   LIG    1        2.063  -6.052   4.593  0.00  0.00    +0.162 C 
BRANCH  64  65
ATOM     65  O   LIG    1        1.586  -7.251   4.006  0.00  0.00    -0.388 OA
ATOM     66  H   LIG    1        1.365  -7.072   3.088  0.00  0.00    +0.210 HD
ENDBRANCH  64  65
BRANCH  64  67
ATOM     67  C   LIG    1        2.508  -6.336   6.045  0.00  0.00    +0.189 C 
BRANCH  67  68
ATOM     68  O   LIG    1        3.195  -5.233   6.603  0.00  0.00    -0.392 OA
ATOM     69  H   LIG    1        3.475  -5.465   7.491  0.00  0.00    +0.210 HD
ENDBRANCH  67  68
ENDBRANCH  64  67
ENDBRANCH  60  64
ENDBRANCH  58  60
ENDBRANCH  53  56
BRANCH  50  70
ATOM     70  C   LIG    1        1.694  -5.044  -2.518  0.00  0.00    +0.247 C 
ATOM     71  O   LIG    1        2.752  -4.903  -3.132  0.00  0.00    -0.270 OA
ATOM     72  N   LIG    1        0.822  -6.050  -2.711  0.00  0.00    -0.304 N 
ATOM     73  H   LIG    1       -0.016  -6.057  -2.148  0.00  0.00    +0.149 HD
BRANCH  72  74
ATOM     74  CA  LIG    1        1.025  -7.237  -3.559  0.00  0.00    +0.129 C 
BRANCH  74  75
ATOM     75  C   LIG    1        0.497  -8.509  -2.843  0.00  0.00    +0.180 C 
BRANCH  75  76
ATOM     76  O   LIG    1        0.991  -8.631  -1.522  0.00  0.00    -0.393 OA
ATOM     77  H   LIG    1        0.645  -9.441  -1.139  0.00  0.00    +0.209 HD
ENDBRANCH  75  76
ENDBRANCH  74  75
BRANCH  74  78
ATOM     78  C   LIG    1        0.418  -7.081  -4.989  0.00  0.00    +0.162 C 
BRANCH  78  79
ATOM     79  O   LIG    1        0.660  -8.244  -5.764  0.00  0.00    -0.388 OA
ATOM     80  H   LIG    1        1.599  -8.285  -5.963  0.00  0.00    +0.210 HD
ENDBRANCH  78  79
BRANCH  78  81
ATOM     81  C   LIG    1        0.901  -5.860  -5.810  0.00  0.00    +0.189 C 
BRANCH  81  82
ATOM     82  O   LIG    1        2.305  -5.852  -5.988  0.00  0.00    -0.392 OA
ATOM     83  H   LIG    1        2.718  -5.620  -5.152  0.00  0.00    +0.210 HD
ENDBRANCH  81  82
ENDBRANCH  78  81
ENDBRANCH  74  78
ENDBRANCH  72  74
ENDBRANCH  50  70
ENDBRANCH  45  47
ENDBRANCH   1  43
TORSDOF 36
