REMARK  Name = DB09146
REMARK                            x       y       z     vdW  Elec       q    Type
REMARK                         _______ _______ _______ _____ _____    ______ ____
ROOT
ATOM      1  O   LIG    1        0.090   0.082   0.166  0.00  0.00    -0.313 OA
ENDROOT
BRANCH   1   2
ATOM      2  C   LIG    1       -0.519   1.348   0.043  0.00  0.00    +0.285 C 
ATOM      3  C   LIG    1       -1.390   1.611   1.282  0.00  0.00    +0.201 C 
ATOM      4  C   LIG    1       -2.539   0.583   1.363  0.00  0.00    +0.179 C 
ATOM      5  C   LIG    1       -3.333   0.561   0.040  0.00  0.00    +0.177 C 
ATOM      6  C   LIG    1       -2.387   0.469  -1.191  0.00  0.00    +0.178 C 
ATOM      7  O   LIG    1       -1.313   1.424  -1.117  0.00  0.00    -0.340 OA
BRANCH   5   8
ATOM      8  O   LIG    1       -4.274  -0.499   0.057  0.00  0.00    -0.386 OA
ATOM      9  H   LIG    1       -4.814  -0.437  -0.735  0.00  0.00    +0.210 HD
ENDBRANCH   5   8
BRANCH   4  10
ATOM     10  O   LIG    1       -3.386   0.844   2.471  0.00  0.00    -0.386 OA
ATOM     11  H   LIG    1       -4.210   0.369   2.338  0.00  0.00    +0.210 HD
ENDBRANCH   4  10
BRANCH   3  12
ATOM     12  O   LIG    1       -0.629   1.677   2.474  0.00  0.00    -0.384 OA
ATOM     13  H   LIG    1       -1.229   1.584   3.218  0.00  0.00    +0.210 HD
ENDBRANCH   3  12
BRANCH   6  14
ATOM     14  C   LIG    1       -3.117   0.721  -2.532  0.00  0.00    +0.190 C 
BRANCH  14  15
ATOM     15  O   LIG    1       -3.973  -0.347  -2.886  0.00  0.00    -0.392 OA
ATOM     16  H   LIG    1       -4.370  -0.152  -3.738  0.00  0.00    +0.210 HD
ENDBRANCH  14  15
ENDBRANCH   6  14
ENDBRANCH   1   2
BRANCH   1  21
ATOM     17  O   LIG    1        1.948   0.626  -1.144  0.00  0.00    -0.336 OA
ATOM     18  C   LIG    1        2.166  -0.302  -2.205  0.00  0.00    +0.178 C 
ATOM     19  C   LIG    1        1.645  -1.638  -1.661  0.00  0.00    +0.179 C 
ATOM     20  C   LIG    1        1.867  -1.491  -0.162  0.00  0.00    +0.207 C 
ATOM     21  C   LIG    1        1.496  -0.007   0.025  0.00  0.00    +0.225 C 
BRANCH  20  22
ATOM     22  O   LIG    1        1.105  -2.360   0.660  0.00  0.00    -0.384 OA
ATOM     23  H   LIG    1        0.191  -2.331   0.366  0.00  0.00    +0.210 HD
ENDBRANCH  20  22
BRANCH  19  24
ATOM     24  O   LIG    1        2.317  -2.757  -2.207  0.00  0.00    -0.386 OA
ATOM     25  H   LIG    1        2.079  -3.534  -1.697  0.00  0.00    +0.210 HD
ENDBRANCH  19  24
BRANCH  18  26
ATOM     26  C   LIG    1        1.558   0.210  -3.527  0.00  0.00    +0.190 C 
BRANCH  26  27
ATOM     27  O   LIG    1        0.148   0.216  -3.521  0.00  0.00    -0.392 OA
ATOM     28  H   LIG    1       -0.159   0.548  -4.368  0.00  0.00    +0.210 HD
ENDBRANCH  26  27
ENDBRANCH  18  26
BRANCH  21  29
ATOM     29  C   LIG    1        2.141   0.677   1.249  0.00  0.00    +0.223 C 
BRANCH  29  30
ATOM     30  O   LIG    1        3.551   0.557   1.250  0.00  0.00    -0.390 OA
ATOM     31  H   LIG    1        3.894   0.995   2.033  0.00  0.00    +0.210 HD
ENDBRANCH  29  30
ENDBRANCH  21  29
ENDBRANCH   1  21
TORSDOF 13
