REMARK  Name = DB09483
REMARK                            x       y       z     vdW  Elec       q    Type
REMARK                         _______ _______ _______ _____ _____    ______ ____
ROOT
ATOM      1  C   LIG    1       -0.037   0.011  -0.112  0.00  0.00    +0.333 C 
ATOM      2  O   LIG    1       -0.647   1.011   0.333  0.00  0.00    -0.248 OA
ENDROOT
BRANCH   1   3
ATOM      3  C   LIG    1        1.520   0.063  -0.061  0.00  0.00    +0.219 C 
ATOM      4  C   LIG    1        2.030   0.018   1.396  0.00  0.00    +0.049 C 
BRANCH   3   5
ATOM      5  O   LIG    1        2.119  -1.012  -0.775  0.00  0.00    -0.381 OA
ATOM      6  H   LIG    1        1.418  -1.601  -1.064  0.00  0.00    +0.210 HD
ENDBRANCH   3   5
ENDBRANCH   1   3
BRANCH   1   7
ATOM      7  O   LIG    1       -0.620  -0.991  -0.594  0.00  0.00    -0.479 OA
ATOM      8  H   LIG    1       -1.217  -0.888  -1.308  0.00  0.00    +0.295 HD
ENDBRANCH   1   7
TORSDOF 3
