REMARK  Name = DB09074
REMARK                            x       y       z     vdW  Elec       q    Type
REMARK                         _______ _______ _______ _____ _____    ______ ____
ROOT
ATOM      1  C   LIG    1        1.848   0.302   0.249  0.00  0.00    -0.041 A 
ATOM      2  C   LIG    1        2.630  -0.401  -0.674  0.00  0.00    +0.020 A 
ATOM      3  C   LIG    1        4.000  -0.135  -0.812  0.00  0.00    +0.072 A 
ATOM      4  C   LIG    1        4.586   0.853  -0.003  0.00  0.00    +0.135 A 
ATOM      5  F   LIG    1        5.907   1.139  -0.095  0.00  0.00    -0.205 F 
ATOM      6  C   LIG    1        3.812   1.549   0.924  0.00  0.00    +0.039 A 
ATOM      7  C   LIG    1        2.452   1.273   1.054  0.00  0.00    +0.007 A 
ENDROOT
BRANCH   3   8
ATOM      8  C   LIG    1        4.830  -0.906  -1.813  0.00  0.00    +0.249 C 
ATOM      9  O   LIG    1        5.523  -0.272  -2.611  0.00  0.00    -0.270 OA
ATOM     10  N   LIG    1        4.744  -2.265  -1.829  0.00  0.00    -0.294 N 
ATOM     11  C   LIG    1        4.322  -3.069  -0.662  0.00  0.00    +0.127 C 
ATOM     12  C   LIG    1        3.262  -4.100  -1.125  0.00  0.00    +0.127 C 
ATOM     13  N   LIG    1        3.847  -4.887  -2.228  0.00  0.00    -0.298 N 
ATOM     14  C   LIG    1        4.071  -6.224  -2.100  0.00  0.00    +0.219 C 
ATOM     15  O   LIG    1        3.661  -6.852  -1.118  0.00  0.00    -0.275 OA
ATOM     16  C   LIG    1        4.216  -4.068  -3.397  0.00  0.00    +0.127 C 
ATOM     17  C   LIG    1        5.290  -3.043  -2.958  0.00  0.00    +0.127 C 
BRANCH  14  18
ATOM     18  C   LIG    1        4.866  -6.989  -3.192  0.00  0.00    +0.075 C 
ATOM     19  C   LIG    1        5.611  -8.230  -2.719  0.00  0.00    +0.013 C 
ATOM     20  C   LIG    1        4.350  -8.380  -3.525  0.00  0.00    +0.013 C 
ENDBRANCH  14  18
ENDBRANCH   3   8
BRANCH   1  21
ATOM     21  C   LIG    1        0.359  -0.009   0.387  0.00  0.00    +0.093 C 
BRANCH  21  30
ATOM     22  C   LIG    1       -1.067   3.034  -3.689  0.00  0.00    +0.001 A 
ATOM     23  C   LIG    1       -1.654   3.583  -2.549  0.00  0.00    +0.014 A 
ATOM     24  C   LIG    1       -1.488   2.958  -1.307  0.00  0.00    +0.050 A 
ATOM     25  C   LIG    1       -2.170   3.556  -0.084  0.00  0.00    +0.272 A 
ATOM     26  O   LIG    1       -2.865   4.571  -0.061  0.00  0.00    -0.266 OA
ATOM     27  N   LIG    1       -1.930   2.812   1.034  0.00  0.00    -0.242 N 
ATOM     28  H   LIG    1       -2.358   3.127   1.893  0.00  0.00    +0.192 HD
ATOM     29  N   LIG    1       -1.162   1.670   1.174  0.00  0.00    -0.175 NA
ATOM     30  C   LIG    1       -0.566   1.189   0.144  0.00  0.00    +0.074 A 
ATOM     31  C   LIG    1       -0.710   1.783  -1.204  0.00  0.00    +0.011 A 
ATOM     32  C   LIG    1       -0.146   1.233  -2.364  0.00  0.00    +0.010 A 
ATOM     33  C   LIG    1       -0.320   1.860  -3.597  0.00  0.00    +0.001 A 
ENDBRANCH  21  30
ENDBRANCH   1  21
TORSDOF 4
