REMARK  Name = DB09210
REMARK                            x       y       z     vdW  Elec       q    Type
REMARK                         _______ _______ _______ _____ _____    ______ ____
ROOT
ATOM      1  N   LIG    1       -0.001   0.057  -0.019  0.00  0.00    -0.293 N 
ATOM      2  C   LIG    1       -0.840   1.251  -0.009  0.00  0.00    +0.109 C 
ATOM      3  C   LIG    1       -2.231   0.726  -0.305  0.00  0.00    +0.028 C 
ATOM      4  C   LIG    1       -2.159  -0.758   0.001  0.00  0.00    +0.097 C 
ATOM      5  C   LIG    1       -0.674  -1.119   0.001  0.00  0.00    +0.216 C 
ATOM      6  O   LIG    1       -0.217  -2.261   0.020  0.00  0.00    -0.276 OA
ENDROOT
BRANCH   1   7
ATOM      7  C   LIG    1        1.466   0.140   0.010  0.00  0.00    +0.203 C 
BRANCH   7   8
ATOM      8  C   LIG    1        2.075   0.001  -1.401  0.00  0.00    +0.228 C 
ATOM      9  N   LIG    1        3.397  -0.175  -1.452  0.00  0.00    -0.328 N 
ATOM     10  H   LIG    1        3.942  -0.212  -0.603  0.00  0.00    +0.145 HD
ATOM     11  H   LIG    1        3.858  -0.275  -2.344  0.00  0.00    +0.145 HD
ATOM     12  O   LIG    1        1.392   0.053  -2.424  0.00  0.00    -0.274 OA
ENDBRANCH   7   8
ENDBRANCH   1   7
TORSDOF 2
