REMARK  Name = DB09116
REMARK                            x       y       z     vdW  Elec       q    Type
REMARK                         _______ _______ _______ _____ _____    ______ ____
ROOT
ATOM      1  C   LIG    1        0.002   0.002  -0.026  0.00  0.00    +0.084 C 
ATOM      2  N   LIG    1       -0.163  -1.292  -0.105  0.00  0.00    -0.241 NA
ATOM      3  H   LIG    1       -1.003  -1.660  -0.462  0.00  0.00    +0.199 HD
ATOM      4  N   LIG    1        0.161   1.290   0.131  0.00  0.00    -0.241 NA
ATOM      5  H   LIG    1       -0.549   1.912  -0.149  0.00  0.00    +0.199 HD
ENDROOT
TORSDOF 0
