REMARK  Name = DB09324
REMARK                            x       y       z     vdW  Elec       q    Type
REMARK                         _______ _______ _______ _____ _____    ______ ____
ROOT
ATOM      1  C   LIG    1       -0.009   0.143  -0.028  0.00  0.00    +0.038 C 
ATOM      2  C   LIG    1        1.530   0.026  -0.049  0.00  0.00    +0.113 C 
ATOM      3  S   LIG    1        2.001  -1.810   0.086  0.00  0.00    -0.004 S 
ATOM      4  O   LIG    1        1.190  -2.455   1.126  0.00  0.00    -0.172 OA
ATOM      5  O   LIG    1        2.096  -2.422  -1.244  0.00  0.00    -0.172 OA
ATOM      6  C   LIG    1        3.714  -1.412   0.755  0.00  0.00    +0.229 C 
ATOM      7  N   LIG    1        3.381  -0.206   1.543  0.00  0.00    -0.263 N 
ATOM      8  C   LIG    1        3.691  -0.807   2.765  0.00  0.00    +0.221 C 
ATOM      9  O   LIG    1        3.616  -0.427   3.932  0.00  0.00    -0.275 OA
ATOM     10  C   LIG    1        4.160  -2.107   2.059  0.00  0.00    +0.142 C 
ATOM     11  C   LIG    1        2.206   0.626   1.238  0.00  0.00    +0.213 C 
ATOM     12  C   LIG    1        2.095   0.573  -1.386  0.00  0.00    +0.038 C 
ENDROOT
BRANCH  11  13
ATOM     13  C   LIG    1        2.483   2.144   1.187  0.00  0.00    +0.328 C 
ATOM     14  O   LIG    1        3.594   2.633   1.166  0.00  0.00    -0.249 OA
BRANCH  13  15
ATOM     15  O   LIG    1        1.311   2.842   1.200  0.00  0.00    -0.479 OA
ATOM     16  H   LIG    1        1.453   3.791   1.184  0.00  0.00    +0.295 HD
ENDBRANCH  13  15
ENDBRANCH  11  13
TORSDOF 2
