REMARK  Name = DB09332
REMARK                            x       y       z     vdW  Elec       q    Type
REMARK                         _______ _______ _______ _____ _____    ______ ____
ROOT
ATOM      1  C   LIG    1        1.466   0.197  -0.066  0.00  0.00    +0.143 A 
ATOM      2  C   LIG    1        2.325   0.421  -1.146  0.00  0.00    -0.004 A 
ATOM      3  C   LIG    1        1.782   0.398  -2.567  0.00  0.00    +0.048 C 
ATOM      4  C   LIG    1        3.675   0.684  -0.935  0.00  0.00    +0.053 A 
ATOM      5  C   LIG    1        4.217   0.722   0.349  0.00  0.00    +0.140 A 
ATOM      6  C   LIG    1        3.377   0.481   1.470  0.00  0.00    +0.028 A 
ATOM      7  C   LIG    1        3.888   0.496   2.797  0.00  0.00    +0.012 A 
ATOM      8  C   LIG    1        3.059   0.232   3.882  0.00  0.00    +0.001 A 
ATOM      9  C   LIG    1        1.715  -0.055   3.685  0.00  0.00    +0.001 A 
ATOM     10  C   LIG    1        1.177  -0.073   2.402  0.00  0.00    +0.012 A 
ATOM     11  C   LIG    1        1.985   0.205   1.266  0.00  0.00    +0.028 A 
ENDROOT
BRANCH   1  12
ATOM     12  O   LIG    1        0.143  -0.050  -0.338  0.00  0.00    -0.403 OA
BRANCH  12  13
ATOM     13  P   LIG    1       -1.284   0.870   0.140  0.00  0.00    +0.528 P 
ATOM     14  O   LIG    1       -2.133  -0.090   0.995  0.00  0.00    -0.216 OA
BRANCH  13  15
ATOM     15  O   LIG    1       -1.977   1.260  -1.178  0.00  0.00    -0.293 OA
ATOM     16  H   LIG    1       -1.405   1.863  -1.678  0.00  0.00    +0.223 HD
ENDBRANCH  13  15
BRANCH  13  17
ATOM     17  O   LIG    1       -0.781   2.092   0.931  0.00  0.00    -0.293 OA
ATOM     18  H   LIG    1       -0.255   2.660   0.347  0.00  0.00    +0.223 HD
ENDBRANCH  13  17
ENDBRANCH  12  13
ENDBRANCH   1  12
BRANCH   5  19
ATOM     19  O   LIG    1        5.549   0.990   0.553  0.00  0.00    -0.403 OA
BRANCH  19  20
ATOM     20  P   LIG    1        6.883   1.060  -0.599  0.00  0.00    +0.528 P 
ATOM     21  O   LIG    1        6.768  -0.204  -1.472  0.00  0.00    -0.216 OA
BRANCH  20  22
ATOM     22  O   LIG    1        8.164   1.077   0.256  0.00  0.00    -0.293 OA
ATOM     23  H   LIG    1        8.189   1.890   0.784  0.00  0.00    +0.223 HD
ENDBRANCH  20  22
BRANCH  20  24
ATOM     24  O   LIG    1        6.682   2.362  -1.398  0.00  0.00    -0.293 OA
ATOM     25  H   LIG    1        6.765   3.123  -0.802  0.00  0.00    +0.223 HD
ENDBRANCH  20  24
ENDBRANCH  19  20
ENDBRANCH   5  19
TORSDOF 8
