REMARK  Name = DB09073
REMARK                            x       y       z     vdW  Elec       q    Type
REMARK                         _______ _______ _______ _____ _____    ______ ____
ROOT
ATOM      1  C   LIG    1       -4.960  -1.308  -0.169  0.00  0.00    +0.045 C 
ATOM      2  C   LIG    1       -4.306   0.084  -0.139  0.00  0.00    -0.023 A 
ATOM      3  C   LIG    1       -4.947   1.276  -0.347  0.00  0.00    +0.085 A 
ATOM      4  C   LIG    1       -4.260   2.579  -0.310  0.00  0.00    +0.264 A 
ATOM      5  O   LIG    1       -4.880   3.641  -0.440  0.00  0.00    -0.267 OA
ATOM      6  N   LIG    1       -2.894   2.530  -0.123  0.00  0.00    -0.289 N 
ATOM      7  C   LIG    1       -2.180   1.326   0.172  0.00  0.00    +0.149 A 
ATOM      8  N   LIG    1       -0.856   1.400   0.490  0.00  0.00    -0.196 NA
ATOM      9  C   LIG    1       -0.201   0.249   0.790  0.00  0.00    +0.222 A 
ATOM     10  N   LIG    1       -0.775  -0.979   0.803  0.00  0.00    -0.222 NA
ATOM     11  C   LIG    1       -2.096  -1.041   0.495  0.00  0.00    +0.126 A 
ATOM     12  C   LIG    1       -2.856   0.095   0.172  0.00  0.00    +0.040 A 
ENDROOT
BRANCH   6  13
ATOM     13  C   LIG    1       -2.103   3.807  -0.127  0.00  0.00    +0.092 C 
ATOM     14  C   LIG    1       -2.303   4.754  -1.343  0.00  0.00    +0.025 C 
ATOM     15  C   LIG    1       -2.668   6.125  -0.757  0.00  0.00    +0.002 C 
ATOM     16  C   LIG    1       -2.102   6.113   0.663  0.00  0.00    +0.002 C 
ATOM     17  C   LIG    1       -2.320   4.675   1.132  0.00  0.00    +0.025 C 
ENDBRANCH   6  13
BRANCH   3  18
ATOM     18  C   LIG    1       -6.391   1.253  -0.621  0.00  0.00    +0.166 C 
ATOM     19  O   LIG    1       -6.848   1.348  -1.760  0.00  0.00    -0.292 OA
ATOM     20  C   LIG    1       -7.343   1.130   0.567  0.00  0.00    +0.092 C 
ENDBRANCH   3  18
BRANCH   9  21
ATOM     21  N   LIG    1        1.165   0.282   1.117  0.00  0.00    -0.268 N 
ATOM     22  H   LIG    1        1.547  -0.627   1.332  0.00  0.00    +0.156 HD
BRANCH  21  23
ATOM     23  C   LIG    1        2.104   1.327   1.196  0.00  0.00    +0.125 A 
ATOM     24  N   LIG    1        1.739   2.607   0.919  0.00  0.00    -0.238 NA
ATOM     25  C   LIG    1        2.677   3.583   0.995  0.00  0.00    +0.136 A 
ATOM     26  C   LIG    1        4.015   3.351   1.344  0.00  0.00    +0.048 A 
ATOM     27  C   LIG    1        4.367   2.022   1.636  0.00  0.00    +0.028 A 
ATOM     28  C   LIG    1        3.413   1.005   1.561  0.00  0.00    +0.045 A 
BRANCH  26  29
ATOM     29  N   LIG    1        4.932   4.398   1.402  0.00  0.00    -0.326 N 
ATOM     30  C   LIG    1        6.236   4.253   2.076  0.00  0.00    +0.120 C 
ATOM     31  C   LIG    1        6.928   5.599   2.394  0.00  0.00    +0.100 C 
ATOM     32  N   LIG    1        7.068   6.421   1.201  0.00  0.00    -0.313 NA
ATOM     33  H   LIG    1        7.514   7.295   1.439  0.00  0.00    +0.122 HD
ATOM     34  C   LIG    1        5.742   6.677   0.657  0.00  0.00    +0.100 C 
ATOM     35  C   LIG    1        5.022   5.361   0.287  0.00  0.00    +0.120 C 
ENDBRANCH  26  29
ENDBRANCH  21  23
ENDBRANCH   9  21
TORSDOF 5
