REMARK  Name = DB09237
REMARK                            x       y       z     vdW  Elec       q    Type
REMARK                         _______ _______ _______ _____ _____    ______ ____
ROOT
ATOM      1  C   LIG    1       -2.300  -1.288   0.169  0.00  0.00    +0.097 C 
ATOM      2  C   LIG    1       -2.767   0.205   0.126  0.00  0.00    +0.065 C 
ATOM      3  C   LIG    1       -1.876   1.235   0.207  0.00  0.00    +0.016 C 
ATOM      4  N   LIG    1       -0.528   0.976   0.221  0.00  0.00    -0.319 N 
ATOM      5  H   LIG    1        0.091   1.761   0.365  0.00  0.00    +0.152 HD
ATOM      6  C   LIG    1        0.047  -0.271   0.140  0.00  0.00    +0.045 C 
ATOM      7  C   LIG    1       -2.158   2.738   0.174  0.00  0.00    +0.061 C 
ATOM      8  C   LIG    1       -0.742  -1.383   0.057  0.00  0.00    +0.068 C 
ENDROOT
BRANCH   1   9
ATOM      9  C   LIG    1       -2.844  -2.031   1.415  0.00  0.00    -0.017 A 
ATOM     10  C   LIG    1       -2.364  -1.640   2.674  0.00  0.00    +0.006 A 
ATOM     11  C   LIG    1       -2.796  -2.274   3.837  0.00  0.00    +0.000 A 
ATOM     12  C   LIG    1       -3.717  -3.314   3.759  0.00  0.00    +0.001 A 
ATOM     13  C   LIG    1       -4.202  -3.720   2.518  0.00  0.00    +0.020 A 
ATOM     14  C   LIG    1       -3.775  -3.091   1.346  0.00  0.00    +0.045 A 
ATOM     15 CL   LIG    1       -4.427  -3.670  -0.150  0.00  0.00    -0.083 Cl
ENDBRANCH   1   9
BRANCH   2  16
ATOM     16  C   LIG    1       -4.236   0.451   0.138  0.00  0.00    +0.337 C 
ATOM     17  O   LIG    1       -4.755   1.480   0.580  0.00  0.00    -0.245 OA
BRANCH  16  18
ATOM     18  O   LIG    1       -4.955  -0.577  -0.367  0.00  0.00    -0.465 OA
ATOM     19  C   LIG    1       -6.375  -0.528  -0.418  0.00  0.00    +0.280 C 
ENDBRANCH  16  18
ENDBRANCH   2  16
BRANCH   8  20
ATOM     20  C   LIG    1       -0.152  -2.754  -0.023  0.00  0.00    +0.338 C 
ATOM     21  O   LIG    1        1.037  -3.005   0.194  0.00  0.00    -0.245 OA
BRANCH  20  22
ATOM     22  O   LIG    1       -1.049  -3.721  -0.345  0.00  0.00    -0.462 OA
BRANCH  22  23
ATOM     23  C   LIG    1       -0.644  -5.081  -0.469  0.00  0.00    +0.229 C 
ATOM     24  C   LIG    1       -1.855  -5.966  -0.777  0.00  0.00    +0.048 C 
ENDBRANCH  22  23
ENDBRANCH  20  22
ENDBRANCH   8  20
BRANCH   6  25
ATOM     25  C   LIG    1        1.578  -0.183   0.089  0.00  0.00    +0.211 C 
BRANCH  25  26
ATOM     26  O   LIG    1        2.177  -0.478   1.348  0.00  0.00    -0.373 OA
BRANCH  26  27
ATOM     27  C   LIG    1        1.989   0.502   2.366  0.00  0.00    +0.175 C 
BRANCH  27  28
ATOM     28  C   LIG    1        2.723   0.063   3.642  0.00  0.00    +0.106 C 
BRANCH  28  29
ATOM     29  N   LIG    1        4.161   0.101   3.451  0.00  0.00    -0.328 NA
ATOM     30  H   LIG    1        4.416  -0.537   2.711  0.00  0.00    +0.118 HD
ATOM     31  H   LIG    1        4.622  -0.231   4.286  0.00  0.00    +0.118 HD
ENDBRANCH  28  29
ENDBRANCH  27  28
ENDBRANCH  26  27
ENDBRANCH  25  26
ENDBRANCH   6  25
TORSDOF 11
