REMARK  Name = DB09093
REMARK                            x       y       z     vdW  Elec       q    Type
REMARK                         _______ _______ _______ _____ _____    ______ ____
ROOT
ATOM      1  C   LIG    1       -6.325   6.079   1.341  0.00  0.00    +0.024 A 
ATOM      2  C   LIG    1       -5.868   4.773   1.231  0.00  0.00    +0.048 A 
ATOM      3 CL   LIG    1       -7.079   3.552   1.446  0.00  0.00    -0.083 Cl
ATOM      4  C   LIG    1       -4.515   4.483   0.913  0.00  0.00    +0.017 A 
ATOM      5  C   LIG    1       -3.961   3.029   0.954  0.00  0.00    +0.097 C 
ATOM      6  C   LIG    1       -4.228   2.358   2.335  0.00  0.00    +0.047 C 
ATOM      7  C   LIG    1       -2.402   2.961   0.735  0.00  0.00    +0.063 C 
ATOM      8  C   LIG    1       -1.859   1.523   0.459  0.00  0.00    +0.020 C 
ATOM      9  C   LIG    1       -0.442   1.479  -0.162  0.00  0.00    +0.061 C 
ATOM     10  C   LIG    1        0.093   0.012  -0.266  0.00  0.00    +0.129 C 
ATOM     11  C   LIG    1       -0.739  -0.684  -1.366  0.00  0.00    +0.127 C 
ATOM     12  C   LIG    1       -1.293  -0.075  -2.458  0.00  0.00    +0.121 C 
ATOM     13  C   LIG    1       -1.121   1.394  -2.668  0.00  0.00    +0.211 C 
ATOM     14  O   LIG    1       -1.519   1.953  -3.696  0.00  0.00    -0.288 OA
ATOM     15  C   LIG    1       -0.422   2.215  -1.542  0.00  0.00    +0.190 C 
ATOM     16  C   LIG    1       -1.083   3.608  -1.354  0.00  0.00    +0.141 C 
ATOM     17  C   LIG    1       -1.928   3.949  -0.336  0.00  0.00    +0.047 C 
ATOM     18  C   LIG    1       -2.314   5.354  -0.101  0.00  0.00    +0.197 C 
ATOM     19  O   LIG    1       -1.575   6.291  -0.412  0.00  0.00    -0.287 OA
ATOM     20  C   LIG    1       -3.680   5.573   0.526  0.00  0.00    +0.071 A 
ATOM     21  C   LIG    1       -4.171   6.899   0.680  0.00  0.00    +0.128 A 
ATOM     22  C   LIG    1       -5.471   7.136   1.103  0.00  0.00    +0.047 A 
ENDROOT
BRANCH  12  23
ATOM     23  C   LIG    1       -2.075  -0.881  -3.390  0.00  0.00    +0.248 C 
ATOM     24  O   LIG    1       -3.005  -1.603  -3.034  0.00  0.00    -0.270 OA
ATOM     25  N   LIG    1       -1.705  -0.810  -4.675  0.00  0.00    -0.325 N 
ATOM     26  H   LIG    1       -0.944  -0.208  -4.954  0.00  0.00    +0.145 HD
ATOM     27  H   LIG    1       -2.196  -1.348  -5.373  0.00  0.00    +0.145 HD
ENDBRANCH  12  23
BRANCH  10  28
ATOM     28  N   LIG    1        1.559  -0.118  -0.464  0.00  0.00    -0.299 NA
ATOM     29  C   LIG    1        2.023  -1.482  -0.733  0.00  0.00    +0.105 C 
ATOM     30  C   LIG    1        2.311   0.369   0.695  0.00  0.00    +0.105 C 
ENDBRANCH  10  28
BRANCH   5  31
ATOM     31  O   LIG    1       -4.624   2.239  -0.020  0.00  0.00    -0.384 OA
ATOM     32  H   LIG    1       -5.545   2.151   0.238  0.00  0.00    +0.211 HD
ENDBRANCH   5  31
BRANCH  11  33
ATOM     33  O   LIG    1       -0.900  -2.000  -1.033  0.00  0.00    -0.509 OA
ATOM     34  H   LIG    1       -0.427  -2.185  -0.218  0.00  0.00    +0.292 HD
ENDBRANCH  11  33
BRANCH  15  35
ATOM     35  O   LIG    1        0.935   2.381  -1.943  0.00  0.00    -0.373 OA
ATOM     36  H   LIG    1        1.385   1.537  -1.847  0.00  0.00    +0.211 HD
ENDBRANCH  15  35
BRANCH  16  37
ATOM     37  O   LIG    1       -0.688   4.466  -2.346  0.00  0.00    -0.507 OA
ATOM     38  H   LIG    1       -0.085   4.010  -2.938  0.00  0.00    +0.292 HD
ENDBRANCH  16  37
BRANCH  21  39
ATOM     39  O   LIG    1       -3.432   8.027   0.415  0.00  0.00    -0.506 OA
ATOM     40  H   LIG    1       -3.921   8.839   0.563  0.00  0.00    +0.292 HD
ENDBRANCH  21  39
TORSDOF 7
