REMARK  Name = DB09313
REMARK                            x       y       z     vdW  Elec       q    Type
REMARK                         _______ _______ _______ _____ _____    ______ ____
ROOT
ATOM      1  N   LIG    1       -1.290  -0.245  -1.474  0.00  0.00    -0.282 N 
ATOM      2  H   LIG    1       -0.695  -0.865  -2.003  0.00  0.00    +0.155 HD
ATOM      3  C   LIG    1       -0.855   1.007  -1.216  0.00  0.00    +0.234 C 
ATOM      4  O   LIG    1       -1.517   1.829  -0.581  0.00  0.00    -0.274 OA
ENDROOT
BRANCH   1   7
ATOM      5  C   LIG    1       -4.861  -1.226  -1.458  0.00  0.00    +0.088 A 
ATOM      6  C   LIG    1       -3.635  -0.681  -1.881  0.00  0.00    +0.051 A 
ATOM      7  C   LIG    1       -2.515  -0.768  -1.043  0.00  0.00    +0.062 A 
ATOM      8  C   LIG    1       -2.591  -1.419   0.198  0.00  0.00    +0.049 A 
ATOM      9  I   LIG    1       -0.854  -1.586   1.393  0.00  0.00    -0.041 I 
ATOM     10  C   LIG    1       -3.819  -1.961   0.621  0.00  0.00    +0.065 A 
ATOM     11  I   LIG    1       -3.446   0.251  -3.771  0.00  0.00    -0.041 I 
ATOM     12  C   LIG    1       -4.957  -1.863  -0.205  0.00  0.00    +0.042 A 
ATOM     13  I   LIG    1       -6.807  -2.680   0.433  0.00  0.00    -0.042 I 
BRANCH  10  14
ATOM     14  C   LIG    1       -3.910  -2.655   1.952  0.00  0.00    +0.246 C 
ATOM     15  O   LIG    1       -3.697  -3.865   2.046  0.00  0.00    -0.270 OA
ATOM     16  N   LIG    1       -4.238  -1.853   2.979  0.00  0.00    -0.309 N 
ATOM     17  H   LIG    1       -4.386  -0.871   2.797  0.00  0.00    +0.149 HD
BRANCH  16  18
ATOM     18  C   LIG    1       -4.425  -2.295   4.363  0.00  0.00    +0.132 C 
BRANCH  18  19
ATOM     19  C   LIG    1       -5.734  -3.070   4.620  0.00  0.00    +0.174 C 
BRANCH  19  20
ATOM     20  O   LIG    1       -6.864  -2.306   4.244  0.00  0.00    -0.393 OA
ATOM     21  H   LIG    1       -7.652  -2.838   4.378  0.00  0.00    +0.209 HD
ENDBRANCH  19  20
ENDBRANCH  18  19
ENDBRANCH  16  18
ENDBRANCH  10  14
BRANCH   5  22
ATOM     22  C   LIG    1       -6.065  -1.132  -2.352  0.00  0.00    +0.339 C 
ATOM     23  O   LIG    1       -6.840  -0.179  -2.307  0.00  0.00    -0.245 OA
BRANCH  22  24
ATOM     24  O   LIG    1       -6.200  -2.192  -3.199  0.00  0.00    -0.477 OA
ATOM     25  H   LIG    1       -6.974  -2.112  -3.760  0.00  0.00    +0.295 HD
ENDBRANCH  22  24
ENDBRANCH   5  22
ENDBRANCH   1   7
BRANCH   3  26
ATOM     26  C   LIG    1        0.524   1.442  -1.760  0.00  0.00    +0.200 C 
BRANCH  26  27
ATOM     27  N   LIG    1        1.262   0.382  -2.457  0.00  0.00    -0.303 N 
ATOM     28  H   LIG    1        1.229   0.403  -3.466  0.00  0.00    +0.150 HD
ATOM     29  C   LIG    1        1.972  -0.591  -1.857  0.00  0.00    +0.247 C 
ATOM     30  O   LIG    1        2.088  -0.723  -0.638  0.00  0.00    -0.270 OA
BRANCH  29  31
ATOM     31  C   LIG    1        2.656  -1.540  -2.803  0.00  0.00    +0.065 A 
ATOM     32  C   LIG    1        2.042  -2.760  -3.152  0.00  0.00    +0.040 A 
ATOM     33  I   LIG    1        0.163  -3.289  -2.325  0.00  0.00    -0.042 I 
ATOM     34  C   LIG    1        2.685  -3.637  -4.050  0.00  0.00    +0.065 A 
ATOM     35  C   LIG    1        3.937  -3.298  -4.595  0.00  0.00    +0.049 A 
ATOM     36  I   LIG    1        4.923  -4.601  -5.939  0.00  0.00    -0.041 I 
ATOM     37  C   LIG    1        4.542  -2.079  -4.241  0.00  0.00    +0.064 A 
ATOM     38  C   LIG    1        3.914  -1.205  -3.338  0.00  0.00    +0.049 A 
ATOM     39  I   LIG    1        4.878   0.601  -2.799  0.00  0.00    -0.041 I 
BRANCH  34  40
ATOM     40  C   LIG    1        2.028  -4.935  -4.434  0.00  0.00    +0.246 C 
ATOM     41  N   LIG    1        2.353  -5.978  -3.652  0.00  0.00    -0.314 N 
ATOM     42  H   LIG    1        3.005  -5.831  -2.895  0.00  0.00    +0.149 HD
ATOM     43  C   LIG    1        1.840  -7.332  -3.815  0.00  0.00    +0.128 C 
ATOM     44  O   LIG    1        1.262  -4.987  -5.397  0.00  0.00    -0.270 OA
ENDBRANCH  34  40
BRANCH  37  45
ATOM     45  N   LIG    1        5.798  -1.738  -4.781  0.00  0.00    -0.273 N 
ATOM     46  C   LIG    1        5.924  -1.066  -5.959  0.00  0.00    +0.216 C 
ATOM     47  O   LIG    1        7.017  -0.817  -6.472  0.00  0.00    -0.276 OA
ATOM     48  C   LIG    1        4.666  -0.580  -6.692  0.00  0.00    +0.109 C 
ATOM     49  C   LIG    1        6.984  -2.207  -4.055  0.00  0.00    +0.138 C 
ENDBRANCH  37  45
ENDBRANCH  29  31
ENDBRANCH  26  27
ENDBRANCH   3  26
TORSDOF 12
