REMARK  Name = DB09383
REMARK                            x       y       z     vdW  Elec       q    Type
REMARK                         _______ _______ _______ _____ _____    ______ ____
ROOT
ATOM      1  C   LIG    1        1.414   1.646  -2.363  0.00  0.00    +0.011 C 
ATOM      2  C   LIG    1        2.294   0.808  -1.406  0.00  0.00    +0.026 C 
ATOM      3  C   LIG    1        1.629  -0.000  -0.215  0.00  0.00    +0.134 C 
ATOM      4  C   LIG    1        2.037   0.811   1.079  0.00  0.00    +0.014 C 
ATOM      5  C   LIG    1        3.488   1.195   0.699  0.00  0.00    +0.003 C 
ATOM      6  C   LIG    1        4.191   2.072   1.768  0.00  0.00    +0.004 C 
ATOM      7  C   LIG    1        4.220   1.340   3.159  0.00  0.00    +0.072 C 
ATOM      8  C   LIG    1        4.950   2.183   4.283  0.00  0.00    +0.017 C 
ATOM      9  C   LIG    1        6.338   2.619   3.723  0.00  0.00    -0.056 C 
ATOM     10  C   LIG    1        7.515   2.335   4.333  0.00  0.00    +0.051 C 
ATOM     11  C   LIG    1        7.662   1.588   5.581  0.00  0.00    +0.179 C 
ATOM     12  O   LIG    1        8.748   1.372   6.114  0.00  0.00    -0.288 OA
ATOM     13  C   LIG    1        6.395   1.113   6.125  0.00  0.00    +0.047 C 
ATOM     14  C   LIG    1        6.294   3.368   2.393  0.00  0.00    +0.032 C 
ATOM     15  C   LIG    1        5.195   1.363   5.565  0.00  0.00    -0.012 C 
ATOM     16  C   LIG    1        4.162   3.454   4.705  0.00  0.00    +0.021 C 
ATOM     17  C   LIG    1        2.822   0.752   3.538  0.00  0.00    +0.138 C 
ATOM     18  O   LIG    1        2.294   0.879   4.641  0.00  0.00    -0.297 OA
ATOM     19  C   LIG    1        5.620   2.469   1.347  0.00  0.00    +0.009 C 
ATOM     20  C   LIG    1        2.105  -0.009   2.402  0.00  0.00    +0.084 C 
ATOM     21  C   LIG    1        1.139   2.079   1.314  0.00  0.00    +0.015 C 
ATOM     22  C   LIG    1        3.405   1.673  -0.756  0.00  0.00    +0.011 C 
ENDROOT
BRANCH   3  23
ATOM     23  O   LIG    1        2.208  -1.306  -0.205  0.00  0.00    -0.380 OA
ATOM     24  H   LIG    1        3.161  -1.215  -0.143  0.00  0.00    +0.211 HD
ENDBRANCH   3  23
BRANCH   3  25
ATOM     25  C   LIG    1        0.076  -0.232  -0.309  0.00  0.00    +0.190 C 
ATOM     26  O   LIG    1       -0.682   0.680  -0.652  0.00  0.00    -0.292 OA
BRANCH  25  27
ATOM     27  C   LIG    1       -0.501  -1.617   0.072  0.00  0.00    +0.233 C 
BRANCH  27  28
ATOM     28  O   LIG    1       -1.915  -1.623  -0.021  0.00  0.00    -0.387 OA
ATOM     29  H   LIG    1       -2.265  -0.988   0.608  0.00  0.00    +0.210 HD
ENDBRANCH  27  28
ENDBRANCH  25  27
ENDBRANCH   3  25
TORSDOF 4
