REMARK  Name = DB09345
REMARK                            x       y       z     vdW  Elec       q    Type
REMARK                         _______ _______ _______ _____ _____    ______ ____
ROOT
ATOM      1  C   LIG    1       -0.636  -1.260  -0.342  0.00  0.00    +0.049 A 
ATOM      2  C   LIG    1       -2.028  -1.269  -0.313  0.00  0.00    +0.049 A 
ATOM      3  C   LIG    1       -2.734  -0.149   0.153  0.00  0.00    +0.121 A 
ATOM      4  C   LIG    1       -2.023   0.969   0.587  0.00  0.00    +0.049 A 
ATOM      5  C   LIG    1       -0.631   0.977   0.559  0.00  0.00    +0.049 A 
ATOM      6  C   LIG    1        0.075  -0.133   0.097  0.00  0.00    +0.121 A 
ENDROOT
BRANCH   3   7
ATOM      7  O   LIG    1       -4.112  -0.065   0.215  0.00  0.00    -0.492 OA
BRANCH   7   8
ATOM      8  C   LIG    1       -4.902  -1.173  -0.213  0.00  0.00    +0.230 C 
BRANCH   8   9
ATOM      9  C   LIG    1       -6.392  -0.810  -0.117  0.00  0.00    +0.056 C 
BRANCH   9  10
ATOM     10  C   LIG    1       -6.842  -0.438   1.313  0.00  0.00    +0.088 C 
BRANCH  10  11
ATOM     11  N   LIG    1       -8.299  -0.378   1.462  0.00  0.00    -0.298 NA
ATOM     12  C   LIG    1       -8.664  -0.254   2.880  0.00  0.00    +0.112 C 
ATOM     13  C   LIG    1      -10.191  -0.132   3.066  0.00  0.00    +0.175 C 
ATOM     14  O   LIG    1      -10.693   0.949   2.288  0.00  0.00    -0.377 OA
ATOM     15  C   LIG    1      -10.438   0.777   0.899  0.00  0.00    +0.175 C 
ATOM     16  C   LIG    1       -8.919   0.675   0.643  0.00  0.00    +0.112 C 
ENDBRANCH  10  11
ENDBRANCH   9  10
ENDBRANCH   8   9
ENDBRANCH   7   8
ENDBRANCH   3   7
BRANCH   6  17
ATOM     17  O   LIG    1        1.453  -0.035   0.107  0.00  0.00    -0.492 OA
BRANCH  17  18
ATOM     18  C   LIG    1        2.238  -1.141  -0.333  0.00  0.00    +0.229 C 
BRANCH  18  19
ATOM     19  C   LIG    1        3.730  -0.815  -0.155  0.00  0.00    +0.041 C 
BRANCH  19  20
ATOM     20  C   LIG    1        4.136  -0.583   1.313  0.00  0.00    -0.000 C 
ATOM     21  C   LIG    1        5.634  -0.296   1.481  0.00  0.00    +0.004 C 
ENDBRANCH  19  20
ENDBRANCH  18  19
ENDBRANCH  17  18
ENDBRANCH   6  17
TORSDOF 9
