REMARK  Name = DB09088
REMARK                            x       y       z     vdW  Elec       q    Type
REMARK                         _______ _______ _______ _____ _____    ______ ____
ROOT
ATOM      1  O   LIG    1       -0.346  -0.824   1.032  0.00  0.00    -0.454 OA
ENDROOT
BRANCH   1   2
ATOM      2  C   LIG    1        0.068  -2.127   1.133  0.00  0.00    +0.340 C 
ATOM      3  O   LIG    1        0.783  -2.688   0.300  0.00  0.00    -0.245 OA
BRANCH   2   7
ATOM      4  C   LIG    1       -1.345  -4.126   4.664  0.00  0.00    +0.000 A 
ATOM      5  C   LIG    1       -0.549  -4.804   3.746  0.00  0.00    +0.001 A 
ATOM      6  C   LIG    1       -0.098  -4.148   2.604  0.00  0.00    +0.015 A 
ATOM      7  C   LIG    1       -0.438  -2.807   2.371  0.00  0.00    +0.059 A 
ATOM      8  C   LIG    1       -1.244  -2.137   3.308  0.00  0.00    +0.015 A 
ATOM      9  C   LIG    1       -1.694  -2.796   4.449  0.00  0.00    +0.001 A 
ENDBRANCH   2   7
ENDBRANCH   1   2
BRANCH   1  10
ATOM     10  C   LIG    1       -0.016   0.086  -0.037  0.00  0.00    +0.123 C 
ATOM     11  C   LIG    1       -0.744   1.403   0.332  0.00  0.00    +0.057 C 
BRANCH  10  12
ATOM     12  C   LIG    1       -0.553  -0.442  -1.408  0.00  0.00    +0.046 C 
ATOM     13  C   LIG    1       -2.042  -0.841  -1.448  0.00  0.00    +0.008 C 
ENDBRANCH  10  12
BRANCH  10  14
ATOM     14  C   LIG    1        1.530   0.334  -0.164  0.00  0.00    +0.131 C 
BRANCH  14  15
ATOM     15  N   LIG    1        2.184   1.095   0.914  0.00  0.00    -0.305 NA
ATOM     16  C   LIG    1        3.555   1.416   0.525  0.00  0.00    +0.104 C 
ATOM     17  C   LIG    1        2.209   0.390   2.193  0.00  0.00    +0.104 C 
ENDBRANCH  14  15
ENDBRANCH  10  14
ENDBRANCH   1  10
TORSDOF 6
