REMARK  Name = DB09226
REMARK                            x       y       z     vdW  Elec       q    Type
REMARK                         _______ _______ _______ _____ _____    ______ ____
ROOT
ATOM      1  C   LIG    1       -0.171   1.266   0.402  0.00  0.00    -0.079 C 
ENDROOT
BRANCH   1   5
ATOM      2  N   LIG    1       -4.270   2.599   1.424  0.00  0.00    -0.332 N 
ATOM      3  C   LIG    1       -3.888   1.193   1.652  0.00  0.00    +0.086 C 
ATOM      4  C   LIG    1       -2.362   0.935   1.707  0.00  0.00    -0.060 C 
ATOM      5  N   LIG    1       -1.708   1.448   0.405  0.00  0.00    +0.382 N 
ATOM      6  H   LIG    1       -2.105   0.950  -0.380  0.00  0.00    -0.082 HD
ATOM      7  C   LIG    1       -2.063   2.941   0.252  0.00  0.00    -0.060 C 
ATOM      8  C   LIG    1       -3.599   3.084   0.204  0.00  0.00    +0.086 C 
BRANCH   2  14
ATOM      9 CL   LIG    1       -6.925   6.697   3.172  0.00  0.00    -0.082 Cl
ATOM     10  C   LIG    1       -5.780   5.410   3.343  0.00  0.00    +0.061 A 
ATOM     11  C   LIG    1       -5.133   5.261   4.568  0.00  0.00    +0.021 A 
ATOM     12  C   LIG    1       -4.220   4.230   4.754  0.00  0.00    +0.003 A 
ATOM     13  C   LIG    1       -3.942   3.351   3.711  0.00  0.00    +0.025 A 
ATOM     14  C   LIG    1       -4.559   3.491   2.457  0.00  0.00    +0.050 A 
ATOM     15  C   LIG    1       -5.506   4.525   2.288  0.00  0.00    +0.080 A 
ATOM     16 CL   LIG    1       -6.381   4.700   0.795  0.00  0.00    -0.080 Cl
ENDBRANCH   2  14
ENDBRANCH   1   5
BRANCH   1  17
ATOM     17  C   LIG    1        0.217  -0.222   0.322  0.00  0.00    -0.015 C 
BRANCH  17  18
ATOM     18  C   LIG    1        1.731  -0.422   0.133  0.00  0.00    +0.039 C 
BRANCH  18  19
ATOM     19  C   LIG    1        2.134  -1.901   0.042  0.00  0.00    +0.229 C 
BRANCH  19  20
ATOM     20  O   LIG    1        3.548  -1.980  -0.110  0.00  0.00    -0.492 OA
BRANCH  20  21
ATOM     21  C   LIG    1        4.148  -3.219  -0.228  0.00  0.00    +0.122 A 
ATOM     22  C   LIG    1        5.541  -3.229  -0.363  0.00  0.00    +0.072 A 
ATOM     23  C   LIG    1        6.229  -4.437  -0.485  0.00  0.00    +0.079 A 
ATOM     24  N   LIG    1        7.614  -4.484  -0.617  0.00  0.00    -0.280 N 
ATOM     25  H   LIG    1        8.117  -3.625  -0.787  0.00  0.00    +0.155 HD
ATOM     26  C   LIG    1        8.388  -5.579  -0.465  0.00  0.00    +0.255 C 
ATOM     27  O   LIG    1        9.611  -5.571  -0.592  0.00  0.00    -0.272 OA
ATOM     28  C   LIG    1        7.550  -6.846  -0.117  0.00  0.00    +0.325 C 
ATOM     29  O   LIG    1        6.208  -6.824  -0.659  0.00  0.00    -0.481 OA
ATOM     30  C   LIG    1        5.525  -5.640  -0.475  0.00  0.00    +0.143 A 
ATOM     31  C   LIG    1        4.138  -5.654  -0.353  0.00  0.00    +0.051 A 
ATOM     32  C   LIG    1        3.453  -4.444  -0.224  0.00  0.00    +0.049 A 
ENDBRANCH  20  21
ENDBRANCH  19  20
ENDBRANCH  18  19
ENDBRANCH  17  18
ENDBRANCH   1  17
TORSDOF 7
