REMARK  Name = DB09216
REMARK                            x       y       z     vdW  Elec       q    Type
REMARK                         _______ _______ _______ _____ _____    ______ ____
ROOT
ATOM      1  N   LIG    1        1.233  -0.262   0.285  0.00  0.00    -0.314 N 
ATOM      2  H   LIG    1        1.730   0.338  -0.359  0.00  0.00    +0.152 HD
ENDROOT
BRANCH   1   5
ATOM      3  C   LIG    1        0.204   2.289  -0.715  0.00  0.00    +0.047 C 
ATOM      4  C   LIG    1       -0.696   1.151  -0.222  0.00  0.00    -0.011 A 
ATOM      5  C   LIG    1       -0.162  -0.061   0.268  0.00  0.00    +0.036 A 
ATOM      6  C   LIG    1       -1.038  -1.077   0.676  0.00  0.00    +0.023 A 
ATOM      7  C   LIG    1       -2.416  -0.891   0.638  0.00  0.00    +0.003 A 
ATOM      8  C   LIG    1       -2.941   0.311   0.178  0.00  0.00    +0.020 A 
ATOM      9  C   LIG    1       -2.092   1.328  -0.255  0.00  0.00    +0.046 A 
ATOM     10 CL   LIG    1       -2.807   2.796  -0.832  0.00  0.00    -0.083 Cl
ENDBRANCH   1   5
BRANCH   1  11
ATOM     11  C   LIG    1        2.079  -1.154   0.975  0.00  0.00    +0.045 A 
ATOM     12  C   LIG    1        3.370  -1.493   0.480  0.00  0.00    +0.080 A 
ATOM     13  C   LIG    1        4.158  -2.382   1.237  0.00  0.00    +0.017 A 
ATOM     14  C   LIG    1        3.709  -2.909   2.444  0.00  0.00    +0.001 A 
ATOM     15  C   LIG    1        2.461  -2.552   2.933  0.00  0.00    +0.002 A 
ATOM     16  C   LIG    1        1.659  -1.678   2.208  0.00  0.00    +0.024 A 
BRANCH  12  17
ATOM     17  C   LIG    1        3.933  -0.945  -0.827  0.00  0.00    +0.339 C 
ATOM     18  O   LIG    1        3.333  -0.142  -1.541  0.00  0.00    -0.245 OA
BRANCH  17  19
ATOM     19  O   LIG    1        5.172  -1.411  -1.164  0.00  0.00    -0.477 OA
ATOM     20  H   LIG    1        5.483  -1.044  -1.995  0.00  0.00    +0.295 HD
ENDBRANCH  17  19
ENDBRANCH  12  17
ENDBRANCH   1  11
TORSDOF 4
