REMARK  Name = DB09041
REMARK                            x       y       z     vdW  Elec       q    Type
REMARK                         _______ _______ _______ _____ _____    ______ ____
ROOT
ATOM      1  C   LIG    1       -1.515  -2.950  -2.119  0.00  0.00    +0.000 A 
ATOM      2  C   LIG    1       -0.514  -2.259  -1.432  0.00  0.00    +0.000 A 
ATOM      3  C   LIG    1       -0.739  -0.937  -1.044  0.00  0.00    +0.000 A 
ATOM      4  B   LIG    1        0.109   0.131  -0.284  0.00  0.00    +0.000 B 
ATOM      5  O   LIG    1       -0.635   1.289  -0.183  0.00  0.00    +0.000 OA
ATOM      6  C   LIG    1       -1.906   1.106  -0.799  0.00  0.00    +0.000 C 
ATOM      7  C   LIG    1       -1.940  -0.309  -1.333  0.00  0.00    +0.000 A 
ATOM      8  C   LIG    1       -2.942  -0.996  -2.020  0.00  0.00    +0.000 A 
ATOM      9  C   LIG    1       -2.727  -2.320  -2.413  0.00  0.00    +0.000 A 
ATOM     10  F   LIG    1       -3.693  -2.992  -3.078  0.00  0.00    +0.000 F 
ENDROOT
BRANCH   4  11
ATOM     11  O   LIG    1        1.370  -0.078   0.187  0.00  0.00    +0.000 OA
ATOM     12  H   LIG    1        1.719   0.703   0.621  0.00  0.00    +0.000 HD
ENDBRANCH   4  11
TORSDOF 1
