REMARK  Name = DB09275
REMARK                            x       y       z     vdW  Elec       q    Type
REMARK                         _______ _______ _______ _____ _____    ______ ____
ROOT
ATOM      1  C   LIG    1        1.628   0.189   0.019  0.00  0.00    +0.182 C 
ENDROOT
BRANCH   1   2
ATOM      2  O   LIG    1        2.113   0.901   1.150  0.00  0.00    -0.376 OA
ATOM      3  H   LIG    1        1.801   0.470   1.961  0.00  0.00    +0.211 HD
ENDBRANCH   1   2
BRANCH   1   4
ATOM      4  C   LIG    1        2.116   0.859  -1.354  0.00  0.00    +0.338 C 
ATOM      5  O   LIG    1        1.753   0.304  -2.422  0.00  0.00    -0.248 OA
BRANCH   4   6
ATOM      6  O   LIG    1        2.830   1.897  -1.395  0.00  0.00    -0.479 OA
ATOM      7  H   LIG    1        3.101   2.311  -0.599  0.00  0.00    +0.295 HD
ENDBRANCH   4   6
ENDBRANCH   1   4
BRANCH   1   8
ATOM      8  C   LIG    1        0.033   0.115   0.009  0.00  0.00    +0.167 C 
BRANCH   8   9
ATOM      9  C   LIG    1       -0.791   1.445   0.035  0.00  0.00    +0.308 C 
ATOM     10  O   LIG    1       -1.139   1.949  -1.061  0.00  0.00    -0.251 OA
BRANCH   9  11
ATOM     11  O   LIG    1       -1.157   1.897   1.148  0.00  0.00    -0.481 OA
ATOM     12  H   LIG    1       -0.869   1.484   1.938  0.00  0.00    +0.295 HD
ENDBRANCH   9  11
ENDBRANCH   8   9
ENDBRANCH   1   8
BRANCH   1  13
ATOM     13  C   LIG    1        2.102  -1.336   0.041  0.00  0.00    +0.167 C 
BRANCH  13  14
ATOM     14  C   LIG    1        3.634  -1.657   0.072  0.00  0.00    +0.308 C 
ATOM     15  O   LIG    1        4.219  -1.860  -1.020  0.00  0.00    -0.251 OA
BRANCH  14  16
ATOM     16  O   LIG    1        4.190  -1.800   1.188  0.00  0.00    -0.481 OA
ATOM     17  H   LIG    1        3.709  -1.636   1.976  0.00  0.00    +0.295 HD
ENDBRANCH  14  16
ENDBRANCH  13  14
ENDBRANCH   1  13
TORSDOF 9
