REMARK  Name = DB09377
REMARK                            x       y       z     vdW  Elec       q    Type
REMARK                         _______ _______ _______ _____ _____    ______ ____
ROOT
ATOM      1  C   LIG    1       -0.725   2.094   0.984  0.00  0.00    +0.227 C 
ATOM      2  O   LIG    1       -0.351   1.767   2.112  0.00  0.00    -0.274 OA
ATOM      3  N   LIG    1       -0.636   1.282  -0.084  0.00  0.00    -0.311 N 
ATOM      4  H   LIG    1       -0.962   1.620  -0.978  0.00  0.00    +0.149 HD
ENDROOT
BRANCH   1   5
ATOM      5  C   LIG    1       -1.318   3.487   0.702  0.00  0.00    +0.181 C 
BRANCH   5   6
ATOM      6  N   LIG    1       -1.569   4.260   1.947  0.00  0.00    -0.284 NA
ATOM      7  C   LIG    1       -2.768   4.135   2.573  0.00  0.00    +0.079 C 
ATOM      8  C   LIG    1       -3.020   4.843   3.751  0.00  0.00    +0.016 C 
ATOM      9  C   LIG    1       -2.028   5.673   4.277  0.00  0.00    +0.003 C 
ATOM     10  C   LIG    1       -0.801   5.781   3.619  0.00  0.00    +0.016 C 
ATOM     11  C   LIG    1       -0.588   5.057   2.443  0.00  0.00    +0.079 C 
ENDBRANCH   5   6
ENDBRANCH   1   5
BRANCH   3  12
ATOM     12  C   LIG    1       -0.085  -0.074  -0.070  0.00  0.00    +0.145 C 
BRANCH  12  13
ATOM     13  C   LIG    1        1.445  -0.128   0.105  0.00  0.00    +0.251 C 
BRANCH  13  14
ATOM     14  O   LIG    1        2.089   0.594  -0.940  0.00  0.00    -0.463 OA
BRANCH  14  15
ATOM     15  C   LIG    1        3.428   0.750  -0.943  0.00  0.00    +0.307 C 
ATOM     16  O   LIG    1        4.209   0.308  -0.096  0.00  0.00    -0.251 OA
BRANCH  15  17
ATOM     17  C   LIG    1        3.899   1.570  -2.151  0.00  0.00    +0.117 C 
ATOM     18  C   LIG    1        5.418   1.815  -2.204  0.00  0.00    +0.015 C 
ENDBRANCH  15  17
ENDBRANCH  14  15
ENDBRANCH  13  14
ENDBRANCH  12  13
ENDBRANCH   3  12
TORSDOF 7
