REMARK  Name = DB09401
REMARK                            x       y       z     vdW  Elec       q    Type
REMARK                         _______ _______ _______ _____ _____    ______ ____
ROOT
ATOM      1  C   LIG    1       -0.534  -0.790   1.248  0.00  0.00    +0.194 C 
ATOM      2  O   LIG    1       -1.846  -1.170   0.842  0.00  0.00    -0.369 OA
ATOM      3  C   LIG    1       -1.888  -1.356  -0.577  0.00  0.00    +0.180 C 
ATOM      4  C   LIG    1       -0.582  -0.767  -1.115  0.00  0.00    +0.180 C 
ATOM      5  O   LIG    1        0.196  -1.908  -1.481  0.00  0.00    -0.369 OA
ATOM      6  C   LIG    1       -0.679  -2.939  -1.918  0.00  0.00    +0.194 C 
ATOM      7  C   LIG    1       -1.886  -2.823  -0.991  0.00  0.00    +0.171 C 
ATOM      8  C   LIG    1       -0.018   0.013   0.059  0.00  0.00    +0.171 C 
ENDROOT
BRANCH   7   9
ATOM      9  O   LIG    1       -3.101  -3.238  -1.584  0.00  0.00    -0.387 OA
ATOM     10  H   LIG    1       -3.699  -3.518  -0.887  0.00  0.00    +0.210 HD
ENDBRANCH   7   9
BRANCH   8  11
ATOM     11  O   LIG    1        1.387   0.174   0.030  0.00  0.00    -0.387 OA
ATOM     12  H   LIG    1        1.597   0.929  -0.525  0.00  0.00    +0.210 HD
ENDBRANCH   8  11
TORSDOF 2
