REMARK  Name = DB09152
REMARK                            x       y       z     vdW  Elec       q    Type
REMARK                         _______ _______ _______ _____ _____    ______ ____
ROOT
ATOM      1  N   LIG    1        0.044   0.092  -0.587  0.00  0.00    +0.000 NA
ATOM      2  N   LIG    1       -0.044  -0.092   0.587  0.00  0.00    +0.000 NA
ENDROOT
TORSDOF 0
