REMARK  Name = DB09293
REMARK                            x       y       z     vdW  Elec       q    Type
REMARK                         _______ _______ _______ _____ _____    ______ ____
ROOT
ATOM      1  I   LIG    1        0.000   0.000   0.000  0.00  0.00    -0.107 I 
ATOM      2  H   LIG    1        0.000   0.000   0.000  0.00  0.00    +0.107 HD
ENDROOT
TORSDOF 0
