REMARK  Name = DB09086
REMARK                            x       y       z     vdW  Elec       q    Type
REMARK                         _______ _______ _______ _____ _____    ______ ____
ROOT
ATOM      1  C   LIG    1        1.336   0.002  -0.037  0.00  0.00    +0.162 A 
ATOM      2  C   LIG    1        1.987  -1.240  -0.075  0.00  0.00    +0.158 A 
ATOM      3  C   LIG    1        3.380  -1.312  -0.056  0.00  0.00    +0.049 A 
ATOM      4  C   LIG    1        4.142  -0.147   0.001  0.00  0.00    +0.008 A 
ATOM      5  C   LIG    1        3.514   1.100   0.044  0.00  0.00    -0.040 A 
ATOM      6  C   LIG    1        2.118   1.170   0.021  0.00  0.00    +0.053 A 
ENDROOT
BRANCH   1   7
ATOM      7  O   LIG    1       -0.048   0.001  -0.059  0.00  0.00    -0.491 OA
ATOM      8  C   LIG    1       -0.749   1.240  -0.022  0.00  0.00    +0.277 C 
ENDBRANCH   1   7
BRANCH   2   9
ATOM      9  O   LIG    1        1.265  -2.405  -0.134  0.00  0.00    -0.503 OA
ATOM     10  H   LIG    1        1.819  -3.188  -0.155  0.00  0.00    +0.292 HD
ENDBRANCH   2   9
BRANCH   5  11
ATOM     11  C   LIG    1        4.345   2.373   0.095  0.00  0.00    +0.061 C 
BRANCH  11  12
ATOM     12  C   LIG    1        4.583   2.859   1.512  0.00  0.00    -0.030 C 
ATOM     13  C   LIG    1        5.790   2.986   2.086  0.00  0.00    +0.004 C 
ENDBRANCH  11  12
ENDBRANCH   5  11
TORSDOF 4
