REMARK  Name = DB09543
REMARK                            x       y       z     vdW  Elec       q    Type
REMARK                         _______ _______ _______ _____ _____    ______ ____
ROOT
ATOM      1  C   LIG    1        0.007  -0.067   0.000  0.00  0.00    +0.100 A 
ATOM      2  C   LIG    1       -0.746  -1.265   0.000  0.00  0.00    +0.131 A 
ATOM      3  C   LIG    1       -2.142  -1.224   0.000  0.00  0.00    +0.046 A 
ATOM      4  C   LIG    1       -2.816  -0.006   0.000  0.00  0.00    +0.004 A 
ATOM      5  C   LIG    1       -2.093   1.182   0.000  0.00  0.00    +0.001 A 
ATOM      6  C   LIG    1       -0.700   1.152   0.000  0.00  0.00    +0.018 A 
ENDROOT
BRANCH   1   7
ATOM      7  C   LIG    1        1.520  -0.066   0.000  0.00  0.00    +0.342 C 
ATOM      8  O   LIG    1        2.210  -1.089   0.000  0.00  0.00    -0.245 OA
BRANCH   7  10
ATOM      9  C   LIG    1        3.465   1.377   0.000  0.00  0.00    +0.280 C 
ATOM     10  O   LIG    1        2.057   1.183   0.000  0.00  0.00    -0.464 OA
ENDBRANCH   7  10
ENDBRANCH   1   7
BRANCH   2  11
ATOM     11  O   LIG    1       -0.166  -2.511   0.000  0.00  0.00    -0.506 OA
ATOM     12  H   LIG    1       -0.810  -3.222   0.000  0.00  0.00    +0.292 HD
ENDBRANCH   2  11
TORSDOF 3
