REMARK  Name = DB09212
REMARK                            x       y       z     vdW  Elec       q    Type
REMARK                         _______ _______ _______ _____ _____    ______ ____
ROOT
ATOM      1  C   LIG    1        1.474   0.054  -0.048  0.00  0.00    -0.034 A 
ATOM      2  C   LIG    1        2.194  -0.734   0.856  0.00  0.00    +0.005 A 
ATOM      3  C   LIG    1        3.586  -0.725   0.840  0.00  0.00    +0.004 A 
ATOM      4  C   LIG    1        4.269   0.069  -0.084  0.00  0.00    -0.047 A 
ATOM      5  C   LIG    1        3.556   0.856  -0.991  0.00  0.00    +0.004 A 
ATOM      6  C   LIG    1        2.164   0.847  -0.974  0.00  0.00    +0.005 A 
ENDROOT
BRANCH   1   8
ATOM      7  C   LIG    1       -0.681   1.427   0.143  0.00  0.00    +0.024 C 
ATOM      8  C   LIG    1       -0.059   0.022  -0.027  0.00  0.00    +0.124 C 
BRANCH   8   9
ATOM      9  C   LIG    1       -0.600  -0.711  -1.270  0.00  0.00    +0.312 C 
ATOM     10  O   LIG    1       -0.823  -0.156  -2.345  0.00  0.00    -0.250 OA
BRANCH   9  11
ATOM     11  O   LIG    1       -0.761  -2.047  -1.041  0.00  0.00    -0.480 OA
ATOM     12  H   LIG    1       -1.082  -2.512  -1.817  0.00  0.00    +0.295 HD
ENDBRANCH   9  11
ENDBRANCH   8   9
ENDBRANCH   1   8
BRANCH   4  13
ATOM     13  C   LIG    1        5.791   0.068  -0.105  0.00  0.00    +0.046 C 
BRANCH  13  14
ATOM     14  C   LIG    1        6.383  -1.180  -0.804  0.00  0.00    +0.060 C 
ATOM     15  C   LIG    1        7.923  -1.172  -0.775  0.00  0.00    +0.137 C 
ATOM     16  O   LIG    1        8.634  -0.770   0.145  0.00  0.00    -0.297 OA
ATOM     17  C   LIG    1        8.429  -1.718  -2.115  0.00  0.00    +0.074 C 
ATOM     18  C   LIG    1        7.173  -2.162  -2.865  0.00  0.00    +0.008 C 
ATOM     19  C   LIG    1        6.050  -1.313  -2.294  0.00  0.00    +0.012 C 
ENDBRANCH  13  14
ENDBRANCH   4  13
TORSDOF 5
