REMARK  Name = DB09257
REMARK                            x       y       z     vdW  Elec       q    Type
REMARK                         _______ _______ _______ _____ _____    ______ ____
ROOT
ATOM      1 CL   LIG    1        1.303  -2.835   0.000  0.00  0.00    -0.078 Cl
ATOM      2  C   LIG    1        2.103  -1.258   0.000  0.00  0.00    +0.098 A 
ATOM      3  C   LIG    1        3.448  -1.162   0.000  0.00  0.00    +0.109 A 
ATOM      4  N   LIG    1        4.135   0.023   0.000  0.00  0.00    -0.327 N 
ATOM      5  H   LIG    1        5.144   0.038   0.000  0.00  0.00    +0.168 HD
ATOM      6  C   LIG    1        3.514   1.238   0.000  0.00  0.00    +0.252 A 
ATOM      7  C   LIG    1        2.052   1.165   0.000  0.00  0.00    +0.117 A 
ATOM      8  O   LIG    1        4.141   2.294   0.000  0.00  0.00    -0.268 OA
ATOM      9  C   LIG    1        1.353  -0.001   0.000  0.00  0.00    +0.142 A 
ENDROOT
BRANCH   9  10
ATOM     10  O   LIG    1       -0.005   0.010   0.000  0.00  0.00    -0.505 OA
ATOM     11  H   LIG    1       -0.317   0.918   0.000  0.00  0.00    +0.292 HD
ENDBRANCH   9  10
TORSDOF 1
