REMARK  Name = DB09094
REMARK                            x       y       z     vdW  Elec       q    Type
REMARK                         _______ _______ _______ _____ _____    ______ ____
ROOT
ATOM      1  C   LIG    1       -2.416   0.889   1.680  0.00  0.00    +0.151 C 
ATOM      2  C   LIG    1       -1.813  -0.497   1.949  0.00  0.00    -0.011 A 
ATOM      3  C   LIG    1       -2.402  -1.353   2.904  0.00  0.00    +0.056 A 
ATOM      4  C   LIG    1       -1.777  -2.547   3.221  0.00  0.00    +0.167 A 
ATOM      5  C   LIG    1       -0.608  -2.912   2.636  0.00  0.00    +0.167 A 
ATOM      6  C   LIG    1        0.012  -2.106   1.696  0.00  0.00    +0.054 A 
ATOM      7  O   LIG    1       -0.237  -4.138   3.090  0.00  0.00    -0.453 OA
ATOM      8  C   LIG    1       -1.110  -4.426   4.149  0.00  0.00    +0.466 C 
ATOM      9  O   LIG    1       -2.181  -3.523   4.075  0.00  0.00    -0.453 OA
ATOM     10  C   LIG    1       -0.566  -0.864   1.355  0.00  0.00    -0.030 A 
ATOM     11  C   LIG    1        0.075  -0.008   0.234  0.00  0.00    +0.064 C 
ATOM     12  C   LIG    1       -0.585   1.396   0.002  0.00  0.00    +0.117 C 
ATOM     13  C   LIG    1       -2.123   1.382   0.235  0.00  0.00    +0.062 C 
ENDROOT
BRANCH  11  14
ATOM     14  C   LIG    1        1.618  -0.007   0.166  0.00  0.00    -0.032 A 
ATOM     15  C   LIG    1        2.250   0.060  -1.079  0.00  0.00    +0.054 A 
ATOM     16  C   LIG    1        3.650   0.059  -1.184  0.00  0.00    +0.165 A 
ATOM     17  C   LIG    1        4.416  -0.001  -0.012  0.00  0.00    +0.204 A 
ATOM     18  C   LIG    1        3.805  -0.072   1.247  0.00  0.00    +0.165 A 
ATOM     19  C   LIG    1        2.404  -0.070   1.321  0.00  0.00    +0.054 A 
BRANCH  18  20
ATOM     20  O   LIG    1        4.636  -0.137   2.352  0.00  0.00    -0.491 OA
ATOM     21  C   LIG    1        4.063  -0.206   3.653  0.00  0.00    +0.277 C 
ENDBRANCH  18  20
BRANCH  17  22
ATOM     22  O   LIG    1        5.787  -0.016  -0.099  0.00  0.00    -0.488 OA
ATOM     23  C   LIG    1        6.382   1.274  -0.094  0.00  0.00    +0.277 C 
ENDBRANCH  17  22
BRANCH  16  24
ATOM     24  O   LIG    1        4.334   0.117  -2.385  0.00  0.00    -0.491 OA
ATOM     25  C   LIG    1        3.602   0.188  -3.603  0.00  0.00    +0.277 C 
ENDBRANCH  16  24
ENDBRANCH  11  14
BRANCH   1  26
ATOM     26  O   LIG    1       -3.777   1.038   2.048  0.00  0.00    -0.387 OA
ATOM     27  H   LIG    1       -3.839   1.018   3.005  0.00  0.00    +0.210 HD
ENDBRANCH   1  26
BRANCH  12  28
ATOM     28  C   LIG    1        0.071   2.558   0.798  0.00  0.00    +0.309 C 
ATOM     29  O   LIG    1        0.628   2.418   1.885  0.00  0.00    -0.251 OA
BRANCH  28  30
ATOM     30  O   LIG    1       -0.073   3.756   0.158  0.00  0.00    -0.480 OA
ATOM     31  H   LIG    1        0.321   4.480   0.648  0.00  0.00    +0.295 HD
ENDBRANCH  28  30
ENDBRANCH  12  28
BRANCH  13  32
ATOM     32  C   LIG    1       -2.851   0.590  -0.886  0.00  0.00    +0.163 C 
BRANCH  32  33
ATOM     33  O   LIG    1       -4.252   0.771  -0.856  0.00  0.00    -0.395 OA
ATOM     34  H   LIG    1       -4.645   0.239  -1.551  0.00  0.00    +0.209 HD
ENDBRANCH  32  33
ENDBRANCH  13  32
TORSDOF 9
