REMARK  Name = DB09075
REMARK                            x       y       z     vdW  Elec       q    Type
REMARK                         _______ _______ _______ _____ _____    ______ ____
ROOT
ATOM      1  C   LIG    1       -0.327  -0.589   1.434  0.00  0.00    +0.037 C 
ATOM      2  C   LIG    1       -0.079  -2.103   1.188  0.00  0.00    +0.077 C 
ATOM      3  C   LIG    1       -0.780  -2.538  -0.123  0.00  0.00    +0.014 C 
ATOM      4  C   LIG    1       -0.275  -1.698  -1.321  0.00  0.00    +0.025 C 
ATOM      5  C   LIG    1       -0.324  -0.164  -1.063  0.00  0.00    +0.094 C 
ATOM      6  C   LIG    1        0.324   0.236   0.292  0.00  0.00    +0.094 C 
ENDROOT
BRANCH   2   7
ATOM      7  C   LIG    1       -0.631  -2.961   2.360  0.00  0.00    +0.218 C 
ATOM      8  N   LIG    1       -0.102  -4.190   2.611  0.00  0.00    -0.307 N 
ATOM      9  C   LIG    1        0.943  -4.846   1.820  0.00  0.00    +0.131 C 
ATOM     10  C   LIG    1       -0.540  -5.006   3.748  0.00  0.00    +0.131 C 
ATOM     11  O   LIG    1       -1.546  -2.499   3.048  0.00  0.00    -0.275 OA
ENDBRANCH   2   7
BRANCH   5  12
ATOM     12  N   LIG    1        0.083   0.686  -2.188  0.00  0.00    -0.303 N 
ATOM     13  H   LIG    1        0.965   1.168  -2.078  0.00  0.00    +0.149 HD
ATOM     14  C   LIG    1       -0.563   0.817  -3.365  0.00  0.00    +0.300 C 
ATOM     15  O   LIG    1       -1.638   0.262  -3.616  0.00  0.00    -0.265 OA
BRANCH  14  16
ATOM     16  C   LIG    1        0.146   1.702  -4.333  0.00  0.00    +0.304 C 
ATOM     17  O   LIG    1        1.242   2.217  -4.084  0.00  0.00    -0.265 OA
ATOM     18  N   LIG    1       -0.543   1.866  -5.488  0.00  0.00    -0.263 N 
ATOM     19  H   LIG    1       -1.431   1.389  -5.551  0.00  0.00    +0.157 HD
BRANCH  18  20
ATOM     20  C   LIG    1       -0.198   2.624  -6.622  0.00  0.00    +0.125 A 
ATOM     21  C   LIG    1       -1.137   2.649  -7.660  0.00  0.00    +0.045 A 
ATOM     22  C   LIG    1       -0.852   3.381  -8.815  0.00  0.00    +0.025 A 
ATOM     23  C   LIG    1        0.359   4.068  -8.912  0.00  0.00    +0.059 A 
ATOM     24 CL   LIG    1        0.744   4.981 -10.325  0.00  0.00    -0.082 Cl
ATOM     25  C   LIG    1        1.250   4.000  -7.842  0.00  0.00    +0.132 A 
ATOM     26  N   LIG    1        0.989   3.294  -6.712  0.00  0.00    -0.239 NA
ENDBRANCH  18  20
ENDBRANCH  14  16
ENDBRANCH   5  12
BRANCH   6  27
ATOM     27  N   LIG    1        1.786   0.107   0.233  0.00  0.00    -0.305 N 
ATOM     28  H   LIG    1        2.140  -0.603  -0.392  0.00  0.00    +0.149 HD
ATOM     29  C   LIG    1        2.663   0.699   1.066  0.00  0.00    +0.269 C 
ATOM     30  O   LIG    1        2.332   1.464   1.976  0.00  0.00    -0.268 OA
BRANCH  29  31
ATOM     31  C   LIG    1        4.044   0.373   0.790  0.00  0.00    +0.163 A 
ATOM     32  S   LIG    1        5.269   1.127   1.780  0.00  0.00    -0.066 S 
ATOM     33  C   LIG    1        6.485   0.278   0.881  0.00  0.00    +0.027 A 
ATOM     34  C   LIG    1        7.992   0.399   1.023  0.00  0.00    +0.128 C 
ATOM     35  N   LIG    1        8.623  -0.794   0.437  0.00  0.00    -0.300 NA
ATOM     36  C   LIG    1       10.076  -0.678   0.504  0.00  0.00    +0.105 C 
ATOM     37  C   LIG    1        8.181  -0.998  -0.952  0.00  0.00    +0.090 C 
ATOM     38  C   LIG    1        6.674  -1.386  -1.025  0.00  0.00    +0.071 C 
ATOM     39  C   LIG    1        5.863  -0.500  -0.089  0.00  0.00    +0.055 A 
ATOM     40  N   LIG    1        4.545  -0.436  -0.123  0.00  0.00    -0.239 NA
ENDBRANCH  29  31
ENDBRANCH   6  27
TORSDOF 6
