REMARK  Name = DB09115
REMARK                            x       y       z     vdW  Elec       q    Type
REMARK                         _______ _______ _______ _____ _____    ______ ____
ROOT
ATOM      1  C   LIG    1       -0.695   1.195   0.000  0.00  0.00    +0.058 A 
ATOM      2  I   LIG    1        0.281   3.051   0.000  0.00  0.00    -0.040 I 
ATOM      3  C   LIG    1        0.025  -0.002   0.000  0.00  0.00    +0.156 A 
ATOM      4  C   LIG    1       -0.671  -1.247   0.000  0.00  0.00    +0.114 A 
ATOM      5  N   LIG    1        0.046  -2.411   0.000  0.00  0.00    -0.251 NA
ATOM      6  C   LIG    1       -0.622  -3.589   0.000  0.00  0.00    +0.111 A 
ATOM      7  C   LIG    1       -2.008  -3.684   0.000  0.00  0.00    +0.020 A 
ATOM      8  C   LIG    1       -2.759  -2.512   0.000  0.00  0.00    +0.012 A 
ATOM      9  C   LIG    1       -2.103  -1.250   0.000  0.00  0.00    +0.017 A 
ATOM     10  C   LIG    1       -2.800  -0.010   0.000  0.00  0.00    +0.024 A 
ATOM     11  I   LIG    1       -4.895   0.103   0.000  0.00  0.00    -0.043 I 
ATOM     12  C   LIG    1       -2.085   1.184   0.000  0.00  0.00    +0.033 A 
ENDROOT
BRANCH   3  13
ATOM     13  O   LIG    1        1.399   0.031   0.000  0.00  0.00    -0.504 OA
ATOM     14  H   LIG    1        1.788  -0.847   0.000  0.00  0.00    +0.292 HD
ENDBRANCH   3  13
TORSDOF 1
