REMARK  Name = DB09143
REMARK                            x       y       z     vdW  Elec       q    Type
REMARK                         _______ _______ _______ _____ _____    ______ ____
ROOT
ATOM      1  O   LIG    1       -0.593   1.058   0.606  0.00  0.00    -0.270 OA
ATOM      2  C   LIG    1       -0.048  -0.044   0.506  0.00  0.00    +0.249 C 
ATOM      3  N   LIG    1       -0.712  -1.213   0.361  0.00  0.00    -0.280 N 
ATOM      4  H   LIG    1       -0.164  -2.061   0.366  0.00  0.00    +0.155 HD
ENDROOT
BRANCH   2   5
ATOM      5  C   LIG    1        1.460  -0.162   0.555  0.00  0.00    +0.041 A 
ATOM      6  C   LIG    1        2.248   0.542   1.503  0.00  0.00    -0.031 A 
ATOM      7  C   LIG    1        1.583   1.343   2.631  0.00  0.00    +0.045 C 
ATOM      8  C   LIG    1        3.661   0.446   1.453  0.00  0.00    -0.014 A 
ATOM      9  C   LIG    1        4.250  -0.389   0.496  0.00  0.00    +0.009 A 
ATOM     10  C   LIG    1        3.480  -1.097  -0.416  0.00  0.00    +0.001 A 
ATOM     11  C   LIG    1        2.097  -0.977  -0.391  0.00  0.00    +0.013 A 
BRANCH   8  12
ATOM     12  C   LIG    1        4.567   1.205   2.367  0.00  0.00    -0.017 A 
ATOM     13  C   LIG    1        5.574   0.542   3.077  0.00  0.00    +0.012 A 
ATOM     14  C   LIG    1        6.431   1.245   3.921  0.00  0.00    +0.046 A 
ATOM     15  C   LIG    1        6.299   2.634   4.066  0.00  0.00    +0.130 A 
ATOM     16  C   LIG    1        5.302   3.296   3.350  0.00  0.00    +0.046 A 
ATOM     17  C   LIG    1        4.448   2.592   2.506  0.00  0.00    +0.012 A 
BRANCH  15  18
ATOM     18  O   LIG    1        7.097   3.420   4.877  0.00  0.00    -0.406 OA
BRANCH  18  19
ATOM     19  C   LIG    1        8.156   2.840   5.638  0.00  0.00    +0.575 C 
ATOM     20  F   LIG    1        9.078   2.279   4.854  0.00  0.00    -0.133 F 
ATOM     21  F   LIG    1        7.698   1.963   6.534  0.00  0.00    -0.133 F 
ATOM     22  F   LIG    1        8.747   3.827   6.310  0.00  0.00    -0.133 F 
ENDBRANCH  18  19
ENDBRANCH  15  18
ENDBRANCH   8  12
ENDBRANCH   2   5
BRANCH   3  23
ATOM     23  C   LIG    1       -2.103  -1.384   0.290  0.00  0.00    +0.052 A 
ATOM     24  C   LIG    1       -2.958  -0.505  -0.385  0.00  0.00    +0.136 A 
ATOM     25  N   LIG    1       -4.299  -0.697  -0.459  0.00  0.00    -0.238 NA
ATOM     26  C   LIG    1       -4.856  -1.783   0.153  0.00  0.00    +0.121 A 
ATOM     27  C   LIG    1       -4.044  -2.721   0.815  0.00  0.00    +0.045 A 
ATOM     28  C   LIG    1       -2.664  -2.517   0.882  0.00  0.00    +0.028 A 
BRANCH  26  29
ATOM     29  N   LIG    1       -6.240  -1.958   0.017  0.00  0.00    -0.310 N 
ATOM     30  C   LIG    1       -6.963  -2.929   0.869  0.00  0.00    +0.137 C 
ATOM     31  C   LIG    1       -8.510  -3.064   0.710  0.00  0.00    +0.133 C 
ATOM     32  C   LIG    1       -9.257  -3.490   1.979  0.00  0.00    +0.039 C 
ATOM     33  O   LIG    1       -9.176  -2.023   0.001  0.00  0.00    -0.371 OA
ATOM     34  C   LIG    1       -8.410  -1.456  -1.047  0.00  0.00    +0.133 C 
ATOM     35  C   LIG    1       -9.271  -0.366  -1.700  0.00  0.00    +0.039 C 
ATOM     36  C   LIG    1       -7.133  -0.872  -0.423  0.00  0.00    +0.137 C 
ENDBRANCH  26  29
ENDBRANCH   3  23
TORSDOF 6
