REMARK  Name = DB09282
REMARK                            x       y       z     vdW  Elec       q    Type
REMARK                         _______ _______ _______ _____ _____    ______ ____
ROOT
ATOM      1  N   LIG    1       -2.237  -0.299   0.003  0.00  0.00    -0.151 N 
ATOM      2  N   LIG    1       -1.881   0.998   0.008  0.00  0.00    +0.032 NA
ATOM      3  O   LIG    1       -0.483   1.015   0.006  0.00  0.00    -0.320 OA
ATOM      4  C   LIG    1        0.003  -0.271   0.001  0.00  0.00    +0.246 A 
ATOM      5  C   LIG    1       -1.119  -1.107  -0.001  0.00  0.00    +0.199 A 
ENDROOT
BRANCH   1   6
ATOM      6  N   LIG    1       -3.561  -0.759   0.003  0.00  0.00    -0.249 N 
ATOM      7  C   LIG    1       -4.293  -0.339  -1.197  0.00  0.00    +0.154 C 
ATOM      8  C   LIG    1       -5.718  -0.932  -1.177  0.00  0.00    +0.180 C 
ATOM      9  O   LIG    1       -6.386  -0.542   0.021  0.00  0.00    -0.377 OA
ATOM     10  C   LIG    1       -5.706  -0.963   1.200  0.00  0.00    +0.180 C 
ATOM     11  C   LIG    1       -4.281  -0.370   1.222  0.00  0.00    +0.154 C 
ENDBRANCH   1   6
BRANCH   4  12
ATOM     12  N   LIG    1        1.349  -0.407   0.000  0.00  0.00    -0.218 N 
ATOM     13  H   LIG    1        1.933   0.386   0.001  0.00  0.00    +0.161 HD
ATOM     14  C   LIG    1        1.871  -1.637  -0.003  0.00  0.00    +0.407 C 
ATOM     15  O   LIG    1        1.321  -2.745  -0.006  0.00  0.00    -0.226 OA
BRANCH  14  16
ATOM     16  O   LIG    1        3.223  -1.542  -0.002  0.00  0.00    -0.450 OA
BRANCH  16  17
ATOM     17  C   LIG    1        4.057  -2.696  -0.001  0.00  0.00    +0.230 C 
ATOM     18  C   LIG    1        5.527  -2.267   0.000  0.00  0.00    +0.048 C 
ENDBRANCH  16  17
ENDBRANCH  14  16
ENDBRANCH   4  12
TORSDOF 4
