REMARK  Name = DB09085
REMARK                            x       y       z     vdW  Elec       q    Type
REMARK                         _______ _______ _______ _____ _____    ______ ____
ROOT
ATOM      1  C   LIG    1       -2.551  -0.039  -0.159  0.00  0.00    +0.027 A 
ATOM      2  C   LIG    1       -1.838  -1.240  -0.070  0.00  0.00    +0.024 A 
ATOM      3  C   LIG    1       -0.454  -1.246  -0.220  0.00  0.00    +0.017 A 
ATOM      4  C   LIG    1        0.243  -0.053  -0.464  0.00  0.00    +0.059 A 
ATOM      5  C   LIG    1       -0.479   1.144  -0.555  0.00  0.00    +0.017 A 
ATOM      6  C   LIG    1       -1.863   1.150  -0.403  0.00  0.00    +0.024 A 
ENDROOT
BRANCH   1   7
ATOM      7  N   LIG    1       -3.947   0.035  -0.012  0.00  0.00    -0.344 N 
ATOM      8  H   LIG    1       -4.406   0.905  -0.242  0.00  0.00    +0.146 HD
BRANCH   7   9
ATOM      9  C   LIG    1       -4.776  -1.157   0.130  0.00  0.00    +0.101 C 
BRANCH   9  10
ATOM     10  C   LIG    1       -6.272  -0.843   0.308  0.00  0.00    +0.018 C 
BRANCH  10  12
ATOM     11  C   LIG    1       -8.425   0.088  -0.725  0.00  0.00    +0.004 C 
ATOM     12  C   LIG    1       -6.925  -0.171  -0.915  0.00  0.00    -0.002 C 
ENDBRANCH  10  12
ENDBRANCH   9  10
ENDBRANCH   7   9
ENDBRANCH   1   7
BRANCH   4  13
ATOM     13  C   LIG    1        1.735  -0.023  -0.629  0.00  0.00    +0.339 C 
ATOM     14  O   LIG    1        2.368   1.003  -0.893  0.00  0.00    -0.245 OA
BRANCH  13  15
ATOM     15  O   LIG    1        2.318  -1.235  -0.443  0.00  0.00    -0.460 OA
BRANCH  15  16
ATOM     16  C   LIG    1        3.729  -1.397  -0.548  0.00  0.00    +0.247 C 
BRANCH  16  17
ATOM     17  C   LIG    1        4.133  -2.844  -0.201  0.00  0.00    +0.125 C 
BRANCH  17  18
ATOM     18  N   LIG    1        3.796  -3.240   1.171  0.00  0.00    -0.305 NA
ATOM     19  C   LIG    1        4.540  -2.476   2.172  0.00  0.00    +0.104 C 
ATOM     20  C   LIG    1        4.066  -4.663   1.355  0.00  0.00    +0.104 C 
ENDBRANCH  17  18
ENDBRANCH  16  17
ENDBRANCH  15  16
ENDBRANCH  13  15
ENDBRANCH   4  13
TORSDOF 9
