REMARK  Name = DB09110
REMARK                            x       y       z     vdW  Elec       q    Type
REMARK                         _______ _______ _______ _____ _____    ______ ____
ROOT
ATOM      1  S   LIG    1       -0.101  -0.002   0.000  0.00  0.00    +0.081 S 
ATOM      2  O   LIG    1       -0.593  -0.530  -1.277  0.00  0.00    -0.147 OA
ATOM      3  O   LIG    1       -0.593  -0.530   1.277  0.00  0.00    -0.147 OA
ENDROOT
BRANCH   1   4
ATOM      4  O   LIG    1       -0.332   1.642   0.000  0.00  0.00    -0.254 OA
ATOM      5  H   LIG    1       -1.285   1.856   0.000  0.00  0.00    +0.244 HD
ENDBRANCH   1   4
BRANCH   1   6
ATOM      6  C   LIG    1        1.788  -0.003   0.000  0.00  0.00    +0.208 C 
BRANCH   6   7
ATOM      7  C   LIG    1        2.307  -1.447   0.000  0.00  0.00    +0.091 C 
BRANCH   7   8
ATOM      8  S   LIG    1        4.119  -1.433   0.000  0.00  0.00    -0.177 S 
ATOM      9  H   LIG    1        4.271  -2.760   0.000  0.00  0.00    +0.102 HD
ENDBRANCH   7   8
ENDBRANCH   6   7
ENDBRANCH   1   6
TORSDOF 4
