REMARK  Name = DB09481
REMARK                            x       y       z     vdW  Elec       q    Type
REMARK                         _______ _______ _______ _____ _____    ______ ____
ROOT
ATOM      1  O   LIG    1       -0.128   0.575  -0.145  0.00  0.00    -0.203 OA
ATOM      2  C   LIG    1        0.600  -0.080   0.631  0.00  0.00    +0.505 C 
ENDROOT
BRANCH   2   3
ATOM      3  O   LIG    1        0.466   0.045   1.868  0.00  0.00    -0.450 OA
ATOM      4  H   LIG    1       -0.180   0.629   2.212  0.00  0.00    +0.299 HD
ENDBRANCH   2   3
BRANCH   2   5
ATOM      5  O   LIG    1        1.463  -0.859   0.172  0.00  0.00    -0.450 OA
ATOM      6  H   LIG    1        1.563  -0.952  -0.755  0.00  0.00    +0.299 HD
ENDBRANCH   2   5
TORSDOF 2
