REMARK  Name = DB09376
REMARK                            x       y       z     vdW  Elec       q    Type
REMARK                         _______ _______ _______ _____ _____    ______ ____
ROOT
ATOM      1  O   LIG    1       -0.661   2.666  -2.278  0.00  0.00    -0.463 OA
ENDROOT
BRANCH   1   2
ATOM      2  C   LIG    1       -0.032   2.769  -1.089  0.00  0.00    +0.307 C 
ATOM      3  O   LIG    1        0.838   3.590  -0.794  0.00  0.00    -0.251 OA
BRANCH   2   4
ATOM      4  C   LIG    1       -0.515   1.725  -0.079  0.00  0.00    +0.120 C 
BRANCH   4   5
ATOM      5  C   LIG    1        0.053   0.310  -0.322  0.00  0.00    +0.011 C 
BRANCH   5   6
ATOM      6  C   LIG    1        1.578   0.190  -0.122  0.00  0.00    +0.001 C 
BRANCH   6   7
ATOM      7  C   LIG    1        2.092  -1.252  -0.282  0.00  0.00    +0.000 C 
BRANCH   7   8
ATOM      8  C   LIG    1        3.609  -1.376  -0.052  0.00  0.00    +0.000 C 
BRANCH   8   9
ATOM      9  C   LIG    1        4.122  -2.821  -0.186  0.00  0.00    +0.000 C 
BRANCH   9  10
ATOM     10  C   LIG    1        5.634  -2.946   0.072  0.00  0.00    -0.000 C 
BRANCH  10  11
ATOM     11  C   LIG    1        6.145  -4.396  -0.031  0.00  0.00    -0.000 C 
BRANCH  11  12
ATOM     12  C   LIG    1        7.670  -4.547   0.139  0.00  0.00    -0.000 C 
BRANCH  12  13
ATOM     13  C   LIG    1        8.193  -4.182   1.542  0.00  0.00    -0.003 C 
ATOM     14  C   LIG    1        9.702  -4.418   1.696  0.00  0.00    +0.004 C 
ENDBRANCH  12  13
ENDBRANCH  11  12
ENDBRANCH  10  11
ENDBRANCH   9  10
ENDBRANCH   8   9
ENDBRANCH   7   8
ENDBRANCH   6   7
ENDBRANCH   5   6
ENDBRANCH   4   5
ENDBRANCH   2   4
ENDBRANCH   1   2
BRANCH   1  15
ATOM     15  C   LIG    1       -0.343   3.552  -3.345  0.00  0.00    +0.251 C 
BRANCH  15  16
ATOM     16  C   LIG    1       -1.253   3.282  -4.557  0.00  0.00    +0.145 C 
BRANCH  16  19
ATOM     17  C   LIG    1       -3.296   4.640  -4.086  0.00  0.00    +0.227 C 
ATOM     18  O   LIG    1       -2.698   5.716  -4.128  0.00  0.00    -0.274 OA
ATOM     19  N   LIG    1       -2.680   3.457  -4.281  0.00  0.00    -0.311 N 
ATOM     20  H   LIG    1       -3.229   2.611  -4.229  0.00  0.00    +0.149 HD
BRANCH  17  21
ATOM     21  C   LIG    1       -4.808   4.652  -3.780  0.00  0.00    +0.181 C 
BRANCH  21  24
ATOM     22  C   LIG    1       -6.410   1.268  -3.934  0.00  0.00    +0.016 C 
ATOM     23  C   LIG    1       -5.743   2.402  -3.465  0.00  0.00    +0.079 C 
ATOM     24  N   LIG    1       -5.526   3.455  -4.294  0.00  0.00    -0.284 NA
ATOM     25  C   LIG    1       -5.938   3.438  -5.588  0.00  0.00    +0.079 C 
ATOM     26  C   LIG    1       -6.608   2.322  -6.095  0.00  0.00    +0.016 C 
ATOM     27  C   LIG    1       -6.847   1.228  -5.260  0.00  0.00    +0.003 C 
ENDBRANCH  21  24
ENDBRANCH  17  21
ENDBRANCH  16  19
ENDBRANCH  15  16
ENDBRANCH   1  15
TORSDOF 16
