REMARK  Name = DB09120
REMARK                            x       y       z     vdW  Elec       q    Type
REMARK                         _______ _______ _______ _____ _____    ______ ____
ROOT
ATOM      1  C   LIG    1        2.117  -1.489   0.204  0.00  0.00    +0.213 C 
ATOM      2  N   LIG    1        2.470  -2.124   1.337  0.00  0.00    -0.311 N 
ATOM      3  H   LIG    1        2.414  -1.620   2.210  0.00  0.00    +0.149 HD
ATOM      4  O   LIG    1        2.163  -2.010  -0.911  0.00  0.00    -0.276 OA
ENDROOT
BRANCH   1   5
ATOM      5  C   LIG    1        1.629  -0.043   0.349  0.00  0.00    +0.096 C 
BRANCH   5   6
ATOM      6  C   LIG    1        0.105   0.074   0.141  0.00  0.00    +0.009 C 
BRANCH   6   7
ATOM      7  C   LIG    1       -0.386   1.534   0.116  0.00  0.00    +0.004 C 
BRANCH   7   8
ATOM      8  C   LIG    1       -1.917   1.679   0.041  0.00  0.00    +0.027 C 
BRANCH   8  10
ATOM      9  C   LIG    1       -2.978   1.701  -2.307  0.00  0.00    -0.028 C 
ATOM     10  C   LIG    1       -2.550   1.064  -1.199  0.00  0.00    -0.031 C 
BRANCH   9  12
ATOM     11  C   LIG    1       -4.300   3.839  -2.603  0.00  0.00    +0.011 C 
ATOM     12  C   LIG    1       -2.906   3.191  -2.611  0.00  0.00    +0.005 C 
ATOM     13  C   LIG    1       -2.172   3.463  -3.936  0.00  0.00    +0.011 C 
ENDBRANCH   9  12
ENDBRANCH   8  10
ENDBRANCH   7   8
ENDBRANCH   6   7
ENDBRANCH   5   6
ENDBRANCH   1   5
BRANCH   2  14
ATOM     14  C   LIG    1        2.911  -3.519   1.422  0.00  0.00    +0.139 C 
BRANCH  14  15
ATOM     15  C   LIG    1        1.886  -4.558   0.968  0.00  0.00    -0.027 A 
ATOM     16  C   LIG    1        0.550  -4.471   1.375  0.00  0.00    +0.054 A 
ATOM     17  C   LIG    1       -0.405  -5.406   0.936  0.00  0.00    +0.162 A 
ATOM     18  C   LIG    1        0.010  -6.438   0.083  0.00  0.00    +0.158 A 
ATOM     19  C   LIG    1        1.341  -6.528  -0.326  0.00  0.00    +0.049 A 
ATOM     20  C   LIG    1        2.274  -5.591   0.111  0.00  0.00    +0.009 A 
BRANCH  17  21
ATOM     21  O   LIG    1       -1.741  -5.369   1.296  0.00  0.00    -0.491 OA
ATOM     22  C   LIG    1       -2.212  -4.316   2.130  0.00  0.00    +0.277 C 
ENDBRANCH  17  21
BRANCH  18  23
ATOM     23  O   LIG    1       -0.885  -7.375  -0.367  0.00  0.00    -0.503 OA
ATOM     24  H   LIG    1       -0.484  -8.028  -0.944  0.00  0.00    +0.292 HD
ENDBRANCH  18  23
ENDBRANCH  14  15
ENDBRANCH   2  14
TORSDOF 10
