REMARK  Name = DB09099
REMARK                            x       y       z     vdW  Elec       q    Type
REMARK                         _______ _______ _______ _____ _____    ______ ____
ROOT
ATOM      1  O   THR A 12       -0.262  -7.564  -5.960  0.00  0.00    -0.274 OA
ATOM      2  C   THR A 12        0.725  -7.619  -5.225  0.00  0.00    +0.237 C 
ATOM      3  CA  THR A 12        1.290  -8.996  -4.782  0.00  0.00    +0.187 C 
ATOM      4  N   THR A 12        1.842  -8.964  -3.423  0.00  0.00    -0.300 N 
ATOM      5  H   THR A 12        1.185  -9.186  -2.690  0.00  0.00    +0.150 HD
ATOM      6  C   PHE A 11        3.107  -8.657  -3.082  0.00  0.00    +0.234 C 
ATOM      7  CA  PHE A 11        3.455  -8.690  -1.578  0.00  0.00    +0.163 C 
ATOM      8  N   PHE A 11        3.609  -7.347  -1.003  0.00  0.00    -0.302 N 
ATOM      9  H   PHE A 11        4.501  -7.174  -0.562  0.00  0.00    +0.150 HD
ATOM     10  C   THR A 10        2.682  -6.373  -0.973  0.00  0.00    +0.236 C 
ATOM     11  CA  THR A 10        3.075  -5.093  -0.201  0.00  0.00    +0.187 C 
ATOM     12  N   THR A 10        2.839  -3.843  -0.938  0.00  0.00    -0.300 N 
ATOM     13  H   THR A 10        2.285  -3.154  -0.450  0.00  0.00    +0.150 HD
ATOM     14  C   LYS A  9        3.410  -3.509  -2.110  0.00  0.00    +0.234 C 
ATOM     15  CA  LYS A  9        3.215  -2.053  -2.572  0.00  0.00    +0.159 C 
ATOM     16  N   LYS A  9        4.427  -1.532  -3.194  0.00  0.00    -0.302 N 
ATOM     17  H   LYS A  9        4.478  -1.640  -4.197  0.00  0.00    +0.150 HD
ATOM     18  C   TRP A  8        5.453  -0.952  -2.553  0.00  0.00    +0.234 C 
ATOM     19  CA  TRP A  8        6.615  -0.513  -3.460  0.00  0.00    +0.163 C 
ATOM     20  N   TRP A  8        7.102   0.825  -3.131  0.00  0.00    -0.302 N 
ATOM     21  H   TRP A  8        7.971   0.866  -2.618  0.00  0.00    +0.150 HD
ATOM     22  C   PHE A  7        6.476   1.968  -3.462  0.00  0.00    +0.234 C 
ATOM     23  CA  PHE A  7        7.174   3.288  -3.075  0.00  0.00    +0.163 C 
ATOM     24  N   PHE A  7        6.933   3.696  -1.687  0.00  0.00    -0.302 N 
ATOM     25  H   PHE A  7        6.336   4.503  -1.584  0.00  0.00    +0.150 HD
ATOM     26  C   PHE A  6        7.377   3.092  -0.569  0.00  0.00    +0.234 C 
ATOM     27  CA  PHE A  6        6.933   3.715   0.778  0.00  0.00    +0.163 C 
ATOM     28  N   PHE A  6        5.609   4.361   0.759  0.00  0.00    -0.302 N 
ATOM     29  H   PHE A  6        5.599   5.322   1.070  0.00  0.00    +0.150 HD
ATOM     30  C   ASN A  5        4.438   3.779   0.447  0.00  0.00    +0.234 C 
ATOM     31  O   ASN A  5        4.336   2.620   0.050  0.00  0.00    -0.274 OA
ATOM     32  CA  ASN A  5        3.181   4.652   0.614  0.00  0.00    +0.168 C 
ATOM     33  N   ASN A  5        2.035   4.073  -0.100  0.00  0.00    -0.302 N 
ATOM     34  H   ASN A  5        2.131   3.100  -0.357  0.00  0.00    +0.150 HD
ATOM     35  C   LYS A  4        0.896   4.724  -0.401  0.00  0.00    +0.234 C 
ATOM     36  O   LYS A  4        0.701   5.909  -0.131  0.00  0.00    -0.274 OA
ATOM     37  CA  LYS A  4       -0.200   3.921  -1.140  0.00  0.00    +0.159 C 
ATOM     38  N   LYS A  4       -0.186   2.478  -0.855  0.00  0.00    -0.302 N 
ATOM     39  H   LYS A  4        0.056   1.895  -1.643  0.00  0.00    +0.150 HD
ATOM     40  C   CYS A  3       -0.439   1.878   0.323  0.00  0.00    +0.235 C 
ATOM     41  O   CYS A  3       -0.718   2.469   1.366  0.00  0.00    -0.274 OA
ATOM     42  CA  CYS A  3       -0.345   0.340   0.323  0.00  0.00    +0.169 C 
ATOM     43  CB  CYS A  3       -1.525  -0.293   1.084  0.00  0.00    +0.112 C 
ATOM     44  SG  CYS A  3       -1.764  -2.081   0.866  0.00  0.00    -0.091 S 
ATOM     45  SG  CYS A 14       -2.800  -2.255  -0.887  0.00  0.00    -0.091 S 
ATOM     46  CB  CYS A 14       -1.594  -2.835  -2.118  0.00  0.00    +0.114 C 
ATOM     47  CA  CYS A 14       -1.142  -4.311  -1.969  0.00  0.00    +0.192 C 
ATOM     48  N   CYS A 14       -0.138  -4.684  -2.969  0.00  0.00    -0.300 N 
ATOM     49  H   CYS A 14        0.746  -4.964  -2.569  0.00  0.00    +0.150 HD
ATOM     50  C   SER A 13       -0.236  -4.708  -4.310  0.00  0.00    +0.236 C 
ATOM     51  O   SER A 13       -1.248  -4.425  -4.950  0.00  0.00    -0.274 OA
ATOM     52  CA  SER A 13        1.061  -5.126  -5.037  0.00  0.00    +0.184 C 
ATOM     53  O   PHE A  6        8.109   2.103  -0.567  0.00  0.00    -0.274 OA
ATOM     54  O   PHE A  7        5.406   2.018  -4.067  0.00  0.00    -0.274 OA
ATOM     55  O   TRP A  8        5.518  -0.781  -1.336  0.00  0.00    -0.274 OA
ATOM     56  O   LYS A  9        4.072  -4.282  -2.802  0.00  0.00    -0.274 OA
ATOM     57  O   THR A 10        1.567  -6.464  -1.482  0.00  0.00    -0.274 OA
ATOM     58  O   PHE A 11        3.984  -8.353  -3.888  0.00  0.00    -0.274 OA
ATOM     59  N   SER A 13        1.390  -6.532  -4.793  0.00  0.00    -0.300 N 
ATOM     60  H   SER A 13        2.202  -6.678  -4.210  0.00  0.00    +0.150 HD
ENDROOT
BRANCH  42  61
ATOM     61  N   CYS A  3        0.907  -0.114   0.933  0.00  0.00    -0.302 N 
ATOM     62  H   CYS A  3        0.808  -0.601   1.812  0.00  0.00    +0.150 HD
ATOM     63  C   GLY A  2        2.140   0.100   0.436  0.00  0.00    +0.231 C 
ATOM     64  O   GLY A  2        2.326   0.687  -0.628  0.00  0.00    -0.274 OA
BRANCH  63  65
ATOM     65  CA  GLY A  2        3.358  -0.397   1.229  0.00  0.00    +0.200 C 
BRANCH  65  66
ATOM     66  N   GLY A  2        3.019  -0.573   2.639  0.00  0.00    -0.305 N 
ATOM     67  H   GLY A  2        2.071  -0.845   2.849  0.00  0.00    +0.149 HD
ATOM     68  C   ALA A  1        3.872  -0.350   3.651  0.00  0.00    +0.230 C 
ATOM     69  O   ALA A  1        5.051  -0.020   3.501  0.00  0.00    -0.274 OA
BRANCH  68  70
ATOM     70  CA  ALA A  1        3.294  -0.530   5.070  0.00  0.00    +0.135 C 
ATOM     71  CB  ALA A  1        3.205   0.813   5.818  0.00  0.00    +0.033 C 
BRANCH  70  72
ATOM     72  N   ALA A  1        4.127  -1.527   5.762  0.00  0.00    -0.320 NA
ATOM     73  H1  ALA A  1        4.999  -1.125   6.076  0.00  0.00    +0.119 HD
ATOM     74  H2  ALA A  1        4.347  -2.309   5.162  0.00  0.00    +0.119 HD
ENDBRANCH  70  72
ENDBRANCH  68  70
ENDBRANCH  65  66
ENDBRANCH  63  65
ENDBRANCH  42  61
BRANCH   3  75
ATOM     75  CB  THR A 12        0.193 -10.098  -4.889  0.00  0.00    +0.141 C 
ATOM     76  CG2 THR A 12        0.685 -11.490  -4.459  0.00  0.00    +0.040 C 
BRANCH  75  77
ATOM     77  OG1 THR A 12       -0.975  -9.782  -4.149  0.00  0.00    -0.390 OA
ATOM     78  HG1 THR A 12       -0.778  -9.858  -3.213  0.00  0.00    +0.210 HD
ENDBRANCH  75  77
ENDBRANCH   3  75
BRANCH  11  79
ATOM     79  CB  THR A 10        2.341  -5.103   1.175  0.00  0.00    +0.141 C 
ATOM     80  CG2 THR A 10        2.561  -3.835   2.010  0.00  0.00    +0.040 C 
BRANCH  79  81
ATOM     81  OG1 THR A 10        0.945  -5.338   1.092  0.00  0.00    -0.390 OA
ATOM     82  HG1 THR A 10        0.800  -6.189   0.671  0.00  0.00    +0.210 HD
ENDBRANCH  79  81
ENDBRANCH  11  79
BRANCH  47  83
ATOM     83  C   CYS A 14       -2.284  -5.343  -1.867  0.00  0.00    +0.326 C 
ATOM     84  O   CYS A 14       -2.329  -6.195  -1.003  0.00  0.00    -0.249 OA
BRANCH  83  85
ATOM     85  OXT CYS A 14       -3.205  -5.159  -2.858  0.00  0.00    -0.479 OA
ATOM     86  HXT CYS A 14       -3.920  -5.798  -2.817  0.00  0.00    +0.295 HD
ENDBRANCH  83  85
ENDBRANCH  47  83
BRANCH   7  87
ATOM     87  CB  PHE A 11        2.481  -9.549  -0.727  0.00  0.00    +0.067 C 
BRANCH  87  88
ATOM     88  CG  PHE A 11        2.944  -9.806   0.696  0.00  0.00    -0.045 A 
ATOM     89  CD2 PHE A 11        3.926 -10.784   0.956  0.00  0.00    +0.004 A 
ATOM     90  CE2 PHE A 11        4.414 -10.952   2.245  0.00  0.00    +0.000 A 
ATOM     91  CZ  PHE A 11        3.958 -10.142   3.278  0.00  0.00    +0.000 A 
ATOM     92  CE1 PHE A 11        3.018  -9.150   3.029  0.00  0.00    +0.000 A 
ATOM     93  CD1 PHE A 11        2.517  -8.967   1.748  0.00  0.00    +0.004 A 
ENDBRANCH  87  88
ENDBRANCH   7  87
BRANCH  15  94
ATOM     94  CB  LYS A  9        2.056  -1.908  -3.578  0.00  0.00    +0.032 C 
BRANCH  94  95
ATOM     95  CG  LYS A  9        1.368  -0.532  -3.629  0.00  0.00    +0.003 C 
BRANCH  95  96
ATOM     96  CD  LYS A  9        2.264   0.644  -4.042  0.00  0.00    +0.015 C 
BRANCH  96  97
ATOM     97  CE  LYS A  9        1.453   1.931  -4.242  0.00  0.00    +0.077 C 
BRANCH  97  98
ATOM     98  NZ  LYS A  9        2.335   3.053  -4.487  0.00  0.00    -0.330 NA
ATOM     99  HZ1 LYS A  9        1.789   3.883  -4.666  0.00  0.00    +0.118 HD
ATOM    100  HZ2 LYS A  9        2.882   2.882  -5.319  0.00  0.00    +0.118 HD
ENDBRANCH  97  98
ENDBRANCH  96  97
ENDBRANCH  95  96
ENDBRANCH  94  95
ENDBRANCH  15  94
BRANCH  19 101
ATOM    101  CB  TRP A  8        7.799  -1.505  -3.441  0.00  0.00    +0.069 C 
BRANCH 101 102
ATOM    102  CG  TRP A  8        7.475  -2.964  -3.622  0.00  0.00    -0.020 A 
ATOM    103  CD1 TRP A  8        7.820  -3.950  -2.761  0.00  0.00    +0.087 A 
ATOM    104  NE1 TRP A  8        7.359  -5.161  -3.232  0.00  0.00    -0.360 N 
ATOM    105  HE1 TRP A  8        7.509  -6.029  -2.738  0.00  0.00    +0.165 HD
ATOM    106  CE2 TRP A  8        6.675  -5.020  -4.420  0.00  0.00    +0.047 A 
ATOM    107  CZ2 TRP A  8        6.010  -5.929  -5.261  0.00  0.00    +0.026 A 
ATOM    108  CH2 TRP A  8        5.367  -5.452  -6.417  0.00  0.00    +0.002 A 
ATOM    109  CZ3 TRP A  8        5.410  -4.079  -6.726  0.00  0.00    +0.001 A 
ATOM    110  CE3 TRP A  8        6.093  -3.178  -5.883  0.00  0.00    +0.010 A 
ATOM    111  CD2 TRP A  8        6.736  -3.620  -4.702  0.00  0.00    +0.003 A 
ENDBRANCH 101 102
ENDBRANCH  19 101
BRANCH  23 112
ATOM    112  CB  PHE A  7        8.675   3.386  -3.462  0.00  0.00    +0.067 C 
BRANCH 112 113
ATOM    113  CG  PHE A  7        9.036   2.923  -4.866  0.00  0.00    -0.045 A 
ATOM    114  CD2 PHE A  7        8.686   3.712  -5.982  0.00  0.00    +0.004 A 
ATOM    115  CE2 PHE A  7        8.935   3.248  -7.267  0.00  0.00    +0.000 A 
ATOM    116  CZ  PHE A  7        9.509   1.998  -7.461  0.00  0.00    +0.000 A 
ATOM    117  CE1 PHE A  7        9.834   1.197  -6.373  0.00  0.00    +0.000 A 
ATOM    118  CD1 PHE A  7        9.594   1.644  -5.080  0.00  0.00    +0.004 A 
ENDBRANCH 112 113
ENDBRANCH  23 112
BRANCH  27 119
ATOM    119  CB  PHE A  6        7.043   2.717   1.961  0.00  0.00    +0.067 C 
BRANCH 119 120
ATOM    120  CG  PHE A  6        6.868   3.342   3.334  0.00  0.00    -0.045 A 
ATOM    121  CD2 PHE A  6        5.619   3.289   3.986  0.00  0.00    +0.004 A 
ATOM    122  CE2 PHE A  6        5.437   3.939   5.199  0.00  0.00    +0.000 A 
ATOM    123  CZ  PHE A  6        6.478   4.662   5.766  0.00  0.00    +0.000 A 
ATOM    124  CE1 PHE A  6        7.706   4.749   5.122  0.00  0.00    +0.000 A 
ATOM    125  CD1 PHE A  6        7.907   4.106   3.907  0.00  0.00    +0.004 A 
ENDBRANCH 119 120
ENDBRANCH  27 119
BRANCH  32 126
ATOM    126  CB  ASN A  5        2.837   4.949   2.105  0.00  0.00    +0.127 C 
BRANCH 126 127
ATOM    127  CG  ASN A  5        2.181   3.814   2.912  0.00  0.00    +0.213 C 
ATOM    128  OD1 ASN A  5        2.308   2.636   2.589  0.00  0.00    -0.276 OA
ATOM    129  ND2 ASN A  5        1.489   4.175   3.994  0.00  0.00    -0.329 N 
ATOM    130 HD21 ASN A  5        1.401   5.150   4.245  0.00  0.00    +0.145 HD
ATOM    131 HD22 ASN A  5        1.040   3.475   4.567  0.00  0.00    +0.145 HD
ENDBRANCH 126 127
ENDBRANCH  32 126
BRANCH  52 132
ATOM    132  CB  SER A 13        1.098  -4.791  -6.549  0.00  0.00    +0.187 C 
BRANCH 132 133
ATOM    133  OG  SER A 13        1.003  -3.397  -6.771  0.00  0.00    -0.393 OA
ATOM    134  H   SER A 13        0.978  -3.240  -7.717  0.00  0.00    +0.209 HD
ENDBRANCH 132 133
ENDBRANCH  52 132
BRANCH  37 135
ATOM    135  CB  LYS A  4       -1.619   4.517  -0.955  0.00  0.00    +0.032 C 
BRANCH 135 136
ATOM    136  CG  LYS A  4       -2.694   3.829  -1.816  0.00  0.00    +0.003 C 
BRANCH 136 137
ATOM    137  CD  LYS A  4       -4.076   4.476  -1.661  0.00  0.00    +0.015 C 
BRANCH 137 138
ATOM    138  CE  LYS A  4       -5.142   3.767  -2.507  0.00  0.00    +0.077 C 
BRANCH 138 139
ATOM    139  NZ  LYS A  4       -6.429   4.407  -2.323  0.00  0.00    -0.330 NA
ATOM    140  HZ1 LYS A  4       -6.364   5.382  -2.578  0.00  0.00    +0.118 HD
ATOM    141  HZ2 LYS A  4       -6.686   4.382  -1.346  0.00  0.00    +0.118 HD
ENDBRANCH 138 139
ENDBRANCH 137 138
ENDBRANCH 136 137
ENDBRANCH 135 136
ENDBRANCH  37 135
TORSDOF 33
