REMARK  Name = DB09164
REMARK                            x       y       z     vdW  Elec       q    Type
REMARK                         _______ _______ _______ _____ _____    ______ ____
ROOT
ATOM      1  N   LIG    1        1.334  -0.399   0.059  0.00  0.00    -0.284 N 
ATOM      2  H   LIG    1        1.796  -0.944  -0.654  0.00  0.00    +0.155 HD
ATOM      3  C   LIG    1        2.066  -0.010   1.128  0.00  0.00    +0.231 C 
ATOM      4  O   LIG    1        1.579   0.555   2.109  0.00  0.00    -0.274 OA
ENDROOT
BRANCH   1   6
ATOM      5  C   LIG    1       -0.880  -1.356  -0.091  0.00  0.00    -0.023 A 
ATOM      6  C   LIG    1       -0.050  -0.209  -0.101  0.00  0.00    +0.040 A 
ATOM      7  C   LIG    1       -0.600   1.081  -0.325  0.00  0.00    -0.023 A 
ATOM      8  C   LIG    1       -1.992   1.194  -0.461  0.00  0.00    +0.006 A 
ATOM      9  C   LIG    1       -2.813   0.076  -0.415  0.00  0.00    +0.001 A 
ATOM     10  C   LIG    1       -2.262  -1.186  -0.244  0.00  0.00    +0.006 A 
BRANCH   5  12
ATOM     11  C   LIG    1       -1.143  -3.909  -0.540  0.00  0.00    +0.012 C 
ATOM     12  C   LIG    1       -0.296  -2.777   0.085  0.00  0.00    +0.015 C 
ATOM     13  C   LIG    1       -0.004  -3.089   1.566  0.00  0.00    +0.012 C 
ENDBRANCH   5  12
BRANCH   7  14
ATOM     14  C   LIG    1        0.288   2.339  -0.479  0.00  0.00    +0.015 C 
ATOM     15  C   LIG    1        1.045   2.327  -1.823  0.00  0.00    +0.012 C 
ATOM     16  C   LIG    1       -0.441   3.690  -0.300  0.00  0.00    +0.012 C 
ENDBRANCH   7  14
ENDBRANCH   1   6
BRANCH   3  17
ATOM     17  C   LIG    1        3.552  -0.430   1.183  0.00  0.00    +0.181 C 
BRANCH  17  18
ATOM     18  N   LIG    1        4.119  -0.649  -0.153  0.00  0.00    -0.274 NA
BRANCH  18  19
ATOM     19  C   LIG    1        4.532   0.602  -0.812  0.00  0.00    +0.206 C 
BRANCH  19  20
ATOM     20  C   LIG    1        4.440   0.492  -2.347  0.00  0.00    +0.319 C 
ATOM     21  O   LIG    1        3.951  -0.459  -2.958  0.00  0.00    -0.250 OA
BRANCH  20  22
ATOM     22  O   LIG    1        4.948   1.610  -2.938  0.00  0.00    -0.480 OA
ATOM     23  H   LIG    1        4.890   1.574  -3.896  0.00  0.00    +0.295 HD
ENDBRANCH  20  22
ENDBRANCH  19  20
ENDBRANCH  18  19
BRANCH  18  24
ATOM     24  C   LIG    1        5.183  -1.669  -0.189  0.00  0.00    +0.206 C 
BRANCH  24  25
ATOM     25  C   LIG    1        4.596  -3.089  -0.080  0.00  0.00    +0.319 C 
ATOM     26  O   LIG    1        5.080  -3.948   0.653  0.00  0.00    -0.250 OA
BRANCH  25  27
ATOM     27  O   LIG    1        3.527  -3.292  -0.908  0.00  0.00    -0.480 OA
ATOM     28  H   LIG    1        3.179  -4.184  -0.845  0.00  0.00    +0.295 HD
ENDBRANCH  25  27
ENDBRANCH  24  25
ENDBRANCH  18  24
ENDBRANCH  17  18
ENDBRANCH   3  17
TORSDOF 11
