REMARK  Name = DB09300
REMARK                            x       y       z     vdW  Elec       q    Type
REMARK                         _______ _______ _______ _____ _____    ______ ____
ROOT
ATOM      1  C   LIG    1        1.531   0.203  -0.014  0.00  0.00    +0.174 C 
ATOM      2  C   LIG    1        1.728  -0.433  -1.435  0.00  0.00    +0.032 C 
ATOM      3  C   LIG    1        1.926  -1.976  -1.435  0.00  0.00    -0.030 C 
ATOM      4  N   LIG    1        3.104  -2.357  -0.486  0.00  0.00    +0.386 N 
ATOM      5  C   LIG    1        4.378  -1.464  -0.630  0.00  0.00    -0.091 C 
ATOM      6  C   LIG    1        2.322  -2.151   0.854  0.00  0.00    -0.030 C 
ATOM      7  C   LIG    1        0.915  -2.757   0.626  0.00  0.00    +0.133 C 
ATOM      8  O   LIG    1        0.823  -3.897  -0.187  0.00  0.00    -0.372 OA
ATOM      9  C   LIG    1        0.664  -2.655  -0.834  0.00  0.00    +0.133 C 
ATOM     10  C   LIG    1        2.168  -0.629   1.148  0.00  0.00    +0.032 C 
ENDROOT
BRANCH   1  11
ATOM     11  O   LIG    1        0.140   0.322   0.285  0.00  0.00    -0.461 OA
BRANCH  11  12
ATOM     12  C   LIG    1       -0.626   1.316  -0.224  0.00  0.00    +0.317 C 
ATOM     13  O   LIG    1       -0.231   2.238  -0.940  0.00  0.00    -0.250 OA
BRANCH  12  14
ATOM     14  C   LIG    1       -2.111   1.185   0.167  0.00  0.00    +0.153 C 
BRANCH  14  19
ATOM     15  C   LIG    1       -3.311  -2.413  -0.454  0.00  0.00    +0.000 A 
ATOM     16  C   LIG    1       -3.664  -2.341  -1.800  0.00  0.00    +0.000 A 
ATOM     17  C   LIG    1       -3.527  -1.148  -2.505  0.00  0.00    +0.000 A 
ATOM     18  C   LIG    1       -3.034  -0.018  -1.859  0.00  0.00    +0.004 A 
ATOM     19  C   LIG    1       -2.676  -0.075  -0.506  0.00  0.00    -0.032 A 
ATOM     20  C   LIG    1       -2.818  -1.283   0.192  0.00  0.00    +0.004 A 
ENDBRANCH  14  19
BRANCH  14  21
ATOM     21  C   LIG    1       -2.344   1.275   1.699  0.00  0.00    +0.175 C 
BRANCH  21  22
ATOM     22  O   LIG    1       -2.005   2.552   2.204  0.00  0.00    -0.394 OA
ATOM     23  H   LIG    1       -2.192   2.570   3.145  0.00  0.00    +0.209 HD
ENDBRANCH  21  22
ENDBRANCH  14  21
ENDBRANCH  12  14
ENDBRANCH  11  12
ENDBRANCH   1  11
BRANCH   4  24
ATOM     24  C   LIG    1        3.610  -3.817  -0.787  0.00  0.00    -0.074 C 
BRANCH  24  25
ATOM     25  C   LIG    1        4.214  -4.534   0.440  0.00  0.00    -0.018 C 
BRANCH  25  26
ATOM     26  C   LIG    1        4.869  -5.875   0.068  0.00  0.00    -0.005 C 
ATOM     27  C   LIG    1        5.455  -6.611   1.280  0.00  0.00    +0.004 C 
ENDBRANCH  25  26
ENDBRANCH  24  25
ENDBRANCH   4  24
TORSDOF 9
