REMARK  Name = DB09415
REMARK                            x       y       z     vdW  Elec       q    Type
REMARK                         _______ _______ _______ _____ _____    ______ ____
ROOT
ATOM      1  C   LIG    1        0.022   0.111   0.052  0.00  0.00    +0.175 C 
ENDROOT
BRANCH   1   2
ATOM      2  O   LIG    1       -0.455   1.448   0.003  0.00  0.00    -0.387 OA
ATOM      3  H   LIG    1       -1.414   1.431   0.054  0.00  0.00    +0.210 HD
ENDBRANCH   1   2
BRANCH   1   4
ATOM      4  C   LIG    1       -0.635  -0.681   1.226  0.00  0.00    +0.159 C 
BRANCH   4   5
ATOM      5  O   LIG    1       -0.266  -0.149   2.486  0.00  0.00    -0.388 OA
ATOM      6  H   LIG    1        0.692  -0.094   2.522  0.00  0.00    +0.210 HD
ENDBRANCH   4   5
BRANCH   4   7
ATOM      7  C   LIG    1       -2.181  -0.739   1.194  0.00  0.00    +0.114 C 
BRANCH   7   8
ATOM      8  N   LIG    1       -2.657  -1.449   0.013  0.00  0.00    -0.316 NA
ATOM      9  H   LIG    1       -2.314  -1.000  -0.824  0.00  0.00    +0.122 HD
ATOM     10  C   LIG    1       -4.110  -1.493  -0.011  0.00  0.00    +0.101 C 
ENDBRANCH   7   8
ENDBRANCH   4   7
ENDBRANCH   1   4
BRANCH   1  11
ATOM     11  C   LIG    1        1.583   0.076  -0.003  0.00  0.00    +0.176 C 
BRANCH  11  12
ATOM     12  O   LIG    1        2.148   0.664   1.159  0.00  0.00    -0.387 OA
ATOM     13  H   LIG    1        1.873   1.583   1.196  0.00  0.00    +0.210 HD
ENDBRANCH  11  12
BRANCH  11  14
ATOM     14  C   LIG    1        2.213   0.738  -1.267  0.00  0.00    +0.171 C 
BRANCH  14  15
ATOM     15  O   LIG    1        1.672   0.185  -2.455  0.00  0.00    -0.387 OA
ATOM     16  H   LIG    1        0.718   0.294  -2.435  0.00  0.00    +0.210 HD
ENDBRANCH  14  15
BRANCH  14  17
ATOM     17  C   LIG    1        3.760   0.674  -1.340  0.00  0.00    +0.189 C 
BRANCH  17  18
ATOM     18  O   LIG    1        4.248  -0.653  -1.281  0.00  0.00    -0.392 OA
ATOM     19  H   LIG    1        5.206  -0.629  -1.332  0.00  0.00    +0.210 HD
ENDBRANCH  17  18
ENDBRANCH  14  17
ENDBRANCH  11  14
ENDBRANCH   1  11
TORSDOF 11
