REMARK  Name = DB09200
REMARK                            x       y       z     vdW  Elec       q    Type
REMARK                         _______ _______ _______ _____ _____    ______ ____
ROOT
ATOM      1  C   LIG    1       -1.684   3.899  -0.053  0.00  0.00    -0.046 A 
ATOM      2  C   LIG    1       -0.296   3.895   0.098  0.00  0.00    +0.007 A 
ATOM      3  C   LIG    1        0.401   2.689   0.109  0.00  0.00    +0.046 A 
ATOM      4  C   LIG    1       -0.288   1.474  -0.029  0.00  0.00    +0.121 A 
ATOM      5  C   LIG    1       -1.675   1.489  -0.177  0.00  0.00    +0.046 A 
ATOM      6  C   LIG    1       -2.373   2.693  -0.190  0.00  0.00    +0.007 A 
ENDROOT
BRANCH   1   7
ATOM      7  C   LIG    1       -2.450   5.217  -0.069  0.00  0.00    +0.059 C 
BRANCH   7  15
ATOM      8  S   LIG    1       -1.383   6.089  -2.516  0.00  0.00    -0.054 S 
ATOM      9  C   LIG    1       -1.935   7.787  -2.754  0.00  0.00    +0.279 C 
ATOM     10  N   LIG    1       -3.100   7.961  -2.122  0.00  0.00    -0.246 N 
ATOM     11  H   LIG    1       -3.554   8.862  -2.164  0.00  0.00    +0.158 HD
ATOM     12  C   LIG    1       -3.678   6.968  -1.437  0.00  0.00    +0.234 C 
ATOM     13  O   LIG    1       -4.753   7.050  -0.844  0.00  0.00    -0.274 OA
ATOM     14  O   LIG    1       -1.317   8.626  -3.405  0.00  0.00    -0.263 OA
ATOM     15  C   LIG    1       -2.823   5.700  -1.494  0.00  0.00    +0.146 C 
ENDBRANCH   7  15
ENDBRANCH   1   7
BRANCH   4  16
ATOM     16  O   LIG    1        0.317   0.231  -0.030  0.00  0.00    -0.484 OA
BRANCH  16  17
ATOM     17  C   LIG    1        1.734   0.139   0.114  0.00  0.00    +0.303 C 
BRANCH  17  18
ATOM     18  C   LIG    1        2.174  -1.318   0.087  0.00  0.00    +0.148 A 
ATOM     19  N   LIG    1        1.349  -2.334  -0.002  0.00  0.00    -0.229 NA
ATOM     20  C   LIG    1        2.150  -3.442  -0.017  0.00  0.00    +0.090 A 
ATOM     21  C   LIG    1        1.790  -4.791  -0.111  0.00  0.00    +0.033 A 
ATOM     22  C   LIG    1        2.808  -5.744  -0.117  0.00  0.00    +0.048 A 
ATOM     23  C   LIG    1        4.158  -5.391  -0.034  0.00  0.00    +0.122 A 
ATOM     24  C   LIG    1        4.539  -4.040   0.063  0.00  0.00    +0.073 A 
ATOM     25  C   LIG    1        3.516  -3.084   0.073  0.00  0.00    +0.072 A 
ATOM     26  N   LIG    1        3.502  -1.705   0.161  0.00  0.00    -0.328 N 
ATOM     27  C   LIG    1        4.675  -0.843   0.232  0.00  0.00    +0.150 C 
BRANCH  23  28
ATOM     28  O   LIG    1        5.056  -6.442  -0.056  0.00  0.00    -0.495 OA
ATOM     29  C   LIG    1        6.452  -6.168   0.012  0.00  0.00    +0.277 C 
ENDBRANCH  23  28
ENDBRANCH  17  18
ENDBRANCH  16  17
ENDBRANCH   4  16
TORSDOF 6
