REMARK  Name = DB09084
REMARK                            x       y       z     vdW  Elec       q    Type
REMARK                         _______ _______ _______ _____ _____    ______ ____
ROOT
ATOM      1  C   LIG    1        3.472   0.574  -1.294  0.00  0.00    +0.242 A 
ATOM      2  C   LIG    1        4.052   1.173  -2.453  0.00  0.00    +0.063 A 
ATOM      3  C   LIG    1        3.573   1.823  -3.600  0.00  0.00    +0.015 A 
ATOM      4  C   LIG    1        4.495   2.302  -4.530  0.00  0.00    +0.001 A 
ATOM      5  C   LIG    1        5.866   2.142  -4.334  0.00  0.00    +0.002 A 
ATOM      6  C   LIG    1        6.379   1.496  -3.208  0.00  0.00    +0.028 A 
ATOM      7  C   LIG    1        5.450   1.013  -2.277  0.00  0.00    +0.073 A 
ATOM      8  N   LIG    1        5.590   0.332  -1.080  0.00  0.00    -0.256 N 
ATOM      9  N   LIG    1        4.400   0.107  -0.488  0.00  0.00    -0.132 NA
ENDROOT
BRANCH   1  10
ATOM     10  O   LIG    1        2.122   0.500  -1.029  0.00  0.00    -0.475 OA
BRANCH  10  11
ATOM     11  C   LIG    1        1.716  -0.104   0.201  0.00  0.00    +0.232 C 
BRANCH  11  12
ATOM     12  C   LIG    1        0.191   0.008   0.351  0.00  0.00    +0.056 C 
BRANCH  12  13
ATOM     13  C   LIG    1       -0.441   1.416   0.227  0.00  0.00    +0.087 C 
BRANCH  13  15
ATOM     14  C   LIG    1        1.189   3.109   0.870  0.00  0.00    +0.104 C 
ATOM     15  N   LIG    1       -0.006   2.361   1.265  0.00  0.00    -0.308 NA
ATOM     16  C   LIG    1       -1.067   3.327   1.539  0.00  0.00    +0.104 C 
ENDBRANCH  13  15
ENDBRANCH  12  13
ENDBRANCH  11  12
ENDBRANCH  10  11
ENDBRANCH   1  10
BRANCH   8  17
ATOM     17  C   LIG    1        6.816  -0.017  -0.371  0.00  0.00    +0.179 C 
BRANCH  17  18
ATOM     18  C   LIG    1        7.379   1.138   0.447  0.00  0.00    -0.026 A 
ATOM     19  C   LIG    1        6.802   1.462   1.679  0.00  0.00    +0.005 A 
ATOM     20  C   LIG    1        7.309   2.522   2.426  0.00  0.00    +0.000 A 
ATOM     21  C   LIG    1        8.391   3.254   1.939  0.00  0.00    +0.000 A 
ATOM     22  C   LIG    1        8.969   2.937   0.712  0.00  0.00    +0.000 A 
ATOM     23  C   LIG    1        8.462   1.877  -0.036  0.00  0.00    +0.005 A 
ENDBRANCH  17  18
ENDBRANCH   8  17
TORSDOF 7
