REMARK  Name = DB09204
REMARK                            x       y       z     vdW  Elec       q    Type
REMARK                         _______ _______ _______ _____ _____    ______ ____
ROOT
ATOM      1  C   LIG    1       -1.439   2.394  -2.955  0.00  0.00    +0.086 A 
ATOM      2  C   LIG    1       -1.646   3.771  -3.068  0.00  0.00    +0.076 A 
ATOM      3  S   LIG    1       -1.196   4.564  -1.591  0.00  0.00    -0.069 S 
ATOM      4  C   LIG    1       -0.773   3.015  -0.944  0.00  0.00    +0.135 A 
ATOM      5  N   LIG    1       -0.965   2.021  -1.778  0.00  0.00    -0.232 NA
ENDROOT
BRANCH   1   9
ATOM      6  C   LIG    1       -2.327   0.172  -6.102  0.00  0.00    +0.074 A 
ATOM      7  C   LIG    1       -1.828  -0.669  -5.107  0.00  0.00    +0.021 A 
ATOM      8  C   LIG    1       -1.476   0.012  -3.936  0.00  0.00    +0.018 A 
ATOM      9  C   LIG    1       -1.694   1.390  -3.993  0.00  0.00    +0.039 A 
ATOM     10  S   LIG    1       -2.353   1.820  -5.551  0.00  0.00    -0.082 S 
BRANCH   6  11
ATOM     11  C   LIG    1       -2.793  -0.146  -7.431  0.00  0.00    +0.248 C 
ATOM     12  O   LIG    1       -3.228   0.711  -8.200  0.00  0.00    -0.270 OA
ATOM     13  N   LIG    1       -2.720  -1.438  -7.770  0.00  0.00    -0.325 N 
ATOM     14  H   LIG    1       -2.353  -2.119  -7.121  0.00  0.00    +0.145 HD
ATOM     15  H   LIG    1       -3.030  -1.738  -8.683  0.00  0.00    +0.145 HD
ENDBRANCH   6  11
ENDBRANCH   1   9
BRANCH   4  16
ATOM     16  S   LIG    1       -0.148   2.879   0.704  0.00  0.00    -0.096 S 
BRANCH  16  17
ATOM     17  C   LIG    1        0.164   1.085   0.821  0.00  0.00    +0.105 C 
BRANCH  17  18
ATOM     18  C   LIG    1        1.386   0.557   0.039  0.00  0.00    +0.108 C 
BRANCH  18  19
ATOM     19  O   LIG    1        2.567   1.009   0.678  0.00  0.00    -0.393 OA
ATOM     20  H   LIG    1        2.519   1.965   0.766  0.00  0.00    +0.210 HD
ENDBRANCH  18  19
BRANCH  18  21
ATOM     21  C   LIG    1        1.376  -0.984  -0.060  0.00  0.00    -0.049 C 
BRANCH  21  22
ATOM     22  N   LIG    1        2.608  -1.492  -0.841  0.00  0.00    +0.384 N 
ATOM     23  H   LIG    1        3.432  -1.149  -0.367  0.00  0.00    -0.085 HD
ATOM     24  H   LIG    1        2.592  -1.065  -1.756  0.00  0.00    -0.085 HD
BRANCH  22  25
ATOM     25  C   LIG    1        2.781  -3.018  -1.037  0.00  0.00    -0.077 C 
ATOM     26  C   LIG    1        2.944  -3.692   0.344  0.00  0.00    -0.011 C 
ATOM     27  C   LIG    1        1.561  -3.578  -1.804  0.00  0.00    -0.011 C 
ATOM     28  C   LIG    1        4.065  -3.197  -1.873  0.00  0.00    -0.011 C 
ENDBRANCH  22  25
ENDBRANCH  21  22
ENDBRANCH  18  21
ENDBRANCH  17  18
ENDBRANCH  16  17
ENDBRANCH   4  16
TORSDOF 9
