REMARK  Name = DB09064
REMARK                            x       y       z     vdW  Elec       q    Type
REMARK                         _______ _______ _______ _____ _____    ______ ____
ROOT
ATOM      1  C   LIG    1        3.295   1.321  -3.624  0.00  0.00    -0.041 A 
ATOM      2  C   LIG    1        3.972   0.903  -2.477  0.00  0.00    +0.007 A 
ATOM      3  C   LIG    1        3.252   0.466  -1.369  0.00  0.00    +0.046 A 
ATOM      4  C   LIG    1        1.856   0.447  -1.384  0.00  0.00    +0.122 A 
ATOM      5  C   LIG    1        1.184   0.876  -2.540  0.00  0.00    +0.046 A 
ATOM      6  C   LIG    1        1.901   1.311  -3.651  0.00  0.00    +0.007 A 
ENDROOT
BRANCH   1  11
ATOM      7  C   LIG    1        5.400   1.224  -5.229  0.00  0.00    +0.050 C 
ATOM      8  C   LIG    1        4.201   0.987  -6.117  0.00  0.00    +0.126 C 
ATOM      9 CL   LIG    1        3.513  -0.657  -6.207  0.00  0.00    -0.100 Cl
ATOM     10 CL   LIG    1        4.111   1.816  -7.691  0.00  0.00    -0.100 Cl
ATOM     11  C   LIG    1        4.056   1.808  -4.849  0.00  0.00    +0.058 C 
ENDBRANCH   1  11
BRANCH   4  12
ATOM     12  O   LIG    1        1.253  -0.006  -0.219  0.00  0.00    -0.475 OA
BRANCH  12  13
ATOM     13  C   LIG    1       -0.172  -0.043   0.012  0.00  0.00    +0.200 C 
ATOM     14  C   LIG    1       -0.758   1.395   0.045  0.00  0.00    +0.067 C 
ATOM     15  C   LIG    1       -0.277  -0.650   1.429  0.00  0.00    +0.067 C 
BRANCH  13  16
ATOM     16  C   LIG    1       -0.915  -0.984  -0.977  0.00  0.00    +0.348 C 
ATOM     17  O   LIG    1       -2.083  -0.812  -1.324  0.00  0.00    -0.247 OA
BRANCH  16  18
ATOM     18  O   LIG    1       -0.136  -2.022  -1.402  0.00  0.00    -0.478 OA
ATOM     19  H   LIG    1       -0.599  -2.602  -2.010  0.00  0.00    +0.295 HD
ENDBRANCH  16  18
ENDBRANCH  13  16
ENDBRANCH  12  13
ENDBRANCH   4  12
TORSDOF 5
