REMARK  Name = DB09097
REMARK                            x       y       z     vdW  Elec       q    Type
REMARK                         _______ _______ _______ _____ _____    ______ ____
ROOT
ATOM      1  C   LIG    1       -6.643  -0.599  -3.639  0.00  0.00    +0.046 A 
ATOM      2  C   LIG    1       -5.438   0.099  -3.688  0.00  0.00    +0.120 A 
ATOM      3  C   LIG    1       -4.665   0.295  -2.528  0.00  0.00    -0.002 A 
ATOM      4  C   LIG    1       -3.387   1.140  -2.573  0.00  0.00    +0.044 C 
ATOM      5  C   LIG    1       -2.448   0.923  -1.367  0.00  0.00    +0.012 C 
ATOM      6  C   LIG    1       -1.290   1.949  -1.384  0.00  0.00    +0.027 C 
ATOM      7  C   LIG    1       -0.377   1.792  -0.158  0.00  0.00    +0.092 C 
ATOM      8  C   LIG    1       -1.242   1.922   1.119  0.00  0.00    +0.105 C 
ATOM      9  N   LIG    1       -2.374   0.976   1.161  0.00  0.00    -0.297 NA
ATOM     10  C   LIG    1       -3.252   0.995  -0.036  0.00  0.00    +0.064 C 
ATOM     11  C   LIG    1       -4.284  -0.162  -0.032  0.00  0.00    +0.054 C 
ATOM     12  C   LIG    1       -5.123  -0.250  -1.306  0.00  0.00    -0.039 A 
ATOM     13  C   LIG    1       -6.345  -0.931  -1.278  0.00  0.00    +0.004 A 
ATOM     14  C   LIG    1       -7.102  -1.107  -2.431  0.00  0.00    +0.004 A 
ENDROOT
BRANCH   2  15
ATOM     15  O   LIG    1       -5.032   0.609  -4.895  0.00  0.00    -0.506 OA
ATOM     16  H   LIG    1       -5.644   0.411  -5.607  0.00  0.00    +0.292 HD
ENDBRANCH   2  15
BRANCH   7  17
ATOM     17  N   LIG    1        0.224   0.436  -0.222  0.00  0.00    -0.175 NA
ATOM     18  H   LIG    1        0.243   0.072  -1.178  0.00  0.00    +0.149 HD
BRANCH  17  19
ATOM     19  S   LIG    1        1.706   0.115   0.669  0.00  0.00    +0.097 S 
ATOM     20  O   LIG    1        1.472   0.458   2.076  0.00  0.00    -0.141 OA
ATOM     21  O   LIG    1        2.794   0.761  -0.074  0.00  0.00    -0.141 OA
BRANCH  19  22
ATOM     22  N   LIG    1        1.896  -1.653   0.560  0.00  0.00    -0.167 NA
BRANCH  22  23
ATOM     23  C   LIG    1        0.914  -2.536   1.252  0.00  0.00    +0.107 C 
ATOM     24  C   LIG    1       -0.518  -2.448   0.702  0.00  0.00    +0.022 C 
ENDBRANCH  22  23
BRANCH  22  25
ATOM     25  C   LIG    1        3.267  -2.188   0.351  0.00  0.00    +0.107 C 
ATOM     26  C   LIG    1        3.304  -3.340  -0.665  0.00  0.00    +0.022 C 
ENDBRANCH  22  25
ENDBRANCH  19  22
ENDBRANCH  17  19
ENDBRANCH   7  17
BRANCH   9  27
ATOM     27  C   LIG    1       -3.118   1.135   2.423  0.00  0.00    +0.084 C 
BRANCH  27  28
ATOM     28  C   LIG    1       -3.033  -0.145   3.278  0.00  0.00    +0.012 C 
ATOM     29  C   LIG    1       -1.639  -0.414   3.868  0.00  0.00    +0.005 C 
ENDBRANCH  27  28
ENDBRANCH   9  27
TORSDOF 8
