REMARK  Name = DB09413
REMARK                            x       y       z     vdW  Elec       q    Type
REMARK                         _______ _______ _______ _____ _____    ______ ____
ROOT
ATOM      1  P   LIG    1        1.742   0.002  -0.003  0.00  0.00    +0.470 P 
ATOM      2  O   LIG    1        2.188  -1.442  -0.005  0.00  0.00    -0.228 OA
ENDROOT
BRANCH   1   3
ATOM      3  O   LIG    1        0.030   0.032   0.031  0.00  0.00    -0.303 OA
ATOM      4  H   LIG    1       -0.363   0.907   0.051  0.00  0.00    +0.222 HD
ENDBRANCH   1   3
BRANCH   1   5
ATOM      5  O   LIG    1        2.198   1.011  -1.033  0.00  0.00    -0.303 OA
ATOM      6  H   LIG    1        1.792   1.871  -0.845  0.00  0.00    +0.222 HD
ENDBRANCH   1   5
BRANCH   1   7
ATOM      7  O   LIG    1        2.063   0.659   1.545  0.00  0.00    -0.303 OA
ATOM      8  H   LIG    1        1.802   1.574   1.663  0.00  0.00    +0.222 HD
ENDBRANCH   1   7
TORSDOF 3
