REMARK  Name = DB09389
REMARK                            x       y       z     vdW  Elec       q    Type
REMARK                         _______ _______ _______ _____ _____    ______ ____
ROOT
ATOM      1  C   LIG    1        1.361   0.078  -0.036  0.00  0.00    +0.014 C 
ATOM      2  C   LIG    1        2.099   0.672  -1.308  0.00  0.00    +0.132 C 
ATOM      3  C   LIG    1        3.470  -0.041  -1.303  0.00  0.00    +0.049 C 
ATOM      4  C   LIG    1        3.227  -1.443  -0.736  0.00  0.00    +0.008 C 
ATOM      5  C   LIG    1        1.822  -1.430  -0.089  0.00  0.00    +0.002 C 
ATOM      6  C   LIG    1        1.748  -2.246   1.243  0.00  0.00    -0.003 C 
ATOM      7  C   LIG    1        0.367  -2.879   1.559  0.00  0.00    +0.008 C 
ATOM      8  C   LIG    1        0.388  -3.747   2.830  0.00  0.00    +0.031 C 
ATOM      9  C   LIG    1        0.902  -2.908   3.994  0.00  0.00    -0.063 C 
ATOM     10  C   LIG    1        2.309  -2.332   3.755  0.00  0.00    +0.019 C 
ATOM     11  C   LIG    1        2.888  -1.654   5.030  0.00  0.00    +0.016 C 
ATOM     12  C   LIG    1        1.854  -0.963   5.947  0.00  0.00    +0.079 C 
ATOM     13  C   LIG    1        0.643  -1.860   6.229  0.00  0.00    +0.156 C 
ATOM     14  O   LIG    1        0.024  -1.809   7.289  0.00  0.00    -0.293 OA
ATOM     15  C   LIG    1        0.182  -2.675   5.113  0.00  0.00    +0.045 C 
ATOM     16  C   LIG    1        2.327  -1.466   2.456  0.00  0.00    -0.000 C 
ATOM     17  C   LIG    1        1.646  -0.085   2.558  0.00  0.00    +0.005 C 
ATOM     18  C   LIG    1        1.891   0.746   1.285  0.00  0.00    +0.011 C 
ENDROOT
BRANCH   1  20
ATOM     19  C   LIG    1       -0.786   1.615  -0.254  0.00  0.00    +0.004 C 
ATOM     20  C   LIG    1       -0.206   0.197  -0.082  0.00  0.00    +0.007 C 
ENDBRANCH   1  20
BRANCH   2  21
ATOM     21  O   LIG    1        2.286   2.076  -1.247  0.00  0.00    -0.376 OA
ATOM     22  H   LIG    1        2.769   2.283  -0.444  0.00  0.00    +0.211 HD
ENDBRANCH   2  21
BRANCH   2  23
ATOM     23  C   LIG    1        1.416   0.415  -2.605  0.00  0.00    -0.070 C 
ATOM     24  C   LIG    1        0.857   0.188  -3.668  0.00  0.00    +0.007 C 
ENDBRANCH   2  23
TORSDOF 3
