REMARK  Name = DB09065
REMARK                            x       y       z     vdW  Elec       q    Type
REMARK                         _______ _______ _______ _____ _____    ______ ____
ROOT
ATOM      1  C   LIG    1       -1.524   1.797   0.091  0.00  0.00    +0.077 C 
ENDROOT
BRANCH   1   2
ATOM      2  N   LIG    1       -0.080   1.540   0.086  0.00  0.00    -0.311 N 
ATOM      3  H   LIG    1        0.516   2.345  -0.045  0.00  0.00    +0.149 HD
ATOM      4  C   LIG    1        0.494   0.338   0.253  0.00  0.00    +0.234 C 
ATOM      5  O   LIG    1       -0.134  -0.708   0.426  0.00  0.00    -0.274 OA
BRANCH   4   6
ATOM      6  C   LIG    1        2.031   0.289   0.124  0.00  0.00    +0.161 C 
BRANCH   6   7
ATOM      7  N   LIG    1        2.601  -0.396   1.289  0.00  0.00    -0.288 N 
ATOM      8  H   LIG    1        2.814  -1.373   1.156  0.00  0.00    +0.151 HD
ATOM      9  C   LIG    1        2.687   0.126   2.532  0.00  0.00    +0.303 C 
ATOM     10  O   LIG    1        2.578   1.340   2.730  0.00  0.00    -0.253 OA
ATOM     11  N   LIG    1        2.889  -0.772   3.537  0.00  0.00    -0.283 N 
ATOM     12  C   LIG    1        2.936  -0.336   4.938  0.00  0.00    +0.134 C 
BRANCH  11  13
ATOM     13  C   LIG    1        2.829  -2.242   3.390  0.00  0.00    +0.164 C 
BRANCH  13  14
ATOM     14  C   LIG    1        1.456  -2.829   3.694  0.00  0.00    +0.066 A 
ATOM     15  C   LIG    1        1.150  -3.874   4.556  0.00  0.00    +0.071 A 
ATOM     16  S   LIG    1       -0.563  -4.161   4.527  0.00  0.00    -0.080 S 
ATOM     17  C   LIG    1       -0.731  -2.873   3.363  0.00  0.00    +0.081 A 
ATOM     18  N   LIG    1        0.418  -2.316   3.057  0.00  0.00    -0.247 NA
BRANCH  17  19
ATOM     19  C   LIG    1       -2.038  -2.406   2.721  0.00  0.00    +0.038 C 
ATOM     20  C   LIG    1       -3.248  -3.313   3.024  0.00  0.00    +0.014 C 
ATOM     21  C   LIG    1       -2.347  -0.940   3.088  0.00  0.00    +0.014 C 
ENDBRANCH  17  19
ENDBRANCH  13  14
ENDBRANCH  11  13
ENDBRANCH   6   7
BRANCH   6  22
ATOM     22  C   LIG    1        2.447  -0.385  -1.209  0.00  0.00    +0.047 C 
BRANCH  22  23
ATOM     23  C   LIG    1        2.069   0.445  -2.464  0.00  0.00    +0.087 C 
BRANCH  23  24
ATOM     24  N   LIG    1        2.257  -0.277  -3.726  0.00  0.00    -0.298 NA
ATOM     25  C   LIG    1        2.276   0.673  -4.848  0.00  0.00    +0.112 C 
ATOM     26  C   LIG    1        2.375  -0.049  -6.207  0.00  0.00    +0.175 C 
ATOM     27  O   LIG    1        1.310  -0.983  -6.335  0.00  0.00    -0.377 OA
ATOM     28  C   LIG    1        1.348  -1.979  -5.319  0.00  0.00    +0.175 C 
ATOM     29  C   LIG    1        1.242  -1.325  -3.924  0.00  0.00    +0.112 C 
ENDBRANCH  23  24
ENDBRANCH  22  23
ENDBRANCH   6  22
ENDBRANCH   4   6
ENDBRANCH   1   2
BRANCH   1  30
ATOM     30  C   LIG    1       -2.138   1.685  -1.328  0.00  0.00    +0.024 C 
BRANCH  30  31
ATOM     31  C   LIG    1       -2.148   0.239  -1.876  0.00  0.00    +0.024 C 
BRANCH  31  32
ATOM     32  C   LIG    1       -2.842   0.045  -3.243  0.00  0.00    +0.080 C 
BRANCH  32  33
ATOM     33  N   LIG    1       -2.150   0.822  -4.275  0.00  0.00    -0.278 N 
ATOM     34  H   LIG    1       -1.188   1.081  -4.112  0.00  0.00    +0.152 HD
ATOM     35  C   LIG    1       -2.727   1.167  -5.487  0.00  0.00    +0.401 C 
ATOM     36  O   LIG    1       -3.881   0.914  -5.843  0.00  0.00    -0.226 OA
BRANCH  35  37
ATOM     37  O   LIG    1       -1.819   1.833  -6.225  0.00  0.00    -0.445 OA
BRANCH  37  38
ATOM     38  C   LIG    1       -2.150   2.328  -7.516  0.00  0.00    +0.278 C 
BRANCH  38  39
ATOM     39  C   LIG    1       -0.933   2.986  -8.118  0.00  0.00    +0.046 A 
ATOM     40  S   LIG    1        0.353   2.076  -8.872  0.00  0.00    -0.077 S 
ATOM     41  C   LIG    1        1.175   3.560  -9.203  0.00  0.00    +0.156 A 
ATOM     42  N   LIG    1        0.557   4.637  -8.803  0.00  0.00    -0.255 NA
ATOM     43  C   LIG    1       -0.586   4.336  -8.219  0.00  0.00    +0.125 A 
ENDBRANCH  38  39
ENDBRANCH  37  38
ENDBRANCH  35  37
ENDBRANCH  32  33
BRANCH  32  44
ATOM     44  C   LIG    1       -2.949  -1.456  -3.631  0.00  0.00    +0.057 C 
BRANCH  44  45
ATOM     45  C   LIG    1       -3.738  -2.301  -2.638  0.00  0.00    -0.046 A 
ATOM     46  C   LIG    1       -5.135  -2.293  -2.671  0.00  0.00    +0.004 A 
ATOM     47  C   LIG    1       -5.856  -3.045  -1.747  0.00  0.00    +0.000 A 
ATOM     48  C   LIG    1       -5.178  -3.803  -0.794  0.00  0.00    +0.000 A 
ATOM     49  C   LIG    1       -3.785  -3.818  -0.758  0.00  0.00    +0.000 A 
ATOM     50  C   LIG    1       -3.064  -3.069  -1.684  0.00  0.00    +0.004 A 
ENDBRANCH  44  45
ENDBRANCH  32  44
ENDBRANCH  31  32
ENDBRANCH  30  31
ENDBRANCH   1  30
BRANCH   1  51
ATOM     51  C   LIG    1       -1.828   3.151   0.771  0.00  0.00    +0.057 C 
BRANCH  51  52
ATOM     52  C   LIG    1       -1.479   3.151   2.257  0.00  0.00    -0.046 A 
ATOM     53  C   LIG    1       -2.415   2.693   3.189  0.00  0.00    +0.004 A 
ATOM     54  C   LIG    1       -2.084   2.644   4.540  0.00  0.00    +0.000 A 
ATOM     55  C   LIG    1       -0.819   3.054   4.956  0.00  0.00    +0.000 A 
ATOM     56  C   LIG    1        0.117   3.516   4.033  0.00  0.00    +0.000 A 
ATOM     57  C   LIG    1       -0.214   3.567   2.682  0.00  0.00    +0.004 A 
ENDBRANCH  51  52
ENDBRANCH   1  51
TORSDOF 20
