REMARK  Name = DB09272
REMARK                            x       y       z     vdW  Elec       q    Type
REMARK                         _______ _______ _______ _____ _____    ______ ____
ROOT
ATOM      1  O   LIG    1       -0.673  -1.014   0.335  0.00  0.00    -0.274 OA
ATOM      2  C   LIG    1       -0.147   0.097   0.221  0.00  0.00    +0.234 C 
ATOM      3  N   LIG    1       -0.874   1.253   0.153  0.00  0.00    -0.286 N 
ENDROOT
BRANCH   3   4
ATOM      4  C   LIG    1       -2.357   1.277   0.101  0.00  0.00    +0.139 C 
ATOM      5  C   LIG    1       -2.944   0.566  -1.142  0.00  0.00    +0.036 C 
BRANCH   4   6
ATOM      6  C   LIG    1       -2.985   0.819   1.415  0.00  0.00    +0.128 A 
ATOM      7  N   LIG    1       -3.054   1.627   2.517  0.00  0.00    -0.346 N 
ATOM      8  H   LIG    1       -2.731   2.581   2.590  0.00  0.00    +0.167 HD
ATOM      9  C   LIG    1       -3.643   0.882   3.498  0.00  0.00    +0.112 A 
ATOM     10  C   LIG    1       -3.899  -0.362   2.924  0.00  0.00    +0.089 A 
ATOM     11  N   LIG    1       -3.488  -0.372   1.659  0.00  0.00    -0.231 NA
BRANCH  10  12
ATOM     12  C   LIG    1       -4.535  -1.562   3.564  0.00  0.00    +0.002 A 
ATOM     13  C   LIG    1       -4.738  -2.746   2.840  0.00  0.00    +0.010 A 
ATOM     14  C   LIG    1       -5.330  -3.851   3.446  0.00  0.00    +0.001 A 
ATOM     15  C   LIG    1       -5.721  -3.779   4.780  0.00  0.00    +0.000 A 
ATOM     16  C   LIG    1       -5.526  -2.611   5.513  0.00  0.00    +0.001 A 
ATOM     17  C   LIG    1       -4.934  -1.507   4.905  0.00  0.00    +0.010 A 
ENDBRANCH  10  12
ENDBRANCH   4   6
ENDBRANCH   3   4
BRANCH   2  18
ATOM     18  C   LIG    1        1.404   0.141   0.134  0.00  0.00    +0.142 C 
BRANCH  18  19
ATOM     19  N   LIG    1        1.901  -0.055   1.507  0.00  0.00    -0.320 NA
ATOM     20  H   LIG    1        1.752   0.768   2.073  0.00  0.00    +0.119 HD
ATOM     21  H   LIG    1        2.894  -0.243   1.510  0.00  0.00    +0.119 HD
ENDBRANCH  18  19
BRANCH  18  22
ATOM     22  C   LIG    1        1.939  -0.908  -0.885  0.00  0.00    +0.063 C 
BRANCH  22  23
ATOM     23  C   LIG    1        3.477  -0.944  -0.961  0.00  0.00    -0.040 A 
ATOM     24  C   LIG    1        4.183   0.013  -1.722  0.00  0.00    -0.046 A 
ATOM     25  C   LIG    1        3.478   1.098  -2.534  0.00  0.00    +0.044 C 
ATOM     26  C   LIG    1        5.579  -0.022  -1.765  0.00  0.00    +0.016 A 
ATOM     27  C   LIG    1        6.309  -0.998  -1.073  0.00  0.00    +0.037 A 
ATOM     28  C   LIG    1        5.600  -1.950  -0.334  0.00  0.00    +0.016 A 
ATOM     29  C   LIG    1        4.204  -1.939  -0.274  0.00  0.00    -0.046 A 
ATOM     30  C   LIG    1        3.520  -3.028   0.548  0.00  0.00    +0.044 C 
BRANCH  27  31
ATOM     31  C   LIG    1        7.823  -1.041  -1.107  0.00  0.00    +0.242 C 
ATOM     32  N   LIG    1        8.441  -0.259  -1.999  0.00  0.00    -0.325 N 
ATOM     33  H   LIG    1        9.450  -0.254  -2.053  0.00  0.00    +0.145 HD
ATOM     34  H   LIG    1        7.907   0.323  -2.626  0.00  0.00    +0.145 HD
ATOM     35  O   LIG    1        8.463  -1.764  -0.344  0.00  0.00    -0.270 OA
ENDBRANCH  27  31
ENDBRANCH  22  23
ENDBRANCH  18  22
ENDBRANCH   2  18
BRANCH   3  36
ATOM     36  C   LIG    1       -0.274   2.602   0.176  0.00  0.00    +0.143 C 
BRANCH  36  37
ATOM     37  C   LIG    1       -0.158   3.291  -1.183  0.00  0.00    -0.029 A 
ATOM     38  C   LIG    1       -0.342   4.668  -1.264  0.00  0.00    +0.009 A 
ATOM     39  C   LIG    1       -0.260   5.317  -2.491  0.00  0.00    +0.047 A 
ATOM     40  C   LIG    1        0.002   4.606  -3.676  0.00  0.00    +0.134 A 
ATOM     41  C   LIG    1        0.179   3.204  -3.607  0.00  0.00    +0.101 A 
ATOM     42  C   LIG    1        0.094   2.572  -2.354  0.00  0.00    +0.023 A 
BRANCH  41  43
ATOM     43  C   LIG    1        0.477   2.371  -4.842  0.00  0.00    +0.340 C 
ATOM     44  O   LIG    1        0.799   2.862  -5.922  0.00  0.00    -0.245 OA
BRANCH  43  45
ATOM     45  O   LIG    1        0.356   1.020  -4.669  0.00  0.00    -0.477 OA
ATOM     46  H   LIG    1        0.547   0.534  -5.473  0.00  0.00    +0.295 HD
ENDBRANCH  43  45
ENDBRANCH  41  43
BRANCH  40  47
ATOM     47  O   LIG    1        0.078   5.233  -4.910  0.00  0.00    -0.494 OA
ATOM     48  C   LIG    1       -0.094   6.643  -5.010  0.00  0.00    +0.277 C 
ENDBRANCH  40  47
ENDBRANCH  36  37
ENDBRANCH   3  36
TORSDOF 13
