REMARK  Name = DB09080
REMARK                            x       y       z     vdW  Elec       q    Type
REMARK                         _______ _______ _______ _____ _____    ______ ____
ROOT
ATOM      1  C   LIG    1       -2.264   1.129   0.111  0.00  0.00    +0.162 C 
ENDROOT
BRANCH   1   7
ATOM      2  C   LIG    1       -1.861   1.807  -5.068  0.00  0.00    +0.255 C 
ATOM      3  O   LIG    1       -1.548   2.226  -6.180  0.00  0.00    -0.272 OA
ATOM      4  C   LIG    1       -2.014   2.699  -3.802  0.00  0.00    +0.325 C 
ATOM      5  O   LIG    1       -1.684   2.013  -2.573  0.00  0.00    -0.481 OA
ATOM      6  C   LIG    1       -2.260   0.767  -2.421  0.00  0.00    +0.148 A 
ATOM      7  C   LIG    1       -2.557   0.277  -1.140  0.00  0.00    +0.029 A 
ATOM      8  C   LIG    1       -3.077  -1.024  -1.037  0.00  0.00    +0.055 A 
ATOM      9  C   LIG    1       -3.290  -1.806  -2.176  0.00  0.00    +0.119 A 
ATOM     10  C   LIG    1       -2.974  -1.308  -3.440  0.00  0.00    +0.072 A 
ATOM     11  C   LIG    1       -2.454  -0.021  -3.559  0.00  0.00    +0.080 A 
ATOM     12  N   LIG    1       -2.107   0.508  -4.800  0.00  0.00    -0.280 N 
ATOM     13  H   LIG    1       -2.079  -0.108  -5.599  0.00  0.00    +0.155 HD
BRANCH   9  14
ATOM     14  O   LIG    1       -3.794  -3.073  -2.051  0.00  0.00    -0.507 OA
ATOM     15  H   LIG    1       -3.967  -3.319  -1.140  0.00  0.00    +0.292 HD
ENDBRANCH   9  14
ENDBRANCH   1   7
BRANCH   1  16
ATOM     16  O   LIG    1       -2.789   0.597   1.317  0.00  0.00    -0.386 OA
ATOM     17  H   LIG    1       -2.382   1.057   2.055  0.00  0.00    +0.210 HD
ENDBRANCH   1  16
BRANCH   1  18
ATOM     18  C   LIG    1       -0.754   1.413   0.333  0.00  0.00    +0.117 C 
BRANCH  18  19
ATOM     19  N   LIG    1        0.049   0.195   0.209  0.00  0.00    -0.308 NA
ATOM     20  H   LIG    1       -0.304  -0.385  -0.539  0.00  0.00    +0.123 HD
BRANCH  19  21
ATOM     21  C   LIG    1        1.510   0.319   0.105  0.00  0.00    +0.018 C 
ATOM     22  C   LIG    1        2.067   0.778   1.473  0.00  0.00    +0.027 C 
ATOM     23  C   LIG    1        1.912   1.337  -0.995  0.00  0.00    +0.027 C 
BRANCH  21  24
ATOM     24  C   LIG    1        2.070  -1.098  -0.239  0.00  0.00    +0.056 C 
BRANCH  24  25
ATOM     25  C   LIG    1        1.420  -1.795  -1.438  0.00  0.00    -0.045 A 
ATOM     26  C   LIG    1        1.802  -1.468  -2.740  0.00  0.00    +0.007 A 
ATOM     27  C   LIG    1        1.165  -2.061  -3.826  0.00  0.00    +0.046 A 
ATOM     28  C   LIG    1        0.148  -3.006  -3.619  0.00  0.00    +0.120 A 
ATOM     29  C   LIG    1       -0.204  -3.353  -2.314  0.00  0.00    +0.046 A 
ATOM     30  C   LIG    1        0.422  -2.750  -1.228  0.00  0.00    +0.007 A 
BRANCH  28  31
ATOM     31  O   LIG    1       -0.556  -3.629  -4.631  0.00  0.00    -0.495 OA
ATOM     32  C   LIG    1       -0.302  -3.257  -5.981  0.00  0.00    +0.277 C 
ENDBRANCH  28  31
ENDBRANCH  24  25
ENDBRANCH  21  24
ENDBRANCH  19  21
ENDBRANCH  18  19
ENDBRANCH   1  18
TORSDOF 9
