REMARK  Name = DB09230
REMARK                            x       y       z     vdW  Elec       q    Type
REMARK                         _______ _______ _______ _____ _____    ______ ____
ROOT
ATOM      1  C   LIG    1       -0.112   0.331   0.107  0.00  0.00    +0.132 C 
ATOM      2  C   LIG    1       -0.964   1.385   0.222  0.00  0.00    +0.269 C 
ATOM      3  N   LIG    1       -2.319   1.214   0.091  0.00  0.00    -0.209 N 
ATOM      4  H   LIG    1       -2.902   2.028   0.216  0.00  0.00    +0.298 HD
ATOM      5  C   LIG    1       -2.944  -0.014   0.115  0.00  0.00    +0.103 C 
ATOM      6  C   LIG    1       -4.466   0.123   0.168  0.00  0.00    +0.090 C 
ATOM      7  C   LIG    1       -2.201  -1.155  -0.012  0.00  0.00    +0.088 C 
ATOM      8  C   LIG    1       -0.651  -1.093  -0.219  0.00  0.00    +0.104 C 
ENDROOT
BRANCH   8   9
ATOM      9  C   LIG    1       -0.205  -1.577  -1.612  0.00  0.00    -0.033 A 
ATOM     10  C   LIG    1        0.596  -2.718  -1.749  0.00  0.00    +0.037 A 
ATOM     11  C   LIG    1        1.016  -3.167  -3.009  0.00  0.00    +0.122 A 
ATOM     12  C   LIG    1        0.623  -2.441  -4.143  0.00  0.00    +0.032 A 
ATOM     13  C   LIG    1       -0.171  -1.302  -4.018  0.00  0.00    +0.003 A 
ATOM     14  C   LIG    1       -0.585  -0.873  -2.759  0.00  0.00    +0.005 A 
BRANCH  11  15
ATOM     15  N   LIG    1        1.854  -4.383  -3.136  0.00  0.00    +0.006 N 
ATOM     16  O   LIG    1        2.158  -4.996  -2.116  0.00  0.00    -0.130 OA
BRANCH  15  17
ATOM     17  O   LIG    1        2.218  -4.732  -4.256  0.00  0.00    -0.396 OA
ATOM     18  H   LIG    1        1.962  -4.234  -5.008  0.00  0.00    +0.329 HD
ENDBRANCH  15  17
ENDBRANCH  11  15
ENDBRANCH   8   9
BRANCH   2  19
ATOM     19  N   LIG    1       -0.689   2.658   0.658  0.00  0.00    -0.251 N 
ATOM     20  H   LIG    1       -1.420   3.346   0.770  0.00  0.00    +0.288 HD
ATOM     21  H   LIG    1        0.258   2.940   0.870  0.00  0.00    +0.288 HD
ENDBRANCH   2  19
BRANCH   1  22
ATOM     22  C   LIG    1        1.364   0.496   0.229  0.00  0.00    +0.344 C 
ATOM     23  O   LIG    1        1.931   1.592   0.246  0.00  0.00    -0.245 OA
BRANCH  22  24
ATOM     24  O   LIG    1        2.039  -0.684   0.275  0.00  0.00    -0.462 OA
BRANCH  24  28
ATOM     25  N   LIG    1        4.200  -2.091  -1.312  0.00  0.00    +0.392 N 
ATOM     26  H   LIG    1        3.431  -2.512  -1.814  0.00  0.00    -0.080 HD
ATOM     27  C   LIG    1        3.967  -2.192   0.201  0.00  0.00    -0.034 C 
ATOM     28  C   LIG    1        3.463  -0.742   0.216  0.00  0.00    +0.144 C 
ATOM     29  C   LIG    1        4.007  -0.573  -1.212  0.00  0.00    -0.034 C 
BRANCH  25  30
ATOM     30  C   LIG    1        5.529  -2.616  -1.909  0.00  0.00    -0.006 C 
BRANCH  30  31
ATOM     31  C   LIG    1        5.710  -4.123  -1.691  0.00  0.00    -0.057 A 
ATOM     32  C   LIG    1        5.314  -5.046  -2.667  0.00  0.00    +0.002 A 
ATOM     33  C   LIG    1        5.493  -6.411  -2.459  0.00  0.00    +0.000 A 
ATOM     34  C   LIG    1        6.081  -6.856  -1.278  0.00  0.00    +0.000 A 
ATOM     35  C   LIG    1        6.495  -5.949  -0.306  0.00  0.00    +0.000 A 
ATOM     36  C   LIG    1        6.314  -4.584  -0.515  0.00  0.00    +0.002 A 
ENDBRANCH  30  31
BRANCH  30  37
ATOM     37  C   LIG    1        5.777  -2.151  -3.351  0.00  0.00    -0.057 A 
ATOM     38  C   LIG    1        4.721  -1.993  -4.259  0.00  0.00    +0.002 A 
ATOM     39  C   LIG    1        4.972  -1.558  -5.557  0.00  0.00    +0.000 A 
ATOM     40  C   LIG    1        6.278  -1.274  -5.948  0.00  0.00    +0.000 A 
ATOM     41  C   LIG    1        7.335  -1.421  -5.053  0.00  0.00    +0.000 A 
ATOM     42  C   LIG    1        7.083  -1.857  -3.755  0.00  0.00    +0.002 A 
ENDBRANCH  30  37
ENDBRANCH  25  30
ENDBRANCH  24  28
ENDBRANCH  22  24
ENDBRANCH   1  22
BRANCH   7  43
ATOM     43  C   LIG    1       -2.821  -2.515   0.025  0.00  0.00    +0.340 C 
ATOM     44  O   LIG    1       -4.023  -2.723   0.208  0.00  0.00    -0.245 OA
BRANCH  43  45
ATOM     45  O   LIG    1       -1.925  -3.528  -0.135  0.00  0.00    -0.459 OA
BRANCH  45  46
ATOM     46  C   LIG    1       -2.308  -4.901  -0.197  0.00  0.00    +0.171 C 
ATOM     47  C   LIG    1       -2.865  -5.247  -1.592  0.00  0.00    +0.052 C 
ATOM     48  C   LIG    1       -1.066  -5.741   0.141  0.00  0.00    +0.052 C 
ENDBRANCH  45  46
ENDBRANCH  43  45
ENDBRANCH   7  43
TORSDOF 13
