REMARK  Name = DB09298
REMARK                            x       y       z     vdW  Elec       q    Type
REMARK                         _______ _______ _______ _____ _____    ______ ____
ROOT
ATOM      1  C   LIG    1        0.041   0.019  -0.096  0.00  0.00    +0.246 C 
ATOM      2  O   LIG    1       -0.389   1.380  -0.227  0.00  0.00    -0.477 OA
ATOM      3  C   LIG    1       -1.744   1.522  -0.439  0.00  0.00    +0.163 A 
ATOM      4  C   LIG    1       -2.526   0.479  -0.952  0.00  0.00    +0.163 A 
ATOM      5  C   LIG    1       -3.884   0.677  -1.193  0.00  0.00    +0.050 A 
ATOM      6  C   LIG    1       -4.457   1.925  -0.938  0.00  0.00    +0.011 A 
ATOM      7  C   LIG    1       -3.678   2.978  -0.437  0.00  0.00    -0.001 A 
ATOM      8  O   LIG    1       -2.012  -0.783  -1.168  0.00  0.00    -0.479 OA
ATOM      9  C   LIG    1       -2.314   2.770  -0.192  0.00  0.00    +0.056 A 
ATOM     10  C   LIG    1       -0.579  -0.850  -1.237  0.00  0.00    +0.244 C 
ENDROOT
BRANCH   7  11
ATOM     11  C   LIG    1       -4.307   4.342  -0.159  0.00  0.00    +0.240 C 
ATOM     12  C   LIG    1       -3.748   5.461  -1.076  0.00  0.00    +0.230 C 
ATOM     13  C   LIG    1       -4.402   6.821  -0.748  0.00  0.00    +0.202 C 
ATOM     14  C   LIG    1       -4.822   6.984   0.691  0.00  0.00    +0.103 A 
ATOM     15  C   LIG    1       -5.411   8.163   1.202  0.00  0.00    +0.134 A 
ATOM     16  C   LIG    1       -5.791   8.242   2.545  0.00  0.00    +0.091 A 
ATOM     17  C   LIG    1       -5.599   7.161   3.400  0.00  0.00    +0.124 A 
ATOM     18  C   LIG    1       -5.028   5.989   2.918  0.00  0.00    +0.092 A 
ATOM     19  C   LIG    1       -4.655   5.899   1.578  0.00  0.00    +0.139 A 
ATOM     20  O   LIG    1       -4.585   7.704  -1.589  0.00  0.00    -0.289 OA
ATOM     21  O   LIG    1       -4.079   4.701   1.205  0.00  0.00    -0.480 OA
BRANCH  12  22
ATOM     22  O   LIG    1       -3.851   5.179  -2.463  0.00  0.00    -0.380 OA
ATOM     23  H   LIG    1       -4.776   5.034  -2.679  0.00  0.00    +0.211 HD
ENDBRANCH  12  22
BRANCH  15  24
ATOM     24  O   LIG    1       -5.634   9.277   0.431  0.00  0.00    -0.506 OA
ATOM     25  H   LIG    1       -6.037   9.996   0.921  0.00  0.00    +0.292 HD
ENDBRANCH  15  24
BRANCH  17  26
ATOM     26  O   LIG    1       -5.971   7.253   4.715  0.00  0.00    -0.507 OA
ATOM     27  H   LIG    1       -6.350   8.106   4.936  0.00  0.00    +0.292 HD
ENDBRANCH  17  26
ENDBRANCH   7  11
BRANCH   1  28
ATOM     28  C   LIG    1        1.567  -0.031  -0.047  0.00  0.00    -0.000 A 
ATOM     29  C   LIG    1        2.321   0.552  -1.068  0.00  0.00    +0.011 A 
ATOM     30  C   LIG    1        3.712   0.500  -1.031  0.00  0.00    +0.049 A 
ATOM     31  C   LIG    1        4.363  -0.134   0.027  0.00  0.00    +0.158 A 
ATOM     32  C   LIG    1        3.628  -0.725   1.065  0.00  0.00    +0.162 A 
ATOM     33  C   LIG    1        2.224  -0.665   1.014  0.00  0.00    +0.056 A 
BRANCH  31  34
ATOM     34  O   LIG    1        5.734  -0.171   0.035  0.00  0.00    -0.503 OA
ATOM     35  H   LIG    1        6.126   0.261  -0.728  0.00  0.00    +0.292 HD
ENDBRANCH  31  34
BRANCH  32  36
ATOM     36  O   LIG    1        4.337  -1.337   2.085  0.00  0.00    -0.491 OA
ATOM     37  C   LIG    1        3.631  -1.942   3.163  0.00  0.00    +0.277 C 
ENDBRANCH  32  36
ENDBRANCH   1  28
BRANCH  10  38
ATOM     38  C   LIG    1       -0.160  -2.335  -1.182  0.00  0.00    +0.204 C 
BRANCH  38  39
ATOM     39  O   LIG    1       -0.632  -3.037  -2.315  0.00  0.00    -0.391 OA
ATOM     40  H   LIG    1       -0.177  -2.705  -3.092  0.00  0.00    +0.210 HD
ENDBRANCH  38  39
ENDBRANCH  10  38
TORSDOF 9
