REMARK  Name = DB09501
REMARK                            x       y       z     vdW  Elec       q    Type
REMARK                         _______ _______ _______ _____ _____    ______ ____
ROOT
ATOM      1  C   LIG    1        1.598   0.173   0.014  0.00  0.00    +0.182 C 
ENDROOT
BRANCH   1   2
ATOM      2  C   LIG    1        2.190   0.756  -1.298  0.00  0.00    +0.338 C 
ATOM      3  O   LIG    1        1.995   0.267  -2.410  0.00  0.00    -0.248 OA
BRANCH   2   4
ATOM      4  O   LIG    1        2.957   1.871  -1.100  0.00  0.00    -0.479 OA
ATOM      5  H   LIG    1        3.317   2.218  -1.919  0.00  0.00    +0.295 HD
ENDBRANCH   2   4
ENDBRANCH   1   2
BRANCH   1   6
ATOM      6  O   LIG    1        1.946   0.906   1.162  0.00  0.00    -0.376 OA
ATOM      7  H   LIG    1        1.536   0.470   1.912  0.00  0.00    +0.211 HD
ENDBRANCH   1   6
BRANCH   1   8
ATOM      8  C   LIG    1        0.053   0.143  -0.115  0.00  0.00    +0.167 C 
BRANCH   8   9
ATOM      9  C   LIG    1       -0.628   1.508  -0.225  0.00  0.00    +0.308 C 
ATOM     10  O   LIG    1       -0.083   2.606  -0.126  0.00  0.00    -0.251 OA
BRANCH   9  11
ATOM     11  O   LIG    1       -1.964   1.341  -0.445  0.00  0.00    -0.481 OA
ATOM     12  H   LIG    1       -2.427   2.178  -0.519  0.00  0.00    +0.295 HD
ENDBRANCH   9  11
ENDBRANCH   8   9
ENDBRANCH   1   8
BRANCH   1  13
ATOM     13  C   LIG    1        2.102  -1.285   0.172  0.00  0.00    +0.167 C 
BRANCH  13  14
ATOM     14  C   LIG    1        3.608  -1.446   0.375  0.00  0.00    +0.308 C 
ATOM     15  O   LIG    1        4.425  -0.539   0.529  0.00  0.00    -0.251 OA
BRANCH  14  16
ATOM     16  O   LIG    1        3.936  -2.770   0.374  0.00  0.00    -0.481 OA
ATOM     17  H   LIG    1        4.877  -2.911   0.502  0.00  0.00    +0.295 HD
ENDBRANCH  14  16
ENDBRANCH  13  14
ENDBRANCH   1  13
TORSDOF 9
