REMARK  Name = DB09209
REMARK                            x       y       z     vdW  Elec       q    Type
REMARK                         _______ _______ _______ _____ _____    ______ ____
ROOT
ATOM      1  C   LIG    1        7.302  -5.524  -1.322  0.00  0.00    +0.105 C 
ATOM      2  N   LIG    1        5.899  -5.121  -1.233  0.00  0.00    -0.301 NA
ATOM      3  C   LIG    1        5.454  -4.987   0.178  0.00  0.00    +0.068 C 
ATOM      4  C   LIG    1        5.965  -3.642   0.818  0.00  0.00    +0.043 C 
ATOM      5  C   LIG    1        5.359  -2.476   0.004  0.00  0.00    +0.048 C 
ATOM      6  C   LIG    1        5.420  -1.029   0.572  0.00  0.00    +0.217 C 
ATOM      7  O   LIG    1        4.178  -0.414   0.141  0.00  0.00    -0.481 OA
ATOM      8  C   LIG    1        3.262  -1.421  -0.039  0.00  0.00    +0.167 A 
ATOM      9  C   LIG    1        1.882  -1.298  -0.179  0.00  0.00    +0.162 A 
ATOM     10  C   LIG    1        1.127  -2.489  -0.224  0.00  0.00    +0.050 A 
ATOM     11  C   LIG    1        1.754  -3.740  -0.095  0.00  0.00    +0.008 A 
ATOM     12  C   LIG    1        3.147  -3.842   0.035  0.00  0.00    -0.038 A 
ATOM     13  C   LIG    1        5.581  -0.918   2.136  0.00  0.00    +0.178 C 
ATOM     14  C   LIG    1        5.484  -2.253   2.871  0.00  0.00    +0.004 C 
ATOM     15  C   LIG    1        3.866  -2.648  -0.013  0.00  0.00    +0.012 A 
ATOM     16  C   LIG    1        5.961  -2.595  -1.421  0.00  0.00    +0.031 C 
ATOM     17  C   LIG    1        5.674  -3.457   2.300  0.00  0.00    -0.023 C 
ATOM     18  C   LIG    1        3.902  -5.148   0.304  0.00  0.00    +0.055 C 
ATOM     19  C   LIG    1        5.621  -3.949  -2.087  0.00  0.00    +0.085 C 
ENDROOT
BRANCH  13  20
ATOM     20  O   LIG    1        4.681   0.014   2.708  0.00  0.00    -0.384 OA
ATOM     21  H   LIG    1        4.927   0.153   3.625  0.00  0.00    +0.210 HD
ENDBRANCH  13  20
BRANCH   9  22
ATOM     22  O   LIG    1        1.374  -0.016  -0.234  0.00  0.00    -0.487 OA
BRANCH  22  23
ATOM     23  C   LIG    1       -0.039   0.163  -0.278  0.00  0.00    +0.244 C 
BRANCH  23  24
ATOM     24  C   LIG    1       -0.378   1.668  -0.254  0.00  0.00    +0.125 C 
BRANCH  24  25
ATOM     25  N   LIG    1        0.225   2.400   0.867  0.00  0.00    -0.295 NA
ATOM     26  C   LIG    1       -0.207   1.915   2.187  0.00  0.00    +0.112 C 
ATOM     27  C   LIG    1        0.383   2.770   3.328  0.00  0.00    +0.175 C 
ATOM     28  O   LIG    1        0.075   4.144   3.124  0.00  0.00    -0.377 OA
ATOM     29  C   LIG    1        0.603   4.637   1.898  0.00  0.00    +0.175 C 
ATOM     30  C   LIG    1        0.013   3.845   0.712  0.00  0.00    +0.112 C 
ENDBRANCH  24  25
ENDBRANCH  23  24
ENDBRANCH  22  23
ENDBRANCH   9  22
TORSDOF 5
