REMARK  Name = DB09286
REMARK                            x       y       z     vdW  Elec       q    Type
REMARK                         _______ _______ _______ _____ _____    ______ ____
ROOT
ATOM      1  C   LIG    1       -0.189   4.509   0.156  0.00  0.00    +0.095 C 
ATOM      2  C   LIG    1       -0.569   3.600   1.384  0.00  0.00    +0.013 C 
ATOM      3  C   LIG    1        0.003   2.161   1.408  0.00  0.00    -0.077 C 
ATOM      4  N   LIG    1       -0.325   1.456   0.072  0.00  0.00    +0.380 N 
ATOM      5  H   LIG    1       -1.333   1.454  -0.007  0.00  0.00    -0.082 HD
ATOM      6  C   LIG    1        0.201   2.246  -1.147  0.00  0.00    -0.077 C 
ATOM      7  C   LIG    1       -0.471   3.633  -1.120  0.00  0.00    +0.013 C 
ENDROOT
BRANCH   1   8
ATOM      8  N   LIG    1       -0.922   5.817   0.172  0.00  0.00    -0.289 NA
ATOM      9  C   LIG    1       -0.715   6.630   1.394  0.00  0.00    +0.085 C 
ATOM     10  C   LIG    1       -1.250   8.068   1.248  0.00  0.00    +0.015 C 
ATOM     11  C   LIG    1       -2.734   8.082   0.869  0.00  0.00    +0.002 C 
ATOM     12  C   LIG    1       -2.958   7.201  -0.365  0.00  0.00    +0.015 C 
ATOM     13  C   LIG    1       -2.351   5.790  -0.205  0.00  0.00    +0.085 C 
ENDBRANCH   1   8
BRANCH   1  14
ATOM     14  C   LIG    1        1.359   4.811   0.132  0.00  0.00    +0.231 C 
ATOM     15  O   LIG    1        2.141   4.286   0.924  0.00  0.00    -0.274 OA
ATOM     16  N   LIG    1        1.817   5.680  -0.779  0.00  0.00    -0.328 N 
ATOM     17  H   LIG    1        2.801   5.901  -0.820  0.00  0.00    +0.145 HD
ATOM     18  H   LIG    1        1.176   6.144  -1.405  0.00  0.00    +0.145 HD
ENDBRANCH   1  14
BRANCH   4  19
ATOM     19  C   LIG    1        0.120  -0.028   0.059  0.00  0.00    -0.078 C 
BRANCH  19  20
ATOM     20  C   LIG    1        1.650  -0.225   0.047  0.00  0.00    -0.011 C 
BRANCH  20  21
ATOM     21  C   LIG    1        2.031  -1.716   0.105  0.00  0.00    +0.078 C 
BRANCH  21  22
ATOM     22  C   LIG    1        3.551  -1.942   0.078  0.00  0.00    +0.163 C 
ATOM     23  O   LIG    1        4.078  -2.167  -1.012  0.00  0.00    -0.292 OA
BRANCH  22  24
ATOM     24  C   LIG    1        4.311  -1.915   1.372  0.00  0.00    +0.018 A 
ATOM     25  C   LIG    1        5.679  -2.225   1.367  0.00  0.00    +0.014 A 
ATOM     26  C   LIG    1        6.415  -2.201   2.548  0.00  0.00    +0.039 A 
ATOM     27  C   LIG    1        5.790  -1.866   3.746  0.00  0.00    +0.123 A 
ATOM     28  F   LIG    1        6.505  -1.842   4.893  0.00  0.00    -0.205 F 
ATOM     29  C   LIG    1        4.434  -1.553   3.769  0.00  0.00    +0.039 A 
ATOM     30  C   LIG    1        3.696  -1.576   2.588  0.00  0.00    +0.014 A 
ENDBRANCH  22  24
ENDBRANCH  21  22
ENDBRANCH  20  21
ENDBRANCH  19  20
ENDBRANCH   4  19
TORSDOF 7
