REMARK  Name = DB09495
REMARK                            x       y       z     vdW  Elec       q    Type
REMARK                         _______ _______ _______ _____ _____    ______ ____
ROOT
ATOM      1  C   LIG    1       -0.451   1.608   0.000  0.00  0.00    +0.171 C 
ATOM      2  O   LIG    1        0.252   2.622   0.000  0.00  0.00    -0.292 OA
ENDROOT
BRANCH   1   6
ATOM      3  C   LIG    1       -4.772   1.875   0.000  0.00  0.00    -0.042 A 
ATOM      4  C   LIG    1       -3.970   3.023   0.000  0.00  0.00    +0.005 A 
ATOM      5  C   LIG    1       -2.582   2.929   0.000  0.00  0.00    +0.011 A 
ATOM      6  C   LIG    1       -1.952   1.678   0.000  0.00  0.00    +0.018 A 
ATOM      7  C   LIG    1       -2.749   0.526   0.000  0.00  0.00    +0.011 A 
ATOM      8  C   LIG    1       -4.138   0.623   0.000  0.00  0.00    +0.005 A 
BRANCH   3  10
ATOM      9  C   LIG    1       -6.766   2.800   1.263  0.00  0.00    +0.015 C 
ATOM     10  C   LIG    1       -6.316   2.024   0.000  0.00  0.00    -0.013 C 
ATOM     11  C   LIG    1       -6.766   2.800  -1.263  0.00  0.00    +0.015 C 
ATOM     12  C   LIG    1       -7.065   0.664   0.000  0.00  0.00    +0.015 C 
ENDBRANCH   3  10
ENDBRANCH   1   6
BRANCH   1  13
ATOM     13  C   LIG    1        0.183   0.192   0.000  0.00  0.00    +0.159 C 
BRANCH  13  14
ATOM     14  C   LIG    1        1.727   0.040   0.000  0.00  0.00    +0.171 C 
ATOM     15  O   LIG    1        2.466   1.027   0.000  0.00  0.00    -0.292 OA
BRANCH  14  16
ATOM     16  C   LIG    1        2.270  -1.361   0.000  0.00  0.00    +0.018 A 
ATOM     17  C   LIG    1        3.657  -1.563   0.000  0.00  0.00    +0.015 A 
ATOM     18  C   LIG    1        4.186  -2.850   0.000  0.00  0.00    +0.046 A 
ATOM     19  C   LIG    1        3.347  -3.963   0.000  0.00  0.00    +0.120 A 
ATOM     20  C   LIG    1        1.958  -3.769   0.000  0.00  0.00    +0.046 A 
ATOM     21  C   LIG    1        1.427  -2.482   0.000  0.00  0.00    +0.015 A 
BRANCH  19  22
ATOM     22  O   LIG    1        3.962  -5.200   0.000  0.00  0.00    -0.495 OA
ATOM     23  C   LIG    1        3.158  -6.375   0.000  0.00  0.00    +0.277 C 
ENDBRANCH  19  22
ENDBRANCH  14  16
ENDBRANCH  13  14
ENDBRANCH   1  13
TORSDOF 6
