REMARK  Name = DB09151
REMARK                            x       y       z     vdW  Elec       q    Type
REMARK                         _______ _______ _______ _____ _____    ______ ____
ROOT
ATOM      1  C   LIG    1        1.517   0.041   0.000  0.00  0.00    +0.110 A 
ATOM      2  N   LIG    1        2.244  -1.048   0.000  0.00  0.00    -0.239 NA
ATOM      3  C   LIG    1        3.576  -0.778   0.000  0.00  0.00    +0.079 A 
ATOM      4  C   LIG    1        4.593  -1.746   0.000  0.00  0.00    +0.032 A 
ATOM      5  C   LIG    1        5.921  -1.313   0.000  0.00  0.00    +0.047 A 
ATOM      6  C   LIG    1        6.244   0.045   0.000  0.00  0.00    +0.118 A 
ATOM      7  C   LIG    1        5.248   1.024   0.000  0.00  0.00    +0.062 A 
ATOM      8  C   LIG    1        3.912   0.601   0.000  0.00  0.00    +0.043 A 
ATOM      9  S   LIG    1        2.432   1.546   0.000  0.00  0.00    -0.067 S 
ENDROOT
BRANCH   1  16
ATOM     10  C   LIG    1       -0.743   1.211   0.000  0.00  0.00    +0.050 A 
ATOM     11  C   LIG    1       -2.137   1.183   0.000  0.00  0.00    +0.145 A 
ATOM     12  F   LIG    1       -2.817   2.355   0.000  0.00  0.00    -0.204 F 
ATOM     13  C   LIG    1       -2.822  -0.039   0.000  0.00  0.00    +0.063 A 
ATOM     14  C   LIG    1       -2.079  -1.227   0.000  0.00  0.00    +0.026 A 
ATOM     15  C   LIG    1       -0.685  -1.192   0.000  0.00  0.00    +0.012 A 
ATOM     16  C   LIG    1        0.010   0.027   0.000  0.00  0.00    +0.010 A 
BRANCH  13  17
ATOM     17  N   LIG    1       -4.229  -0.024   0.000  0.00  0.00    -0.345 N 
ATOM     18  H   LIG    1       -4.712   0.863   0.000  0.00  0.00    +0.146 HD
ATOM     19  C   LIG    1       -5.019  -1.246   0.000  0.00  0.00    +0.125 C 
ENDBRANCH  13  17
ENDBRANCH   1  16
BRANCH   6  20
ATOM     20  O   LIG    1        7.561   0.423   0.000  0.00  0.00    -0.507 OA
ATOM     21  H   LIG    1        7.680   1.376   0.000  0.00  0.00    +0.292 HD
ENDBRANCH   6  20
TORSDOF 3
