REMARK  Name = DB09346
REMARK                            x       y       z     vdW  Elec       q    Type
REMARK                         _______ _______ _______ _____ _____    ______ ____
ROOT
ATOM      1  C   LIG    1       -2.129   1.227   0.021  0.00  0.00    +0.089 A 
ATOM      2  C   LIG    1       -2.833   0.008   0.043  0.00  0.00    +0.051 A 
ATOM      3  I   LIG    1       -4.947  -0.028   0.049  0.00  0.00    -0.041 I 
ATOM      4  C   LIG    1       -2.122  -1.204   0.065  0.00  0.00    +0.063 A 
ATOM      5  C   LIG    1       -0.719  -1.212   0.093  0.00  0.00    +0.058 A 
ATOM      6  I   LIG    1        0.329  -3.042   0.178  0.00  0.00    -0.040 I 
ATOM      7  C   LIG    1       -0.022   0.008   0.063  0.00  0.00    +0.065 A 
ATOM      8  C   LIG    1       -0.721   1.229   0.029  0.00  0.00    +0.051 A 
ATOM      9  I   LIG    1        0.360   3.047  -0.012  0.00  0.00    -0.041 I 
ENDROOT
BRANCH   7  10
ATOM     10  N   LIG    1        1.386   0.003   0.076  0.00  0.00    -0.273 N 
ATOM     11  C   LIG    1        2.020   0.038   1.400  0.00  0.00    +0.138 C 
ATOM     12  C   LIG    1        2.132  -0.040  -1.066  0.00  0.00    +0.216 C 
ATOM     13  O   LIG    1        3.364  -0.057  -1.051  0.00  0.00    -0.276 OA
ATOM     14  C   LIG    1        1.459  -0.070  -2.448  0.00  0.00    +0.109 C 
ENDBRANCH   7  10
BRANCH   4  15
ATOM     15  N   LIG    1       -2.820  -2.419   0.083  0.00  0.00    -0.284 N 
ATOM     16  H   LIG    1       -3.067  -2.793   0.987  0.00  0.00    +0.155 HD
ATOM     17  C   LIG    1       -3.174  -3.095  -1.028  0.00  0.00    +0.214 C 
ATOM     18  C   LIG    1       -3.932  -4.400  -0.810  0.00  0.00    +0.109 C 
ATOM     19  O   LIG    1       -2.922  -2.724  -2.175  0.00  0.00    -0.276 OA
ENDBRANCH   4  15
BRANCH   1  20
ATOM     20  C   LIG    1       -2.882   2.527  -0.011  0.00  0.00    +0.339 C 
ATOM     21  O   LIG    1       -3.208   3.119   1.015  0.00  0.00    -0.245 OA
BRANCH  20  22
ATOM     22  O   LIG    1       -3.159   2.966  -1.272  0.00  0.00    -0.477 OA
ATOM     23  H   LIG    1       -3.643   3.794  -1.271  0.00  0.00    +0.295 HD
ENDBRANCH  20  22
ENDBRANCH   1  20
TORSDOF 4
