REMARK  Name = DB09022
REMARK                            x       y       z     vdW  Elec       q    Type
REMARK                         _______ _______ _______ _____ _____    ______ ____
ROOT
ATOM      1  N   LIG    1        1.423   0.380   0.412  0.00  0.00    +0.383 N 
ATOM      2  H   LIG    1        1.742   0.497   1.364  0.00  0.00    -0.085 HD
ATOM      3  H   LIG    1        1.860  -0.455   0.047  0.00  0.00    -0.085 HD
ENDROOT
BRANCH   1   5
ATOM      4  C   LIG    1       -0.394  -0.839   1.591  0.00  0.00    -0.013 C 
ATOM      5  C   LIG    1       -0.104   0.164   0.457  0.00  0.00    -0.071 C 
BRANCH   5   6
ATOM      6  C   LIG    1       -0.617  -0.298  -0.930  0.00  0.00    +0.019 C 
BRANCH   6   7
ATOM      7  C   LIG    1       -2.130  -0.462  -0.989  0.00  0.00    -0.048 A 
ATOM      8  C   LIG    1       -2.708  -1.733  -0.911  0.00  0.00    +0.016 A 
ATOM      9  C   LIG    1       -4.098  -1.893  -0.961  0.00  0.00    +0.055 A 
ATOM     10  C   LIG    1       -4.909  -0.758  -1.093  0.00  0.00    +0.012 A 
ATOM     11  C   LIG    1       -4.338   0.512  -1.173  0.00  0.00    +0.001 A 
ATOM     12  C   LIG    1       -2.953   0.660  -1.121  0.00  0.00    +0.003 A 
BRANCH   9  13
ATOM     13  C   LIG    1       -4.699  -3.294  -0.869  0.00  0.00    +0.417 C 
ATOM     14  F   LIG    1       -4.333  -4.004  -1.936  0.00  0.00    -0.166 F 
ATOM     15  F   LIG    1       -6.032  -3.274  -0.819  0.00  0.00    -0.166 F 
ATOM     16  F   LIG    1       -4.253  -3.907   0.229  0.00  0.00    -0.166 F 
ENDBRANCH   9  13
ENDBRANCH   6   7
ENDBRANCH   5   6
ENDBRANCH   1   5
BRANCH   1  17
ATOM     17  C   LIG    1        1.911   1.601  -0.388  0.00  0.00    -0.041 C 
BRANCH  17  18
ATOM     18  C   LIG    1        3.438   1.714  -0.262  0.00  0.00    +0.213 C 
BRANCH  18  19
ATOM     19  O   LIG    1        4.060   0.915  -1.263  0.00  0.00    -0.463 OA
BRANCH  19  20
ATOM     20  C   LIG    1        5.411   0.829  -1.357  0.00  0.00    +0.339 C 
ATOM     21  O   LIG    1        6.184   1.427  -0.602  0.00  0.00    -0.245 OA
BRANCH  20  22
ATOM     22  C   LIG    1        5.871  -0.070  -2.468  0.00  0.00    +0.059 A 
ATOM     23  C   LIG    1        7.246  -0.256  -2.673  0.00  0.00    +0.015 A 
ATOM     24  C   LIG    1        7.704  -1.085  -3.694  0.00  0.00    +0.001 A 
ATOM     25  C   LIG    1        6.790  -1.735  -4.518  0.00  0.00    +0.000 A 
ATOM     26  C   LIG    1        5.422  -1.563  -4.330  0.00  0.00    +0.001 A 
ATOM     27  C   LIG    1        4.962  -0.734  -3.310  0.00  0.00    +0.015 A 
ENDBRANCH  20  22
ENDBRANCH  19  20
ENDBRANCH  18  19
ENDBRANCH  17  18
ENDBRANCH   1  17
TORSDOF 9
