REMARK  Name = DB09054
REMARK                            x       y       z     vdW  Elec       q    Type
REMARK                         _______ _______ _______ _____ _____    ______ ____
ROOT
ATOM      1  C   LIG    1        1.980   0.653  -1.207  0.00  0.00    +0.138 A 
ATOM      2  N   LIG    1        3.176   1.358  -1.024  0.00  0.00    -0.263 N 
ATOM      3  C   LIG    1        3.861   2.017  -2.036  0.00  0.00    +0.269 A 
ATOM      4  O   LIG    1        4.908   2.651  -1.859  0.00  0.00    -0.266 OA
ATOM      5  C   LIG    1        3.207   1.868  -3.402  0.00  0.00    +0.100 A 
ATOM      6  C   LIG    1        2.032   1.113  -3.496  0.00  0.00    +0.081 A 
ATOM      7  C   LIG    1        1.401   0.940  -4.728  0.00  0.00    +0.029 A 
ATOM      8  C   LIG    1        1.944   1.525  -5.872  0.00  0.00    +0.005 A 
ATOM      9  C   LIG    1        3.113   2.281  -5.784  0.00  0.00    +0.039 A 
ATOM     10  C   LIG    1        3.752   2.458  -4.555  0.00  0.00    +0.138 A 
ATOM     11  F   LIG    1        4.885   3.198  -4.513  0.00  0.00    -0.205 F 
ATOM     12  N   LIG    1        1.447   0.522  -2.373  0.00  0.00    -0.231 NA
ENDROOT
BRANCH   2  13
ATOM     13  C   LIG    1        3.795   1.384   0.251  0.00  0.00    +0.051 A 
ATOM     14  C   LIG    1        3.687   2.522   1.062  0.00  0.00    +0.026 A 
ATOM     15  C   LIG    1        4.269   2.527   2.326  0.00  0.00    +0.002 A 
ATOM     16  C   LIG    1        4.953   1.400   2.778  0.00  0.00    +0.000 A 
ATOM     17  C   LIG    1        5.064   0.265   1.977  0.00  0.00    +0.002 A 
ATOM     18  C   LIG    1        4.486   0.255   0.711  0.00  0.00    +0.026 A 
ENDBRANCH   2  13
BRANCH   1  19
ATOM     19  C   LIG    1        1.244   0.026   0.007  0.00  0.00    +0.138 C 
BRANCH  19  21
ATOM     20  C   LIG    1       -0.579   1.856   0.259  0.00  0.00    +0.006 C 
ATOM     21  C   LIG    1       -0.270   0.362   0.060  0.00  0.00    +0.027 C 
ENDBRANCH  19  21
BRANCH  19  22
ATOM     22  N   LIG    1        1.480  -1.416  -0.094  0.00  0.00    -0.317 N 
ATOM     23  H   LIG    1        1.461  -1.839  -1.011  0.00  0.00    +0.148 HD
BRANCH  22  24
ATOM     24  C   LIG    1        1.668  -2.238   1.030  0.00  0.00    +0.150 A 
ATOM     25  N   LIG    1        1.667  -1.704   2.287  0.00  0.00    -0.219 NA
ATOM     26  C   LIG    1        1.875  -2.549   3.332  0.00  0.00    +0.225 A 
ATOM     27  N   LIG    1        2.088  -3.893   3.290  0.00  0.00    -0.216 NA
ATOM     28  C   LIG    1        2.078  -4.375   2.043  0.00  0.00    +0.163 A 
ATOM     29  N   LIG    1        2.256  -5.664   1.604  0.00  0.00    -0.329 N 
ATOM     30  H   LIG    1        2.429  -6.506   2.135  0.00  0.00    +0.168 HD
ATOM     31  C   LIG    1        2.155  -5.622   0.232  0.00  0.00    +0.198 A 
ATOM     32  N   LIG    1        1.929  -4.423  -0.252  0.00  0.00    -0.231 NA
ATOM     33  C   LIG    1        1.876  -3.620   0.861  0.00  0.00    +0.147 A 
ENDBRANCH  22  24
ENDBRANCH  19  22
ENDBRANCH   1  19
TORSDOF 5
