REMARK  Name = DB09139
REMARK                            x       y       z     vdW  Elec       q    Type
REMARK                         _______ _______ _______ _____ _____    ______ ____
ROOT
ATOM      1  C   LIG    1       -0.050   0.032  -0.038  0.00  0.00    +0.342 C 
ENDROOT
BRANCH   1   2
ATOM      2  P   LIG    1       -0.849   1.727  -0.068  0.00  0.00    +0.368 P 
ATOM      3  O   LIG    1       -0.420   2.619  -1.211  0.00  0.00    -0.255 OA
BRANCH   2   4
ATOM      4  O   LIG    1       -0.442   2.346   1.480  0.00  0.00    -0.322 OA
ATOM      5  H   LIG    1        0.472   2.424   1.814  0.00  0.00    +0.220 HD
ENDBRANCH   2   4
BRANCH   2   6
ATOM      6  O   LIG    1       -2.525   1.358  -0.079  0.00  0.00    -0.322 OA
ATOM      7  H   LIG    1       -3.212   1.970  -0.405  0.00  0.00    +0.220 HD
ENDBRANCH   2   6
ENDBRANCH   1   2
BRANCH   1   8
ATOM      8  P   LIG    1        1.800  -0.238   0.058  0.00  0.00    +0.368 P 
ATOM      9  O   LIG    1        2.490   0.398   1.243  0.00  0.00    -0.255 OA
BRANCH   8  10
ATOM     10  O   LIG    1        2.323   0.371  -1.458  0.00  0.00    -0.322 OA
ATOM     11  H   LIG    1        2.147   1.279  -1.772  0.00  0.00    +0.220 HD
ENDBRANCH   8  10
BRANCH   8  12
ATOM     12  O   LIG    1        1.931  -1.948   0.020  0.00  0.00    -0.322 OA
ATOM     13  H   LIG    1        2.708  -2.439   0.350  0.00  0.00    +0.220 HD
ENDBRANCH   8  12
ENDBRANCH   1   8
BRANCH   1  14
ATOM     14  O   LIG    1       -0.592  -0.637   1.085  0.00  0.00    -0.370 OA
ATOM     15  H   LIG    1       -0.276  -1.543   1.081  0.00  0.00    +0.211 HD
ENDBRANCH   1  14
TORSDOF 7
