REMARK  Name = DB09340
REMARK                            x       y       z     vdW  Elec       q    Type
REMARK                         _______ _______ _______ _____ _____    ______ ____
ROOT
ATOM      1  C   LIG    1       -0.033   0.122   0.080  0.00  0.00    -0.019 A 
ATOM      2  C   LIG    1       -0.735  -1.091   0.210  0.00  0.00    +0.019 A 
ATOM      3  I   LIG    1        0.224  -2.952   0.373  0.00  0.00    -0.043 I 
ATOM      4  C   LIG    1       -2.126  -1.100   0.235  0.00  0.00    +0.031 A 
ATOM      5  C   LIG    1       -2.848   0.084   0.137  0.00  0.00    +0.037 A 
ATOM      6  I   LIG    1       -4.944  -0.034   0.180  0.00  0.00    -0.042 I 
ATOM      7  C   LIG    1       -2.166   1.302   0.013  0.00  0.00    +0.060 A 
ATOM      8  C   LIG    1       -0.759   1.328  -0.035  0.00  0.00    +0.040 A 
ATOM      9  I   LIG    1        0.226   3.180  -0.272  0.00  0.00    -0.042 I 
ENDROOT
BRANCH   7  10
ATOM     10  N   LIG    1       -2.899   2.491  -0.080  0.00  0.00    -0.284 N 
ATOM     11  H   LIG    1       -3.157   2.802  -1.005  0.00  0.00    +0.155 HD
ATOM     12  C   LIG    1       -3.274   3.222   0.988  0.00  0.00    +0.217 C 
ATOM     13  O   LIG    1       -2.994   2.928   2.153  0.00  0.00    -0.275 OA
BRANCH  12  14
ATOM     14  C   LIG    1       -4.084   4.493   0.688  0.00  0.00    +0.096 C 
BRANCH  14  15
ATOM     15  C   LIG    1       -5.257   4.754   1.661  0.00  0.00    +0.006 C 
ATOM     16  C   LIG    1       -6.366   3.689   1.625  0.00  0.00    +0.004 C 
ENDBRANCH  14  15
ENDBRANCH  12  14
ENDBRANCH   7  10
BRANCH   1  17
ATOM     17  C   LIG    1        1.504   0.113   0.076  0.00  0.00    +0.052 C 
BRANCH  17  18
ATOM     18  C   LIG    1        2.180   0.000   1.476  0.00  0.00    +0.102 C 
BRANCH  18  19
ATOM     19  C   LIG    1        3.726  -0.031   1.331  0.00  0.00    +0.011 C 
ATOM     20  C   LIG    1        4.498  -0.337   2.628  0.00  0.00    +0.004 C 
ENDBRANCH  18  19
BRANCH  18  21
ATOM     21  C   LIG    1        1.692   1.081   2.469  0.00  0.00    +0.308 C 
ATOM     22  O   LIG    1        2.241   2.171   2.613  0.00  0.00    -0.251 OA
BRANCH  21  23
ATOM     23  O   LIG    1        0.575   0.682   3.146  0.00  0.00    -0.480 OA
ATOM     24  H   LIG    1        0.256   1.354   3.752  0.00  0.00    +0.295 HD
ENDBRANCH  21  23
ENDBRANCH  18  21
ENDBRANCH  17  18
ENDBRANCH   1  17
TORSDOF 8
