REMARK  Name = DB09059
REMARK                            x       y       z     vdW  Elec       q    Type
REMARK                         _______ _______ _______ _____ _____    ______ ____
ROOT
ATOM      1  C   LIG    1       -2.150   0.131  -5.252  0.00  0.00    +0.214 C 
ATOM      2  N   LIG    1       -2.850   0.561  -6.317  0.00  0.00    -0.304 N 
ATOM      3  H   LIG    1       -3.857   0.592  -6.253  0.00  0.00    +0.149 HD
ATOM      4  C   LIG    1       -2.296   1.021  -7.598  0.00  0.00    +0.163 C 
ATOM      5  C   LIG    1       -1.540   2.357  -7.427  0.00  0.00    +0.234 C 
ATOM      6  N   LIG    1       -0.203   2.333  -7.597  0.00  0.00    -0.302 N 
ATOM      7  H   LIG    1        0.224   1.440  -7.796  0.00  0.00    +0.150 HD
ATOM      8  C   LIG    1        0.753   3.445  -7.503  0.00  0.00    +0.162 C 
ATOM      9  C   LIG    1        0.876   3.991  -6.062  0.00  0.00    +0.234 C 
ATOM     10  N   LIG    1       -0.117   4.781  -5.620  0.00  0.00    -0.300 N 
ATOM     11  H   LIG    1       -0.899   4.971  -6.229  0.00  0.00    +0.150 HD
ATOM     12  C   LIG    1       -0.203   5.357  -4.277  0.00  0.00    +0.187 C 
ATOM     13  C   LIG    1       -0.646   4.303  -3.243  0.00  0.00    +0.236 C 
ATOM     14  N   LIG    1       -0.205   4.495  -1.986  0.00  0.00    -0.302 N 
ATOM     15  H   LIG    1        0.390   5.291  -1.806  0.00  0.00    +0.150 HD
ATOM     16  C   LIG    1       -0.485   3.656  -0.807  0.00  0.00    +0.168 C 
ATOM     17  C   LIG    1        0.171   2.258  -0.901  0.00  0.00    +0.234 C 
ATOM     18  O   LIG    1        1.029   2.043  -1.758  0.00  0.00    -0.274 OA
ATOM     19  N   LIG    1       -0.213   1.352   0.020  0.00  0.00    -0.302 N 
ATOM     20  H   LIG    1       -0.928   1.619   0.680  0.00  0.00    +0.150 HD
ATOM     21  C   LIG    1        0.340   0.003   0.226  0.00  0.00    +0.170 C 
ATOM     22  C   LIG    1        0.004  -0.936  -0.966  0.00  0.00    +0.112 C 
ATOM     23  S   LIG    1       -1.670  -1.646  -1.036  0.00  0.00    -0.091 S 
ATOM     24  S   LIG    1       -2.976  -0.083  -1.164  0.00  0.00    -0.093 S 
ATOM     25  C   LIG    1       -2.688   0.618  -2.809  0.00  0.00    +0.090 C 
ATOM     26  O   LIG    1       -1.375   3.375  -3.595  0.00  0.00    -0.274 OA
ATOM     27  O   LIG    1        1.862   3.684  -5.392  0.00  0.00    -0.274 OA
ATOM     28  O   LIG    1       -2.194   3.369  -7.176  0.00  0.00    -0.274 OA
ATOM     29  C   LIG    1       -2.959  -0.295  -4.020  0.00  0.00    +0.107 C 
ATOM     30  O   LIG    1       -0.921   0.052  -5.232  0.00  0.00    -0.276 OA
ENDROOT
BRANCH  21  31
ATOM     31  C   LIG    1        1.858   0.048   0.558  0.00  0.00    +0.237 C 
ATOM     32  N   LIG    1        2.224   0.507   1.782  0.00  0.00    -0.288 N 
ATOM     33  C   LIG    1        3.633   0.609   2.205  0.00  0.00    +0.162 C 
ATOM     34  C   LIG    1        3.567   1.496   3.461  0.00  0.00    +0.033 C 
ATOM     35  C   LIG    1        2.192   1.229   4.052  0.00  0.00    +0.021 C 
ATOM     36  C   LIG    1        1.320   1.017   2.820  0.00  0.00    +0.109 C 
ATOM     37  O   LIG    1        2.673  -0.303  -0.298  0.00  0.00    -0.274 OA
BRANCH  33  38
ATOM     38  C   LIG    1        4.267  -0.771   2.469  0.00  0.00    +0.234 C 
ATOM     39  O   LIG    1        4.012  -1.377   3.511  0.00  0.00    -0.274 OA
ATOM     40  N   LIG    1        5.066  -1.242   1.496  0.00  0.00    -0.302 N 
ATOM     41  H   LIG    1        5.207  -0.687   0.664  0.00  0.00    +0.150 HD
BRANCH  40  42
ATOM     42  C   LIG    1        5.779  -2.519   1.539  0.00  0.00    +0.159 C 
BRANCH  42  43
ATOM     43  C   LIG    1        6.937  -2.472   2.553  0.00  0.00    +0.234 C 
ATOM     44  O   LIG    1        7.740  -1.540   2.514  0.00  0.00    -0.274 OA
ATOM     45  N   LIG    1        6.999  -3.493   3.424  0.00  0.00    -0.305 N 
ATOM     46  H   LIG    1        6.296  -4.217   3.382  0.00  0.00    +0.149 HD
BRANCH  45  47
ATOM     47  C   LIG    1        7.993  -3.606   4.491  0.00  0.00    +0.199 C 
BRANCH  47  48
ATOM     48  C   LIG    1        7.657  -2.649   5.648  0.00  0.00    +0.228 C 
ATOM     49  O   LIG    1        6.513  -2.561   6.091  0.00  0.00    -0.274 OA
ATOM     50  N   LIG    1        8.672  -1.969   6.186  0.00  0.00    -0.328 N 
ATOM     51  H   LIG    1        9.607  -2.067   5.817  0.00  0.00    +0.145 HD
ATOM     52  H   LIG    1        8.507  -1.343   6.961  0.00  0.00    +0.145 HD
ENDBRANCH  47  48
ENDBRANCH  45  47
ENDBRANCH  42  43
BRANCH  42  53
ATOM     53  C   LIG    1        6.255  -2.925   0.125  0.00  0.00    +0.033 C 
BRANCH  53  54
ATOM     54  C   LIG    1        7.021  -4.263   0.052  0.00  0.00    +0.017 C 
BRANCH  54  55
ATOM     55  C   LIG    1        7.310  -4.690  -1.397  0.00  0.00    +0.078 C 
BRANCH  55  56
ATOM     56  N   LIG    1        8.035  -5.946  -1.417  0.00  0.00    -0.330 NA
ATOM     57  H   LIG    1        7.500  -6.657  -0.938  0.00  0.00    +0.118 HD
ATOM     58  H   LIG    1        8.903  -5.847  -0.910  0.00  0.00    +0.118 HD
ENDBRANCH  55  56
ENDBRANCH  54  55
ENDBRANCH  53  54
ENDBRANCH  42  53
ENDBRANCH  40  42
ENDBRANCH  33  38
ENDBRANCH  21  31
BRANCH  12  59
ATOM     59  C   LIG    1       -1.214   6.540  -4.243  0.00  0.00    +0.141 C 
ATOM     60  C   LIG    1       -0.940   7.612  -5.310  0.00  0.00    +0.040 C 
BRANCH  59  61
ATOM     61  O   LIG    1       -2.568   6.129  -4.333  0.00  0.00    -0.390 OA
ATOM     62  H   LIG    1       -2.712   5.732  -5.195  0.00  0.00    +0.210 HD
ENDBRANCH  59  61
ENDBRANCH  12  59
BRANCH   8  63
ATOM     63  C   LIG    1        0.535   4.597  -8.551  0.00  0.00    +0.015 C 
ATOM     64  C   LIG    1        1.419   5.845  -8.303  0.00  0.00    +0.010 C 
BRANCH  63  65
ATOM     65  C   LIG    1        0.797   4.120 -10.003  0.00  0.00    +0.002 C 
ATOM     66  C   LIG    1       -0.253   3.170 -10.596  0.00  0.00    +0.004 C 
ENDBRANCH  63  65
ENDBRANCH   8  63
BRANCH   4  67
ATOM     67  C   LIG    1       -1.496  -0.069  -8.373  0.00  0.00    +0.067 C 
BRANCH  67  68
ATOM     68  C   LIG    1       -2.323  -1.325  -8.633  0.00  0.00    -0.045 A 
ATOM     69  C   LIG    1       -3.283  -1.328  -9.645  0.00  0.00    +0.007 A 
ATOM     70  C   LIG    1       -4.037  -2.473  -9.889  0.00  0.00    +0.046 A 
ATOM     71  C   LIG    1       -3.833  -3.630  -9.120  0.00  0.00    +0.121 A 
ATOM     72  C   LIG    1       -2.870  -3.616  -8.110  0.00  0.00    +0.046 A 
ATOM     73  C   LIG    1       -2.116  -2.472  -7.865  0.00  0.00    +0.007 A 
BRANCH  71  74
ATOM     74  O   LIG    1       -4.529  -4.812  -9.290  0.00  0.00    -0.492 OA
BRANCH  74  75
ATOM     75  C   LIG    1       -5.520  -4.899 -10.309  0.00  0.00    +0.225 C 
ATOM     76  C   LIG    1       -6.122  -6.308 -10.291  0.00  0.00    +0.048 C 
ENDBRANCH  74  75
ENDBRANCH  71  74
ENDBRANCH  67  68
ENDBRANCH   4  67
BRANCH  16  77
ATOM     77  C   LIG    1       -2.009   3.599  -0.491  0.00  0.00    +0.127 C 
BRANCH  77  78
ATOM     78  C   LIG    1       -2.651   4.980  -0.313  0.00  0.00    +0.213 C 
ATOM     79  N   LIG    1       -3.735   5.247  -1.045  0.00  0.00    -0.329 N 
ATOM     80  H   LIG    1       -4.093   4.563  -1.696  0.00  0.00    +0.145 HD
ATOM     81  H   LIG    1       -4.194   6.142  -0.965  0.00  0.00    +0.145 HD
ATOM     82  O   LIG    1       -2.179   5.789   0.482  0.00  0.00    -0.276 OA
ENDBRANCH  77  78
ENDBRANCH  16  77
TORSDOF 20
