REMARK  Name = DB09526
REMARK                            x       y       z     vdW  Elec       q    Type
REMARK                         _______ _______ _______ _____ _____    ______ ____
ROOT
ATOM      1  C   LIG    1        1.382   0.003   0.000  0.00  0.00    +0.117 A 
ATOM      2  C   LIG    1        2.073   1.215   0.000  0.00  0.00    +0.049 A 
ATOM      3  C   LIG    1        3.466   1.215   0.000  0.00  0.00    +0.049 A 
ATOM      4  C   LIG    1        4.158   0.003   0.000  0.00  0.00    +0.117 A 
ATOM      5  C   LIG    1        3.466  -1.208   0.000  0.00  0.00    +0.049 A 
ATOM      6  C   LIG    1        2.073  -1.208   0.000  0.00  0.00    +0.049 A 
ENDROOT
BRANCH   1   7
ATOM      7  O   LIG    1        0.012   0.002   0.000  0.00  0.00    -0.507 OA
ATOM      8  H   LIG    1       -0.363   0.886   0.000  0.00  0.00    +0.292 HD
ENDBRANCH   1   7
BRANCH   4   9
ATOM      9  O   LIG    1        5.527   0.002   0.000  0.00  0.00    -0.507 OA
ATOM     10  H   LIG    1        5.903   0.886   0.000  0.00  0.00    +0.292 HD
ENDBRANCH   4   9
TORSDOF 2
