REMARK  Name = DB09425
REMARK                            x       y       z     vdW  Elec       q    Type
REMARK                         _______ _______ _______ _____ _____    ______ ____
ROOT
ATOM      1  N   LIG    1        1.332  -0.150   0.331  0.00  0.00    -0.290 NA
ENDROOT
BRANCH   1   2
ATOM      2  C   LIG    1       -0.066   0.211   0.625  0.00  0.00    +0.100 C 
BRANCH   2   3
ATOM      3  C   LIG    1       -0.573   1.544   0.001  0.00  0.00    +0.101 C 
BRANCH   3   4
ATOM      4  N   LIG    1       -0.866   1.541  -1.446  0.00  0.00    -0.281 NA
BRANCH   4   5
ATOM      5  C   LIG    1       -1.876   0.539  -1.866  0.00  0.00    +0.206 C 
BRANCH   5   6
ATOM      6  C   LIG    1       -3.298   0.724  -1.276  0.00  0.00    +0.319 C 
ATOM      7  O   LIG    1       -4.106   1.433  -1.919  0.00  0.00    -0.250 OA
BRANCH   6   8
ATOM      8  O   LIG    1       -3.571   0.124  -0.212  0.00  0.00    -0.480 OA
ATOM      9  H   LIG    1       -2.916  -0.391   0.217  0.00  0.00    +0.295 HD
ENDBRANCH   6   8
ENDBRANCH   5   6
ENDBRANCH   4   5
BRANCH   4  10
ATOM     10  C   LIG    1       -1.186   2.894  -1.952  0.00  0.00    +0.206 C 
BRANCH  10  11
ATOM     11  C   LIG    1        0.009   3.882  -2.047  0.00  0.00    +0.319 C 
ATOM     12  O   LIG    1       -0.288   5.098  -2.072  0.00  0.00    -0.250 OA
BRANCH  11  13
ATOM     13  O   LIG    1        1.182   3.451  -2.146  0.00  0.00    -0.480 OA
ATOM     14  H   LIG    1        1.346   2.529  -2.121  0.00  0.00    +0.295 HD
ENDBRANCH  11  13
ENDBRANCH  10  11
ENDBRANCH   4  10
ENDBRANCH   3   4
ENDBRANCH   2   3
ENDBRANCH   1   2
BRANCH   1  15
ATOM     15  C   LIG    1        1.767  -1.191   1.288  0.00  0.00    +0.205 C 
BRANCH  15  16
ATOM     16  C   LIG    1        3.299  -1.393   1.343  0.00  0.00    +0.319 C 
ATOM     17  O   LIG    1        3.739  -2.521   1.027  0.00  0.00    -0.250 OA
BRANCH  16  18
ATOM     18  O   LIG    1        4.008  -0.436   1.732  0.00  0.00    -0.480 OA
ATOM     19  H   LIG    1        3.610   0.383   1.952  0.00  0.00    +0.295 HD
ENDBRANCH  16  18
ENDBRANCH  15  16
ENDBRANCH   1  15
BRANCH   1  20
ATOM     20  C   LIG    1        1.553  -0.566  -1.067  0.00  0.00    +0.100 C 
BRANCH  20  21
ATOM     21  C   LIG    1        2.774   0.173  -1.657  0.00  0.00    +0.101 C 
BRANCH  21  22
ATOM     22  N   LIG    1        3.212  -0.342  -2.980  0.00  0.00    -0.281 NA
BRANCH  22  23
ATOM     23  C   LIG    1        4.593   0.155  -3.182  0.00  0.00    +0.206 C 
BRANCH  23  24
ATOM     24  C   LIG    1        5.650  -0.636  -2.380  0.00  0.00    +0.319 C 
ATOM     25  O   LIG    1        6.670  -0.107  -1.943  0.00  0.00    -0.250 OA
BRANCH  24  26
ATOM     26  O   LIG    1        5.361  -1.966  -2.258  0.00  0.00    -0.480 OA
ATOM     27  H   LIG    1        6.016  -2.438  -1.740  0.00  0.00    +0.295 HD
ENDBRANCH  24  26
ENDBRANCH  23  24
ENDBRANCH  22  23
BRANCH  22  28
ATOM     28  C   LIG    1        2.383   0.284  -4.038  0.00  0.00    +0.206 C 
BRANCH  28  29
ATOM     29  C   LIG    1        1.030  -0.417  -4.255  0.00  0.00    +0.319 C 
ATOM     30  O   LIG    1        0.805  -1.597  -3.987  0.00  0.00    -0.250 OA
BRANCH  29  31
ATOM     31  O   LIG    1        0.134   0.428  -4.840  0.00  0.00    -0.480 OA
ATOM     32  H   LIG    1       -0.720   0.014  -4.976  0.00  0.00    +0.295 HD
ENDBRANCH  29  31
ENDBRANCH  28  29
ENDBRANCH  22  28
ENDBRANCH  21  22
ENDBRANCH  20  21
ENDBRANCH   1  20
TORSDOF 21
