REMARK  Name = DB09366
REMARK                            x       y       z     vdW  Elec       q    Type
REMARK                         _______ _______ _______ _____ _____    ______ ____
ROOT
ATOM      1  N   LIG    1        3.877  -1.367   1.324  0.00  0.00    -0.340 N 
ATOM      2  C   LIG    1        3.914  -0.091   1.870  0.00  0.00    +0.104 A 
ATOM      3  C   LIG    1        3.796   0.153   3.197  0.00  0.00    +0.077 A 
ATOM      4  I   LIG    1        3.836   2.173   3.930  0.00  0.00    -0.038 I 
ATOM      5  C   LIG    1        3.650  -0.952   4.179  0.00  0.00    +0.208 A 
ATOM      6  O   LIG    1        3.502  -0.774   5.387  0.00  0.00    -0.286 OA
ATOM      7  C   LIG    1        3.720  -2.293   3.547  0.00  0.00    +0.077 A 
ATOM      8  I   LIG    1        3.650  -4.026   4.818  0.00  0.00    -0.038 I 
ATOM      9  C   LIG    1        3.840  -2.438   2.206  0.00  0.00    +0.104 A 
ENDROOT
BRANCH   1  10
ATOM     10  C   LIG    1        3.335  -1.542  -0.026  0.00  0.00    +0.241 C 
BRANCH  10  11
ATOM     11  C   LIG    1        1.800  -1.525  -0.051  0.00  0.00    +0.327 C 
ATOM     12  O   LIG    1        1.151  -2.572  -0.037  0.00  0.00    -0.249 OA
BRANCH  11  13
ATOM     13  O   LIG    1        1.298  -0.273  -0.020  0.00  0.00    -0.463 OA
BRANCH  13  14
ATOM     14  C   LIG    1       -0.107  -0.056  -0.008  0.00  0.00    +0.232 C 
BRANCH  14  16
ATOM     15  C   LIG    1       -1.886   1.773   0.078  0.00  0.00    +0.007 C 
ATOM     16  C   LIG    1       -0.386   1.450   0.092  0.00  0.00    +0.038 C 
ENDBRANCH  14  16
ENDBRANCH  13  14
ENDBRANCH  11  13
ENDBRANCH  10  11
ENDBRANCH   1  10
TORSDOF 5
