REMARK  Name = DB09019
REMARK                            x       y       z     vdW  Elec       q    Type
REMARK                         _______ _______ _______ _____ _____    ______ ____
ROOT
ATOM      1  C   LIG    1       -0.511   1.527   0.032  0.00  0.00    -0.011 A 
ATOM      2  C   LIG    1       -0.262   2.365   1.137  0.00  0.00    +0.043 A 
ATOM      3  C   LIG    1       -0.786   3.667   1.153  0.00  0.00    +0.040 A 
ATOM      4 BR   LIG    1       -0.476   4.854   2.617  0.00  0.00    -0.048 Br
ATOM      5  C   LIG    1       -1.555   4.124   0.083  0.00  0.00    +0.032 A 
ATOM      6  C   LIG    1       -1.808   3.293  -1.006  0.00  0.00    +0.019 A 
ATOM      7 BR   LIG    1       -2.862   3.923  -2.460  0.00  0.00    -0.050 Br
ATOM      8  C   LIG    1       -1.289   2.001  -1.029  0.00  0.00    +0.022 A 
ENDROOT
BRANCH   2   9
ATOM      9  N   LIG    1        0.504   1.914   2.216  0.00  0.00    -0.357 N 
ATOM     10  H   LIG    1        1.069   1.090   2.064  0.00  0.00    +0.142 HD
ATOM     11  H   LIG    1        0.802   2.604   2.891  0.00  0.00    +0.142 HD
ENDBRANCH   2   9
BRANCH   1  12
ATOM     12  C   LIG    1        0.024   0.092  -0.042  0.00  0.00    +0.121 C 
BRANCH  12  14
ATOM     13  C   LIG    1        1.954   0.623  -1.365  0.00  0.00    +0.105 C 
ATOM     14  N   LIG    1        1.494  -0.000  -0.117  0.00  0.00    -0.298 NA
BRANCH  14  15
ATOM     15  C   LIG    1        2.001  -1.389   0.010  0.00  0.00    +0.057 C 
ATOM     16  C   LIG    1        3.560  -1.498  -0.015  0.00  0.00    +0.019 C 
ATOM     17  C   LIG    1        4.088  -2.944   0.072  0.00  0.00    +0.002 C 
ATOM     18  C   LIG    1        3.543  -3.683   1.302  0.00  0.00    +0.000 C 
ATOM     19  C   LIG    1        2.010  -3.624   1.342  0.00  0.00    +0.002 C 
ATOM     20  C   LIG    1        1.482  -2.178   1.254  0.00  0.00    +0.019 C 
ENDBRANCH  14  15
ENDBRANCH  12  14
ENDBRANCH   1  12
TORSDOF 4
