REMARK  Name = DB09473
REMARK                            x       y       z     vdW  Elec       q    Type
REMARK                         _______ _______ _______ _____ _____    ______ ____
ROOT
ATOM      1  C   LIG    1       -2.002   2.527   3.584  0.00  0.00    +0.143 A 
ATOM      2  C   LIG    1       -0.853   3.159   3.096  0.00  0.00    +0.047 A 
ATOM      3  C   LIG    1       -0.209   2.704   1.952  0.00  0.00    +0.004 A 
ATOM      4  C   LIG    1       -0.692   1.602   1.258  0.00  0.00    +0.010 A 
ATOM      5  C   LIG    1       -1.849   0.926   1.707  0.00  0.00    +0.004 A 
ATOM      6  C   LIG    1       -2.362  -0.200   1.016  0.00  0.00    +0.011 A 
ATOM      7  C   LIG    1       -3.503  -0.838   1.490  0.00  0.00    +0.020 A 
ATOM      8  C   LIG    1       -4.113  -0.348   2.637  0.00  0.00    +0.111 A 
ATOM      9  N   LIG    1       -3.656   0.725   3.326  0.00  0.00    -0.251 NA
ATOM     10  C   LIG    1       -2.529   1.379   2.886  0.00  0.00    +0.112 A 
ENDROOT
BRANCH   1  11
ATOM     11  O   LIG    1       -2.536   3.007   4.643  0.00  0.00    -0.505 OA
ATOM     12  H   LIG    1       -3.306   2.611   5.000  0.00  0.00    +0.292 HD
ENDBRANCH   1  11
TORSDOF 1
