REMARK  Name = DB09409
REMARK                            x       y       z     vdW  Elec       q    Type
REMARK                         _______ _______ _______ _____ _____    ______ ____
ROOT
ATOM      1  C   LIG    1        0.009   0.004   0.000  0.00  0.00    +0.136 C 
ATOM      2  C   LIG    1        1.541   0.015   0.000  0.00  0.00    +0.302 C 
ATOM      3  O   LIG    1        2.118  -1.095   0.000  0.00  0.00    -0.251 OA
ENDROOT
BRANCH   2   4
ATOM      4  O   LIG    1        2.117   1.126   0.000  0.00  0.00    -0.481 OA
ATOM      5  H   LIG    1        3.053   1.169   0.000  0.00  0.00    +0.295 HD
ENDBRANCH   2   4
TORSDOF 1
