REMARK  Name = DB09068
REMARK                            x       y       z     vdW  Elec       q    Type
REMARK                         _______ _______ _______ _____ _____    ______ ____
ROOT
ATOM      1  C   LIG    1       -0.081   2.922   0.969  0.00  0.00    +0.044 A 
ATOM      2  C   LIG    1       -0.293   4.309   0.879  0.00  0.00    +0.024 A 
ATOM      3  C   LIG    1       -0.828   4.888  -0.270  0.00  0.00    +0.002 A 
ATOM      4  C   LIG    1       -1.170   4.088  -1.355  0.00  0.00    +0.001 A 
ATOM      5  C   LIG    1       -0.971   2.712  -1.292  0.00  0.00    +0.017 A 
ATOM      6  C   LIG    1       -0.426   2.123  -0.148  0.00  0.00    +0.034 A 
ENDROOT
BRANCH   1   7
ATOM      7  N   LIG    1        0.399   2.374   2.157  0.00  0.00    -0.327 N 
ATOM      8  C   LIG    1        1.341   3.111   3.018  0.00  0.00    +0.120 C 
ATOM      9  C   LIG    1        2.053   2.208   4.050  0.00  0.00    +0.100 C 
ATOM     10  N   LIG    1        1.088   1.511   4.889  0.00  0.00    -0.313 NA
ATOM     11  H   LIG    1        1.573   0.922   5.552  0.00  0.00    +0.122 HD
ATOM     12  C   LIG    1        0.236   0.693   4.036  0.00  0.00    +0.100 C 
ATOM     13  C   LIG    1       -0.504   1.552   2.984  0.00  0.00    +0.120 C 
ENDBRANCH   1   7
BRANCH   6  14
ATOM     14  S   LIG    1       -0.168   0.359  -0.204  0.00  0.00    -0.087 S 
BRANCH  14  15
ATOM     15  C   LIG    1        1.541   0.129   0.252  0.00  0.00    +0.016 A 
ATOM     16  C   LIG    1        2.495   1.086  -0.112  0.00  0.00    +0.015 A 
ATOM     17  C   LIG    1        3.830   0.929   0.254  0.00  0.00    +0.004 A 
ATOM     18  C   LIG    1        4.231  -0.192   0.982  0.00  0.00    -0.050 A 
ATOM     19  C   LIG    1        5.687  -0.364   1.374  0.00  0.00    +0.044 C 
ATOM     20  C   LIG    1        3.288  -1.163   1.325  0.00  0.00    +0.007 A 
ATOM     21  C   LIG    1        1.944  -1.017   0.962  0.00  0.00    -0.036 A 
ATOM     22  C   LIG    1        0.954  -2.104   1.361  0.00  0.00    +0.045 C 
ENDBRANCH  14  15
ENDBRANCH   6  14
TORSDOF 3
