REMARK  Name = DB09070
REMARK                            x       y       z     vdW  Elec       q    Type
REMARK                         _______ _______ _______ _____ _____    ______ ____
ROOT
ATOM      1  C   LIG    1        1.935  -0.227  -4.981  0.00  0.00    +0.132 C 
ATOM      2  C   LIG    1        2.386   0.740  -3.815  0.00  0.00    +0.011 C 
ATOM      3  C   LIG    1        1.698   0.050  -2.600  0.00  0.00    +0.003 C 
ATOM      4  C   LIG    1        2.035   0.735  -1.244  0.00  0.00    +0.003 C 
ATOM      5  C   LIG    1        1.530   2.211  -1.301  0.00  0.00    +0.019 C 
ATOM      6  C   LIG    1        1.646   2.922   0.063  0.00  0.00    -0.066 C 
ATOM      7  C   LIG    1        1.902   2.243   1.220  0.00  0.00    -0.063 C 
ATOM      8  C   LIG    1        2.121   2.955   2.559  0.00  0.00    +0.105 C 
ATOM      9  C   LIG    1        2.051   4.484   2.543  0.00  0.00    +0.138 C 
ATOM     10  O   LIG    1        2.676   5.197   3.325  0.00  0.00    -0.297 OA
ATOM     11  C   LIG    1        1.145   5.038   1.447  0.00  0.00    +0.079 C 
ATOM     12  C   LIG    1        2.088   0.722   1.264  0.00  0.00    +0.034 C 
ATOM     13  C   LIG    1        1.520   4.453   0.069  0.00  0.00    +0.038 C 
ATOM     14  C   LIG    1        2.154   2.964  -2.514  0.00  0.00    +0.009 C 
ATOM     15  C   LIG    1        1.535  -0.005   0.018  0.00  0.00    -0.006 C 
ATOM     16  C   LIG    1        0.000  -0.170   0.098  0.00  0.00    +0.008 C 
ATOM     17  C   LIG    1        1.950  -1.450  -2.790  0.00  0.00    +0.008 C 
ATOM     18  C   LIG    1        1.863   2.216  -3.844  0.00  0.00    +0.011 C 
ATOM     19  C   LIG    1        3.951   0.745  -3.717  0.00  0.00    +0.015 C 
ATOM     20  C   LIG    1        2.055  -1.636  -4.320  0.00  0.00    +0.049 C 
ENDROOT
BRANCH   1  22
ATOM     21  C   LIG    1       -0.592   0.162  -5.875  0.00  0.00    +0.007 C 
ATOM     22  C   LIG    1        0.551  -0.009  -5.480  0.00  0.00    -0.070 C 
ENDBRANCH   1  22
BRANCH   1  23
ATOM     23  O   LIG    1        2.754  -0.147  -6.135  0.00  0.00    -0.376 OA
ATOM     24  H   LIG    1        2.747   0.760  -6.449  0.00  0.00    +0.211 HD
ENDBRANCH   1  23
TORSDOF 2
