REMARK  Name = DB09183
REMARK                            x       y       z     vdW  Elec       q    Type
REMARK                         _______ _______ _______ _____ _____    ______ ____
ROOT
ATOM      1  C   LIG    1        1.512   0.153  -0.234  0.00  0.00    +0.026 A 
ATOM      2  C   LIG    1        2.312   0.060  -1.396  0.00  0.00    +0.132 A 
ATOM      3  C   LIG    1        3.721  -0.058  -1.300  0.00  0.00    +0.002 A 
ATOM      4  C   LIG    1        4.297   0.004  -0.019  0.00  0.00    +0.034 A 
ATOM      5  C   LIG    1        3.521   0.152   1.132  0.00  0.00    +0.052 A 
ATOM      6  C   LIG    1        2.135   0.214   1.015  0.00  0.00    +0.038 A 
ENDROOT
BRANCH   1  11
ATOM      7  C   LIG    1       -4.260   2.168   0.949  0.00  0.00    +0.025 A 
ATOM      8  C   LIG    1       -2.869   2.181   1.001  0.00  0.00    +0.010 A 
ATOM      9  C   LIG    1       -2.120   1.175   0.345  0.00  0.00    -0.017 A 
ATOM     10  C   LIG    1       -0.704   1.156   0.377  0.00  0.00    +0.017 A 
ATOM     11  C   LIG    1        0.022   0.159  -0.282  0.00  0.00    -0.014 A 
ATOM     12  C   LIG    1       -0.670  -0.837  -0.976  0.00  0.00    +0.009 A 
ATOM     13  C   LIG    1       -2.061  -0.851  -1.028  0.00  0.00    +0.009 A 
ATOM     14  C   LIG    1       -2.811   0.153  -0.370  0.00  0.00    -0.016 A 
ATOM     15  C   LIG    1       -4.228   0.169  -0.403  0.00  0.00    +0.033 A 
ATOM     16  C   LIG    1       -4.945   1.171   0.258  0.00  0.00    +0.048 A 
BRANCH  16  17
ATOM     17  N   LIG    1       -6.346   1.217   0.248  0.00  0.00    -0.221 N 
ATOM     18  H   LIG    1       -6.775   1.998   0.723  0.00  0.00    +0.173 HD
BRANCH  17  19
ATOM     19  S   LIG    1       -7.352  -0.232   0.056  0.00  0.00    +0.040 S 
ATOM     20  O   LIG    1       -6.950  -1.172   1.107  0.00  0.00    -0.155 OA
ATOM     21  O   LIG    1       -7.282  -0.620  -1.357  0.00  0.00    -0.155 OA
ATOM     22  C   LIG    1       -9.077   0.426   0.434  0.00  0.00    +0.218 C 
ENDBRANCH  17  19
ENDBRANCH  16  17
ENDBRANCH   1  11
BRANCH   5  23
ATOM     23  N   LIG    1        4.124   0.203   2.408  0.00  0.00    -0.269 N 
ATOM     24  C   LIG    1        5.005   1.218   2.736  0.00  0.00    +0.334 A 
ATOM     25  O   LIG    1        5.351   2.136   1.991  0.00  0.00    -0.246 OA
ATOM     26  N   LIG    1        5.490   1.144   4.018  0.00  0.00    -0.275 N 
ATOM     27  H   LIG    1        6.138   1.876   4.273  0.00  0.00    +0.173 HD
ATOM     28  C   LIG    1        5.228   0.235   5.004  0.00  0.00    +0.254 A 
ATOM     29  O   LIG    1        5.740   0.290   6.120  0.00  0.00    -0.268 OA
ATOM     30  C   LIG    1        4.288  -0.789   4.588  0.00  0.00    +0.088 A 
ATOM     31  C   LIG    1        3.791  -0.758   3.336  0.00  0.00    +0.101 A 
ENDBRANCH   5  23
BRANCH   3  32
ATOM     32  C   LIG    1        4.620  -0.264  -2.560  0.00  0.00    -0.009 C 
ATOM     33  C   LIG    1        4.524   0.953  -3.515  0.00  0.00    +0.015 C 
ATOM     34  C   LIG    1        6.130  -0.424  -2.217  0.00  0.00    +0.015 C 
ATOM     35  C   LIG    1        4.211  -1.559  -3.310  0.00  0.00    +0.015 C 
ENDBRANCH   3  32
BRANCH   2  36
ATOM     36  O   LIG    1        1.718   0.055  -2.640  0.00  0.00    -0.494 OA
ATOM     37  C   LIG    1        1.111   1.282  -3.046  0.00  0.00    +0.277 C 
ENDBRANCH   2  36
TORSDOF 6
