REMARK  Name = DB09167
REMARK                            x       y       z     vdW  Elec       q    Type
REMARK                         _______ _______ _______ _____ _____    ______ ____
ROOT
ATOM      1  C   LIG    1        2.030  -3.053  -2.071  0.00  0.00    -0.013 C 
ATOM      2  C   LIG    1        1.205  -2.055  -1.672  0.00  0.00    -0.017 C 
ATOM      3  C   LIG    1        3.400  -2.767  -2.552  0.00  0.00    -0.014 A 
ATOM      4  C   LIG    1        3.590  -2.109  -3.774  0.00  0.00    +0.009 A 
ATOM      5  C   LIG    1        4.874  -1.847  -4.247  0.00  0.00    +0.001 A 
ATOM      6  C   LIG    1        5.982  -2.246  -3.503  0.00  0.00    +0.000 A 
ATOM      7  C   LIG    1        5.801  -2.904  -2.288  0.00  0.00    +0.005 A 
ATOM      8  C   LIG    1        4.516  -3.169  -1.802  0.00  0.00    -0.030 A 
ATOM      9  C   LIG    1        4.282  -3.885  -0.486  0.00  0.00    +0.110 C 
ATOM     10  S   LIG    1        3.694  -5.582  -0.704  0.00  0.00    -0.120 S 
ATOM     11  C   LIG    1        2.177  -5.596  -1.651  0.00  0.00    +0.016 A 
ATOM     12  C   LIG    1        1.603  -6.858  -1.839  0.00  0.00    +0.015 A 
ATOM     13  C   LIG    1        0.398  -7.013  -2.515  0.00  0.00    +0.001 A 
ATOM     14  C   LIG    1       -0.259  -5.897  -3.015  0.00  0.00    +0.001 A 
ATOM     15  C   LIG    1        0.298  -4.634  -2.842  0.00  0.00    +0.009 A 
ATOM     16  C   LIG    1        1.521  -4.449  -2.172  0.00  0.00    -0.004 A 
ENDROOT
BRANCH   2  17
ATOM     17  C   LIG    1        1.528  -0.569  -1.552  0.00  0.00    +0.043 C 
BRANCH  17  18
ATOM     18  C   LIG    1        1.522  -0.024  -0.106  0.00  0.00    +0.088 C 
BRANCH  18  19
ATOM     19  N   LIG    1        0.300  -0.313   0.654  0.00  0.00    -0.308 NA
ATOM     20  C   LIG    1        0.473   0.099   2.044  0.00  0.00    +0.104 C 
ATOM     21  C   LIG    1       -0.872   0.359   0.095  0.00  0.00    +0.104 C 
ENDBRANCH  18  19
ENDBRANCH  17  18
ENDBRANCH   2  17
TORSDOF 3
