REMARK  Name = DB09185
REMARK                            x       y       z     vdW  Elec       q    Type
REMARK                         _______ _______ _______ _____ _____    ______ ____
ROOT
ATOM      1  C   LIG    1       -2.966  -0.244  -0.069  0.00  0.00    +0.004 A 
ATOM      2  C   LIG    1       -2.352   1.006  -0.083  0.00  0.00    +0.049 A 
ATOM      3  C   LIG    1       -0.950   1.116  -0.046  0.00  0.00    +0.162 A 
ATOM      4  C   LIG    1       -0.168  -0.049   0.001  0.00  0.00    +0.162 A 
ATOM      5  C   LIG    1       -0.803  -1.305   0.015  0.00  0.00    +0.049 A 
ATOM      6  C   LIG    1       -2.192  -1.399  -0.020  0.00  0.00    +0.004 A 
ENDROOT
BRANCH   3   7
ATOM      7  O   LIG    1       -0.276   2.325  -0.053  0.00  0.00    -0.486 OA
BRANCH   7   8
ATOM      8  C   LIG    1       -1.011   3.546  -0.085  0.00  0.00    +0.262 C 
BRANCH   8   9
ATOM      9  C   LIG    1       -0.027   4.725  -0.042  0.00  0.00    +0.169 C 
ATOM     10  C   LIG    1       -0.765   6.078  -0.194  0.00  0.00    +0.116 C 
ATOM     11  N   LIG    1        0.197   7.179  -0.138  0.00  0.00    -0.311 NA
ATOM     12  H   LIG    1       -0.276   8.068  -0.209  0.00  0.00    +0.122 HD
ATOM     13  C   LIG    1        1.019   7.135   1.072  0.00  0.00    +0.109 C 
ATOM     14  C   LIG    1        1.648   5.739   1.287  0.00  0.00    +0.175 C 
ATOM     15  O   LIG    1        0.640   4.735   1.218  0.00  0.00    -0.371 OA
ENDBRANCH   8   9
ENDBRANCH   7   8
ENDBRANCH   3   7
BRANCH   4  16
ATOM     16  O   LIG    1        1.206   0.116   0.033  0.00  0.00    -0.489 OA
BRANCH  16  17
ATOM     17  C   LIG    1        2.053  -1.027   0.094  0.00  0.00    +0.226 C 
ATOM     18  C   LIG    1        3.510  -0.557   0.122  0.00  0.00    +0.048 C 
ENDBRANCH  16  17
ENDBRANCH   4  16
TORSDOF 5
