REMARK  Name = DB09385
REMARK                            x       y       z     vdW  Elec       q    Type
REMARK                         _______ _______ _______ _____ _____    ______ ____
ROOT
ATOM      1  C   LIG    1       -3.304  -0.344  -1.491  0.00  0.00    +0.084 C 
ATOM      2  C   LIG    1       -3.547  -1.600  -2.399  0.00  0.00    +0.039 C 
ATOM      3  C   LIG    1       -1.699   0.035  -1.448  0.00  0.00    +0.102 C 
ATOM      4  N   LIG    1       -1.388   1.186  -0.669  0.00  0.00    -0.341 N 
ATOM      5  H   LIG    1       -1.846   2.046  -0.808  0.00  0.00    +0.146 HD
ATOM      6  C   LIG    1       -0.390   1.029   0.311  0.00  0.00    +0.015 C 
ATOM      7  C   LIG    1        0.002   1.966   1.239  0.00  0.00    -0.012 C 
ATOM      8  C   LIG    1        0.980   1.677   2.385  0.00  0.00    +0.047 C 
ATOM      9  C   LIG    1       -0.540   3.324   1.310  0.00  0.00    +0.050 C 
ATOM     10  N   LIG    1       -1.700   3.716   0.962  0.00  0.00    -0.255 NA
ATOM     11  C   LIG    1       -1.968   5.029   1.217  0.00  0.00    +0.050 C 
ATOM     12  C   LIG    1       -0.911   5.472   2.225  0.00  0.00    +0.016 C 
ATOM     13  C   LIG    1       -0.595   6.989   2.117  0.00  0.00    +0.018 C 
ATOM     14  C   LIG    1       -1.396   5.188   3.676  0.00  0.00    +0.018 C 
ATOM     15  C   LIG    1       -2.967   5.789   0.699  0.00  0.00    +0.047 C 
ATOM     16  C   LIG    1       -3.920   5.370  -0.295  0.00  0.00    +0.047 C 
ATOM     17  N   LIG    1       -4.092   4.182  -0.682  0.00  0.00    -0.255 NA
ATOM     18  C   LIG    1       -5.068   3.949  -1.595  0.00  0.00    +0.053 C 
ATOM     19  C   LIG    1       -5.370   2.703  -2.069  0.00  0.00    -0.008 C 
ATOM     20  C   LIG    1       -6.451   2.365  -3.092  0.00  0.00    +0.047 C 
ATOM     21  C   LIG    1       -4.680   1.522  -1.585  0.00  0.00    +0.045 C 
ATOM     22  C   LIG    1       -4.706   1.103  -0.109  0.00  0.00    +0.047 C 
ATOM     23  C   LIG    1       -5.660   5.332  -1.949  0.00  0.00    +0.027 C 
ATOM     24  C   LIG    1       -5.370   5.596  -3.458  0.00  0.00    +0.019 C 
ATOM     25  C   LIG    1       -4.882   6.300  -0.998  0.00  0.00    +0.050 C 
ATOM     26  C   LIG    1        0.247   4.537   1.813  0.00  0.00    +0.050 C 
ATOM     27  C   LIG    1        0.212  -0.398   0.095  0.00  0.00    +0.011 C 
ATOM     28  C   LIG    1        0.008  -1.282   1.374  0.00  0.00    +0.018 C 
ATOM     29  C   LIG    1       -0.546  -0.958  -1.163  0.00  0.00    +0.032 C 
ATOM     30  N   LIG    1       -3.935   0.734  -2.268  0.00  0.00    -0.279 NA
ATOM     31  C   LIG    1       -4.225  -0.383  -0.167  0.00  0.00    +0.011 C 
ATOM     32  C   LIG    1       -5.520  -1.265  -0.345  0.00  0.00    +0.015 C 
ENDROOT
BRANCH  22  33
ATOM     33  C   LIG    1       -6.038   1.465   0.636  0.00  0.00    +0.019 C 
BRANCH  33  34
ATOM     34  C   LIG    1       -6.038   1.337   2.176  0.00  0.00    +0.096 C 
BRANCH  34  35
ATOM     35  C   LIG    1       -7.167   2.130   2.852  0.00  0.00    +0.210 C 
ATOM     36  N   LIG    1       -6.874   2.760   3.992  0.00  0.00    -0.329 N 
ATOM     37  H   LIG    1       -5.938   2.728   4.368  0.00  0.00    +0.145 HD
ATOM     38  H   LIG    1       -7.585   3.293   4.471  0.00  0.00    +0.145 HD
ATOM     39  O   LIG    1       -8.296   2.164   2.365  0.00  0.00    -0.276 OA
ENDBRANCH  34  35
ENDBRANCH  33  34
ENDBRANCH  22  33
BRANCH  23  40
ATOM     40  C   LIG    1       -7.210   5.451  -1.699  0.00  0.00    +0.109 C 
BRANCH  40  41
ATOM     41  C   LIG    1       -7.775   4.790  -0.425  0.00  0.00    +0.211 C 
ATOM     42  N   LIG    1       -8.747   3.888  -0.580  0.00  0.00    -0.329 N 
ATOM     43  H   LIG    1       -9.084   3.650  -1.501  0.00  0.00    +0.145 HD
ATOM     44  H   LIG    1       -9.141   3.429   0.229  0.00  0.00    +0.145 HD
ATOM     45  O   LIG    1       -7.351   5.093   0.688  0.00  0.00    -0.276 OA
ENDBRANCH  40  41
ENDBRANCH  23  40
BRANCH  25  46
ATOM     46  C   LIG    1       -4.281   7.585  -1.664  0.00  0.00    +0.020 C 
BRANCH  46  47
ATOM     47  C   LIG    1       -3.700   8.709  -0.764  0.00  0.00    +0.096 C 
BRANCH  47  48
ATOM     48  C   LIG    1       -4.612   9.201   0.370  0.00  0.00    +0.211 C 
ATOM     49  N   LIG    1       -5.876   9.507   0.065  0.00  0.00    -0.329 N 
ATOM     50  H   LIG    1       -6.213   9.404  -0.881  0.00  0.00    +0.145 HD
ATOM     51  H   LIG    1       -6.504   9.835   0.784  0.00  0.00    +0.145 HD
ATOM     52  O   LIG    1       -4.174   9.323   1.512  0.00  0.00    -0.276 OA
ENDBRANCH  47  48
ENDBRANCH  46  47
ENDBRANCH  25  46
BRANCH  26  53
ATOM     53  C   LIG    1        1.250   5.117   0.757  0.00  0.00    +0.020 C 
BRANCH  53  54
ATOM     54  C   LIG    1        2.561   4.324   0.533  0.00  0.00    +0.096 C 
BRANCH  54  55
ATOM     55  C   LIG    1        3.555   4.367   1.708  0.00  0.00    +0.211 C 
ATOM     56  N   LIG    1        4.418   3.353   1.810  0.00  0.00    -0.329 N 
ATOM     57  H   LIG    1        4.402   2.599   1.137  0.00  0.00    +0.145 HD
ATOM     58  H   LIG    1        5.093   3.335   2.559  0.00  0.00    +0.145 HD
ATOM     59  O   LIG    1        3.560   5.299   2.510  0.00  0.00    -0.276 OA
ENDBRANCH  54  55
ENDBRANCH  53  54
ENDBRANCH  26  53
BRANCH  27  60
ATOM     60  C   LIG    1        1.763  -0.281  -0.184  0.00  0.00    +0.022 C 
BRANCH  60  61
ATOM     61  C   LIG    1        2.209   0.656  -1.347  0.00  0.00    +0.097 C 
BRANCH  61  62
ATOM     62  C   LIG    1        3.709   0.989  -1.383  0.00  0.00    +0.213 C 
ATOM     63  O   LIG    1        4.391   0.971  -0.357  0.00  0.00    -0.276 OA
ATOM     64  N   LIG    1        4.198   1.319  -2.592  0.00  0.00    -0.313 N 
ATOM     65  H   LIG    1        3.569   1.288  -3.381  0.00  0.00    +0.149 HD
BRANCH  64  66
ATOM     66  C   LIG    1        5.576   1.709  -2.892  0.00  0.00    +0.136 C 
BRANCH  66  67
ATOM     67  C   LIG    1        5.808   3.235  -2.853  0.00  0.00    +0.144 C 
ATOM     68  C   LIG    1        6.012   3.790  -1.435  0.00  0.00    +0.040 C 
BRANCH  67  69
ATOM     69  O   LIG    1        6.968   3.529  -3.616  0.00  0.00    -0.282 OA
BRANCH  69  70
ATOM     70  P   LIG    1        6.917   4.914  -4.651  0.00  0.00    +0.476 P 
ATOM     71  O   LIG    1        6.574   4.441  -6.045  0.00  0.00    -0.227 OA
BRANCH  70  72
ATOM     72  O   LIG    1        6.157   6.023  -3.952  0.00  0.00    -0.302 OA
ATOM     73  H   LIG    1        6.537   6.169  -3.071  0.00  0.00    +0.222 HD
ENDBRANCH  70  72
BRANCH  70  74
ATOM     74  O   LIG    1        8.601   5.296  -4.606  0.00  0.00    -0.278 OA
BRANCH  74  75
ATOM     75  C   LIG    1        9.154   5.712  -3.361  0.00  0.00    +0.194 C 
ATOM     76  C   LIG    1        9.141   7.246  -3.290  0.00  0.00    +0.178 C 
ATOM     77  O   LIG    1       10.465   7.623  -3.682  0.00  0.00    -0.346 OA
ATOM     78  C   LIG    1       11.236   6.521  -4.068  0.00  0.00    +0.252 C 
ATOM     79  C   LIG    1       10.631   5.338  -3.307  0.00  0.00    +0.196 C 
BRANCH  78  80
ATOM     80  N   LIG    1       11.280   6.415  -5.522  0.00  0.00    -0.301 N 
ATOM     81  C   LIG    1       12.255   5.768  -6.263  0.00  0.00    +0.071 A 
ATOM     82  C   LIG    1       13.415   5.066  -5.919  0.00  0.00    +0.031 A 
ATOM     83  C   LIG    1       14.180   4.533  -6.964  0.00  0.00    -0.045 A 
ATOM     84  C   LIG    1       15.444   3.763  -6.603  0.00  0.00    +0.044 C 
ATOM     85  C   LIG    1       13.801   4.699  -8.309  0.00  0.00    -0.045 A 
ATOM     86  C   LIG    1       14.642   4.120  -9.440  0.00  0.00    +0.044 C 
ATOM     87  C   LIG    1       12.638   5.403  -8.642  0.00  0.00    +0.033 A 
ATOM     88  C   LIG    1       11.858   5.941  -7.612  0.00  0.00    +0.089 A 
ATOM     89  N   LIG    1       10.699   6.659  -7.699  0.00  0.00    -0.236 NA
ATOM     90  C   LIG    1       10.392   6.915  -6.455  0.00  0.00    +0.202 A 
ENDBRANCH  78  80
BRANCH  79  91
ATOM     91  O   LIG    1       10.982   4.064  -3.817  0.00  0.00    -0.385 OA
ATOM     92  H   LIG    1       11.895   3.880  -3.583  0.00  0.00    +0.210 HD
ENDBRANCH  79  91
BRANCH  76  93
ATOM     93  C   LIG    1        8.871   7.790  -1.874  0.00  0.00    +0.190 C 
BRANCH  93  94
ATOM     94  O   LIG    1        8.830   9.202  -1.872  0.00  0.00    -0.392 OA
ATOM     95  H   LIG    1        8.632   9.501  -0.981  0.00  0.00    +0.210 HD
ENDBRANCH  93  94
ENDBRANCH  76  93
ENDBRANCH  74  75
ENDBRANCH  70  74
ENDBRANCH  69  70
ENDBRANCH  67  69
ENDBRANCH  66  67
ENDBRANCH  64  66
ENDBRANCH  61  62
ENDBRANCH  60  61
ENDBRANCH  27  60
BRANCH  29  96
ATOM     96  C   LIG    1       -0.755  -2.501  -1.346  0.00  0.00    +0.102 C 
BRANCH  96  97
ATOM     97  C   LIG    1        0.523  -3.356  -1.323  0.00  0.00    +0.211 C 
ATOM     98  N   LIG    1        0.554  -4.394  -0.483  0.00  0.00    -0.329 N 
ATOM     99  H   LIG    1       -0.233  -4.586   0.120  0.00  0.00    +0.145 HD
ATOM    100  H   LIG    1        1.367  -4.991  -0.446  0.00  0.00    +0.145 HD
ATOM    101  O   LIG    1        1.460  -3.105  -2.079  0.00  0.00    -0.276 OA
ENDBRANCH  96  97
ENDBRANCH  29  96
BRANCH  31 102
ATOM    102  C   LIG    1       -3.533  -0.771   1.200  0.00  0.00    +0.105 C 
BRANCH 102 103
ATOM    103  C   LIG    1       -3.287  -2.252   1.555  0.00  0.00    +0.211 C 
ATOM    104  N   LIG    1       -2.864  -2.499   2.797  0.00  0.00    -0.329 N 
ATOM    105  H   LIG    1       -2.709  -1.740   3.444  0.00  0.00    +0.145 HD
ATOM    106  H   LIG    1       -2.691  -3.449   3.092  0.00  0.00    +0.145 HD
ATOM    107  O   LIG    1       -3.469  -3.168   0.758  0.00  0.00    -0.276 OA
ENDBRANCH 102 103
ENDBRANCH  31 102
TORSDOF 29
