REMARK  Name = DB09284
REMARK                            x       y       z     vdW  Elec       q    Type
REMARK                         _______ _______ _______ _____ _____    ______ ____
ROOT
ATOM      1  C   LIG    1       -2.797   2.008   0.942  0.00  0.00    +0.184 A 
ATOM      2  N   LIG    1       -2.026   1.410  -0.054  0.00  0.00    -0.281 N 
ATOM      3  C   LIG    1       -2.947   0.939  -0.969  0.00  0.00    +0.292 A 
ATOM      4  O   LIG    1       -4.199   1.215  -0.517  0.00  0.00    -0.319 OA
ATOM      5  N   LIG    1       -4.090   1.922   0.693  0.00  0.00    -0.056 NA
ENDROOT
BRANCH   1   6
ATOM      6  C   LIG    1       -2.267   2.704   2.156  0.00  0.00    +0.021 A 
ATOM      7  C   LIG    1       -1.316   2.095   2.982  0.00  0.00    +0.011 A 
ATOM      8  C   LIG    1       -0.843   2.756   4.112  0.00  0.00    +0.001 A 
ATOM      9  C   LIG    1       -1.326   4.026   4.422  0.00  0.00    +0.000 A 
ATOM     10  C   LIG    1       -2.280   4.637   3.612  0.00  0.00    +0.001 A 
ATOM     11  C   LIG    1       -2.752   3.975   2.482  0.00  0.00    +0.011 A 
ENDBRANCH   1   6
BRANCH   3  12
ATOM     12  N   LIG    1       -2.776   0.240  -2.116  0.00  0.00    -0.313 N 
ATOM     13  H   LIG    1       -3.524  -0.335  -2.478  0.00  0.00    +0.147 HD
ATOM     14  H   LIG    1       -1.876   0.212  -2.573  0.00  0.00    +0.147 HD
ENDBRANCH   3  12
BRANCH   2  15
ATOM     15  C   LIG    1       -0.566   1.324  -0.142  0.00  0.00    +0.110 C 
BRANCH  15  16
ATOM     16  C   LIG    1       -0.081  -0.095   0.232  0.00  0.00    -0.057 C 
BRANCH  16  17
ATOM     17  N   LIG    1        1.466  -0.175   0.186  0.00  0.00    +0.380 N 
ATOM     18  H   LIG    1        1.767   0.375  -0.607  0.00  0.00    -0.082 HD
BRANCH  17  19
ATOM     19  C   LIG    1        2.116   0.462   1.442  0.00  0.00    -0.082 C 
ATOM     20  C   LIG    1        3.561   0.901   1.152  0.00  0.00    -0.017 C 
ENDBRANCH  17  19
BRANCH  17  21
ATOM     21  C   LIG    1        1.972  -1.620  -0.059  0.00  0.00    -0.082 C 
ATOM     22  C   LIG    1        1.791  -2.026  -1.532  0.00  0.00    -0.017 C 
ENDBRANCH  17  21
ENDBRANCH  16  17
ENDBRANCH  15  16
ENDBRANCH   2  15
TORSDOF 7
