REMARK  Name = DB09138
REMARK                            x       y       z     vdW  Elec       q    Type
REMARK                         _______ _______ _______ _____ _____    ______ ____
ROOT
ATOM      1  C   LIG    1        0.056   0.079   0.000  0.00  0.00    +0.253 C 
ENDROOT
BRANCH   1   2
ATOM      2  P   LIG    1       -0.672   1.862  -0.000  0.00  0.00    +0.339 P 
ATOM      3  O   LIG    1       -2.192   1.598  -0.018  0.00  0.00    -0.258 OA
BRANCH   2   4
ATOM      4  O   LIG    1       -0.127   2.501  -1.292  0.00  0.00    -0.324 OA
ATOM      5  H   LIG    1        0.830   2.636  -1.207  0.00  0.00    +0.220 HD
ENDBRANCH   2   4
BRANCH   2   6
ATOM      6  O   LIG    1       -0.155   2.489   1.309  0.00  0.00    -0.324 OA
ATOM      7  H   LIG    1        0.803   2.625   1.246  0.00  0.00    +0.220 HD
ENDBRANCH   2   6
ENDBRANCH   1   2
BRANCH   1   8
ATOM      8  P   LIG    1        1.979  -0.013   0.000  0.00  0.00    +0.339 P 
ATOM      9  O   LIG    1        2.238  -1.534   0.018  0.00  0.00    -0.258 OA
BRANCH   8  10
ATOM     10  O   LIG    1        2.401   0.714   1.292  0.00  0.00    -0.324 OA
ATOM     11  H   LIG    1        2.209   1.661   1.207  0.00  0.00    +0.220 HD
ENDBRANCH   8  10
BRANCH   8  12
ATOM     12  O   LIG    1        2.398   0.684  -1.309  0.00  0.00    -0.324 OA
ATOM     13  H   LIG    1        2.207   1.632  -1.246  0.00  0.00    +0.220 HD
ENDBRANCH   8  12
ENDBRANCH   1   8
TORSDOF 6
