REMARK  Name = DB09140
REMARK                            x       y       z     vdW  Elec       q    Type
REMARK                         _______ _______ _______ _____ _____    ______ ____
ROOT
ATOM      1  O   LIG    1       -0.076   0.527  -0.090  0.00  0.00    +0.000 OA
ATOM      2  O   LIG    1        0.600  -0.080   0.631  0.00  0.00    +0.000 OA
ENDROOT
TORSDOF 0
