REMARK  Name = DB09355
REMARK                            x       y       z     vdW  Elec       q    Type
REMARK                         _______ _______ _______ _____ _____    ______ ____
ROOT
ATOM      1  S   LIG    1       -0.312   0.292  -0.563  0.00  0.00    +0.075 S 
ATOM      2  O   LIG    1       -1.260  -0.384   0.329  0.00  0.00    -0.150 OA
ATOM      3  O   LIG    1       -0.328   0.033  -2.008  0.00  0.00    -0.150 OA
ENDROOT
BRANCH   1   4
ATOM      4  C   LIG    1       -0.554   2.047  -0.312  0.00  0.00    +0.109 A 
ATOM      5  C   LIG    1       -0.898   2.875  -1.382  0.00  0.00    +0.030 A 
ATOM      6  C   LIG    1       -1.087   4.238  -1.167  0.00  0.00    +0.024 A 
ATOM      7  C   LIG    1       -0.933   4.766   0.115  0.00  0.00    +0.025 A 
ATOM      8  C   LIG    1       -0.590   3.939   1.184  0.00  0.00    +0.024 A 
ATOM      9  C   LIG    1       -0.401   2.576   0.971  0.00  0.00    +0.030 A 
BRANCH   7  10
ATOM     10  N   LIG    1       -1.124   6.130   0.329  0.00  0.00    -0.358 N 
ATOM     11  H   LIG    1       -1.385   6.724  -0.445  0.00  0.00    +0.142 HD
ATOM     12  H   LIG    1       -1.009   6.509   1.258  0.00  0.00    +0.142 HD
ENDBRANCH   7  10
ENDBRANCH   1   4
BRANCH   1  13
ATOM     13  N   LIG    1        1.316  -0.027   0.044  0.00  0.00    -0.181 N 
ATOM     14  H   LIG    1        1.736   0.765   0.536  0.00  0.00    +0.177 HD
ATOM     15  C   LIG    1        2.179  -1.074  -0.365  0.00  0.00    +0.263 C 
ATOM     16  O   LIG    1        3.391  -0.994  -0.174  0.00  0.00    -0.269 OA
BRANCH  15  17
ATOM     17  C   LIG    1        1.600  -2.302  -1.017  0.00  0.00    +0.038 A 
ATOM     18  C   LIG    1        0.508  -2.968  -0.446  0.00  0.00    +0.013 A 
ATOM     19  C   LIG    1       -0.013  -4.106  -1.055  0.00  0.00    +0.001 A 
ATOM     20  C   LIG    1        0.562  -4.586  -2.229  0.00  0.00    +0.000 A 
ATOM     21  C   LIG    1        1.658  -3.941  -2.797  0.00  0.00    +0.001 A 
ATOM     22  C   LIG    1        2.179  -2.801  -2.189  0.00  0.00    +0.013 A 
ENDBRANCH  15  17
ENDBRANCH   1  13
TORSDOF 4
