REMARK  Name = DB09419
REMARK                            x       y       z     vdW  Elec       q    Type
REMARK                         _______ _______ _______ _____ _____    ______ ____
ROOT
ATOM      1  C   LIG    1       -0.036  -0.058   0.020  0.00  0.00    +0.181 C 
ENDROOT
BRANCH   1   2
ATOM      2  O   LIG    1       -0.559   1.263   0.010  0.00  0.00    -0.386 OA
ATOM      3  H   LIG    1       -0.262   1.702  -0.790  0.00  0.00    +0.210 HD
ENDBRANCH   1   2
BRANCH   1   4
ATOM      4  C   LIG    1       -0.572  -0.785   1.293  0.00  0.00    +0.208 C 
BRANCH   4   5
ATOM      5  C   LIG    1       -0.039  -2.213   1.452  0.00  0.00    +0.257 C 
ATOM      6  O   LIG    1        1.026  -2.428   2.028  0.00  0.00    -0.298 OA
ENDBRANCH   4   5
BRANCH   4   7
ATOM      7  O   LIG    1       -1.984  -0.894   1.227  0.00  0.00    -0.382 OA
ATOM      8  H   LIG    1       -2.307  -1.220   2.070  0.00  0.00    +0.210 HD
ENDBRANCH   4   7
ENDBRANCH   1   4
BRANCH   1   9
ATOM      9  C   LIG    1        1.519  -0.000  -0.130  0.00  0.00    +0.171 C 
BRANCH   9  10
ATOM     10  O   LIG    1        2.117   0.539   1.037  0.00  0.00    -0.387 OA
ATOM     11  H   LIG    1        1.850   0.008   1.791  0.00  0.00    +0.210 HD
ENDBRANCH   9  10
BRANCH   9  12
ATOM     12  C   LIG    1        2.027   0.804  -1.350  0.00  0.00    +0.189 C 
BRANCH  12  13
ATOM     13  O   LIG    1        1.620   0.206  -2.565  0.00  0.00    -0.392 OA
ATOM     14  H   LIG    1        1.981   0.716  -3.294  0.00  0.00    +0.210 HD
ENDBRANCH  12  13
ENDBRANCH   9  12
ENDBRANCH   1   9
TORSDOF 8
