REMARK  Name = DB09400
REMARK                            x       y       z     vdW  Elec       q    Type
REMARK                         _______ _______ _______ _____ _____    ______ ____
ROOT
ATOM      1  CA  LIG    1        1.964  -1.545   0.076  0.00  0.00    +0.000 C 
ENDROOT
BRANCH   1   2
ATOM      2  N   LIG    1        1.525  -2.343   1.236  0.00  0.00    +0.000 NA
ATOM      3  H1  LIG    1        1.542  -1.801   2.088  0.00  0.00    +0.000 HD
ATOM      4  H2  LIG    1        2.115  -3.152   1.375  0.00  0.00    +0.000 HD
ENDBRANCH   1   2
BRANCH   1   5
ATOM      5  C   LIG    1        3.503  -1.415   0.122  0.00  0.00    +0.000 C 
ATOM      6  O   LIG    1        4.170  -1.480   1.157  0.00  0.00    +0.000 OA
BRANCH   5   7
ATOM      7  OXT LIG    1        4.011  -1.197  -1.126  0.00  0.00    +0.000 OA
ATOM      8  HXT LIG    1        4.966  -1.106  -1.120  0.00  0.00    +0.000 HD
ENDBRANCH   5   7
ENDBRANCH   1   5
BRANCH   1   9
ATOM      9  C   LIG    1        1.284  -0.159   0.001  0.00  0.00    +0.000 C 
BRANCH   9  10
ATOM     10  C   LIG    1       -0.241  -0.232  -0.193  0.00  0.00    +0.000 C 
BRANCH  10  12
ATOM     11  C   LIG    1       -1.288   1.926   1.609  0.00  0.00    +0.000 C 
ATOM     12 SE   LIG    1       -1.002   1.582  -0.308  0.00  0.00    +0.000 Se
ENDBRANCH  10  12
ENDBRANCH   9  10
ENDBRANCH   1   9
TORSDOF 6
