REMARK  Name = DB09512
REMARK                            x       y       z     vdW  Elec       q    Type
REMARK                         _______ _______ _______ _____ _____    ______ ____
ROOT
ATOM      1 SI   LIG    1        2.051   0.278   0.000  0.00  0.00    +0.000 Si
ATOM      2  C   LIG    1        2.273  -0.765   1.554  0.00  0.00    +0.000 C 
ATOM      3  C   LIG    1        2.273  -0.765  -1.554  0.00  0.00    +0.000 C 
ENDROOT
BRANCH   1   5
ATOM      4  C   LIG    1        4.616   1.249   0.000  0.00  0.00    +0.000 C 
ATOM      5  O   LIG    1        3.222   1.481   0.000  0.00  0.00    +0.000 OA
ENDBRANCH   1   5
BRANCH   1   6
ATOM      6  O   LIG    1        0.485   0.865   0.000  0.00  0.00    +0.000 OA
BRANCH   6   7
ATOM      7 SI   LIG    1       -0.821   1.911   0.000  0.00  0.00    +0.000 Si
ATOM      8  C   LIG    1       -2.392   0.871   0.000  0.00  0.00    +0.000 C 
ATOM      9  C   LIG    1       -0.708   2.970   1.554  0.00  0.00    +0.000 C 
ATOM     10  C   LIG    1       -0.708   2.970  -1.554  0.00  0.00    +0.000 C 
ENDBRANCH   6   7
ENDBRANCH   1   6
TORSDOF 3
