REMARK  Name = DB09161
REMARK                            x       y       z     vdW  Elec       q    Type
REMARK                         _______ _______ _______ _____ _____    ______ ____
ROOT
ATOM      1  C   LIG    1        2.010  -1.517  -0.098  0.00  0.00    +0.000 C 
ATOM      2  C   LIG    1        1.501  -0.058  -0.044  0.00  0.00    +0.000 C 
ATOM      3  C   LIG    1        2.067   0.710  -1.259  0.00  0.00    +0.000 C 
ENDROOT
BRANCH   2   4
ATOM      4  O   LIG    1        2.050   0.618   1.099  0.00  0.00    +0.000 OA
ATOM      5  C   LIG    1        1.746   0.125   2.401  0.00  0.00    +0.000 C 
ENDBRANCH   2   4
BRANCH   2   6
ATOM      6  C   LIG    1       -0.056  -0.040  -0.044  0.00  0.00    +0.000 C 
BRANCH   6   7
ATOM      7  N   LIG    1       -0.564   1.289   0.153  0.00  0.00    +0.000 NA
ATOM      8 XX   LIG    1       -0.989   2.342   0.313  0.00  0.00    +0.000 Xx
ENDBRANCH   6   7
ENDBRANCH   2   6
TORSDOF 3
