REMARK  Name = DB09268
REMARK                            x       y       z     vdW  Elec       q    Type
REMARK                         _______ _______ _______ _____ _____    ______ ____
ROOT
ATOM      1  C   LIG    1        1.476   0.259   0.043  0.00  0.00    +0.097 C 
ENDROOT
BRANCH   1   5
ATOM      2  C   LIG    1       -2.787  -0.443   0.292  0.00  0.00    +0.159 A 
ATOM      3  C   LIG    1       -1.926  -1.484  -0.052  0.00  0.00    +0.049 A 
ATOM      4  C   LIG    1       -0.557  -1.251  -0.140  0.00  0.00    +0.008 A 
ATOM      5  C   LIG    1       -0.041   0.025   0.113  0.00  0.00    -0.034 A 
ATOM      6  C   LIG    1       -0.912   1.061   0.476  0.00  0.00    +0.008 A 
ATOM      7  C   LIG    1       -2.281   0.827   0.563  0.00  0.00    +0.049 A 
BRANCH   2   8
ATOM      8  O   LIG    1       -4.133  -0.676   0.387  0.00  0.00    -0.325 OA
BRANCH   8   9
ATOM      9  S   LIG    1       -5.072  -0.399  -0.968  0.00  0.00    +0.251 S 
ATOM     10  O   LIG    1       -6.450  -0.792  -0.656  0.00  0.00    -0.108 OA
ATOM     11  O   LIG    1       -4.761   0.936  -1.490  0.00  0.00    -0.108 OA
BRANCH   9  12
ATOM     12  O   LIG    1       -4.437  -1.530  -2.007  0.00  0.00    -0.222 OA
ATOM     13  H   LIG    1       -5.064  -2.266  -2.143  0.00  0.00    +0.248 HD
ENDBRANCH   9  12
ENDBRANCH   8   9
ENDBRANCH   2   8
ENDBRANCH   1   5
BRANCH   1  14
ATOM     14  C   LIG    1        1.960   0.747  -1.332  0.00  0.00    +0.053 A 
ATOM     15  N   LIG    1        1.211   1.698  -1.958  0.00  0.00    -0.259 NA
ATOM     16  C   LIG    1        1.608   2.126  -3.184  0.00  0.00    +0.111 A 
ATOM     17  C   LIG    1        2.743   1.631  -3.827  0.00  0.00    +0.020 A 
ATOM     18  C   LIG    1        3.500   0.652  -3.181  0.00  0.00    +0.003 A 
ATOM     19  C   LIG    1        3.107   0.198  -1.920  0.00  0.00    +0.024 A 
ENDBRANCH   1  14
BRANCH   1  20
ATOM     20  C   LIG    1        2.021   1.058   1.239  0.00  0.00    -0.034 A 
ATOM     21  C   LIG    1        2.271   0.388   2.442  0.00  0.00    +0.008 A 
ATOM     22  C   LIG    1        2.789   1.075   3.536  0.00  0.00    +0.049 A 
ATOM     23  C   LIG    1        3.075   2.435   3.428  0.00  0.00    +0.159 A 
ATOM     24  C   LIG    1        2.837   3.111   2.233  0.00  0.00    +0.049 A 
ATOM     25  C   LIG    1        2.318   2.424   1.139  0.00  0.00    +0.008 A 
BRANCH  23  26
ATOM     26  O   LIG    1        3.580   3.113   4.504  0.00  0.00    -0.325 OA
BRANCH  26  27
ATOM     27  S   LIG    1        5.240   3.141   4.671  0.00  0.00    +0.251 S 
ATOM     28  O   LIG    1        5.804   3.904   3.553  0.00  0.00    -0.108 OA
ATOM     29  O   LIG    1        5.703   1.786   4.989  0.00  0.00    -0.108 OA
BRANCH  27  30
ATOM     30  O   LIG    1        5.363   4.066   6.044  0.00  0.00    -0.222 OA
ATOM     31  H   LIG    1        5.642   3.522   6.806  0.00  0.00    +0.248 HD
ENDBRANCH  27  30
ENDBRANCH  26  27
ENDBRANCH  23  26
ENDBRANCH   1  20
TORSDOF 9
