REMARK  Name = DB09042
REMARK                            x       y       z     vdW  Elec       q    Type
REMARK                         _______ _______ _______ _____ _____    ______ ____
ROOT
ATOM      1  C   LIG    1       -0.782   1.115   6.431  0.00  0.00    +0.019 A 
ATOM      2  C   LIG    1        0.214   1.914   5.847  0.00  0.00    +0.133 A 
ATOM      3  F   LIG    1        0.976   2.734   6.609  0.00  0.00    -0.205 F 
ATOM      4  C   LIG    1        0.452   1.867   4.474  0.00  0.00    +0.062 A 
ATOM      5  C   LIG    1       -0.296   1.022   3.638  0.00  0.00    +0.042 A 
ATOM      6  C   LIG    1       -1.274   0.208   4.227  0.00  0.00    +0.024 A 
ATOM      7  C   LIG    1       -1.513   0.258   5.599  0.00  0.00    +0.013 A 
ENDROOT
BRANCH   1  11
ATOM      8  C   LIG    1       -1.609   1.157  10.624  0.00  0.00    +0.111 A 
ATOM      9  N   LIG    1       -1.494  -0.032   9.969  0.00  0.00    -0.251 NA
ATOM     10  C   LIG    1       -1.230  -0.017   8.639  0.00  0.00    +0.120 A 
ATOM     11  C   LIG    1       -1.065   1.158   7.893  0.00  0.00    +0.003 A 
ATOM     12  C   LIG    1       -1.190   2.371   8.584  0.00  0.00    +0.012 A 
ATOM     13  C   LIG    1       -1.462   2.378   9.953  0.00  0.00    +0.032 A 
BRANCH   8  17
ATOM     14  C   LIG    1       -2.609   2.434  15.209  0.00  0.00    +0.199 C 
ATOM     15  N   LIG    1       -2.264   1.628  14.051  0.00  0.00    -0.166 N 
ATOM     16  N   LIG    1       -2.052   2.163  12.844  0.00  0.00    -0.129 NA
ATOM     17  C   LIG    1       -1.902   1.086  12.096  0.00  0.00    +0.223 A 
ATOM     18  N   LIG    1       -2.041  -0.054  12.763  0.00  0.00    -0.106 NA
ATOM     19  N   LIG    1       -2.308   0.297  14.070  0.00  0.00    -0.046 NA
ENDBRANCH   8  17
ENDBRANCH   1  11
BRANCH   5  20
ATOM     20  N   LIG    1       -0.071   0.949   2.240  0.00  0.00    -0.234 N 
ATOM     21  C   LIG    1        0.453   1.971   1.430  0.00  0.00    +0.408 C 
ATOM     22  O   LIG    1        0.931   3.067   1.717  0.00  0.00    -0.226 OA
ATOM     23  O   LIG    1        0.372   1.554   0.146  0.00  0.00    -0.443 OA
ATOM     24  C   LIG    1       -0.017   0.207   0.009  0.00  0.00    +0.222 C 
ATOM     25  C   LIG    1       -0.622  -0.074   1.364  0.00  0.00    +0.164 C 
BRANCH  24  26
ATOM     26  C   LIG    1        1.232  -0.642  -0.314  0.00  0.00    +0.218 C 
BRANCH  26  27
ATOM     27  O   LIG    1        1.701  -0.347  -1.620  0.00  0.00    -0.283 OA
BRANCH  27  28
ATOM     28  P   LIG    1        3.083   0.491  -1.838  0.00  0.00    +0.472 P 
ATOM     29  O   LIG    1        3.154   1.811  -1.155  0.00  0.00    -0.228 OA
BRANCH  28  30
ATOM     30  O   LIG    1        3.223   0.539  -3.455  0.00  0.00    -0.303 OA
ATOM     31  H   LIG    1        3.182  -0.323  -3.912  0.00  0.00    +0.222 HD
ENDBRANCH  28  30
BRANCH  28  32
ATOM     32  O   LIG    1        4.232  -0.571  -1.403  0.00  0.00    -0.303 OA
ATOM     33  H   LIG    1        4.900  -0.236  -0.774  0.00  0.00    +0.222 HD
ENDBRANCH  28  32
ENDBRANCH  27  28
ENDBRANCH  26  27
ENDBRANCH  24  26
ENDBRANCH   5  20
TORSDOF 8
