REMARK  Name = DB09061
REMARK                            x       y       z     vdW  Elec       q    Type
REMARK                         _______ _______ _______ _____ _____    ______ ____
ROOT
ATOM      1  C   LIG    1       -0.789  -1.207  -0.367  0.00  0.00    +0.049 A 
ATOM      2  C   LIG    1       -2.184  -1.170  -0.349  0.00  0.00    +0.124 A 
ATOM      3  C   LIG    1       -2.864   0.004   0.033  0.00  0.00    +0.043 A 
ATOM      4  C   LIG    1       -2.101   1.129   0.406  0.00  0.00    +0.124 A 
ATOM      5  C   LIG    1       -0.707   1.079   0.384  0.00  0.00    +0.049 A 
ATOM      6  C   LIG    1       -0.044  -0.085  -0.005  0.00  0.00    -0.040 A 
ENDROOT
BRANCH   3   7
ATOM      7  C   LIG    1       -4.407   0.046   0.064  0.00  0.00    +0.056 C 
ATOM      8  C   LIG    1       -5.012   1.181  -0.772  0.00  0.00    -0.019 C 
ATOM      9  C   LIG    1       -6.094   1.917  -0.427  0.00  0.00    -0.076 C 
ATOM     10  C   LIG    1       -6.593   3.055  -1.300  0.00  0.00    +0.039 C 
ATOM     11  C   LIG    1       -6.806   1.720   0.913  0.00  0.00    +0.031 C 
ATOM     12  C   LIG    1       -6.517   0.317   1.484  0.00  0.00    +0.013 C 
ATOM     13  C   LIG    1       -4.992   0.061   1.511  0.00  0.00    +0.026 C 
BRANCH  13  14
ATOM     14  C   LIG    1       -4.625  -1.189   2.320  0.00  0.00    -0.076 C 
ATOM     15  C   LIG    1       -3.482  -1.026   3.310  0.00  0.00    +0.039 C 
ATOM     16  C   LIG    1       -5.263  -2.366   2.179  0.00  0.00    +0.007 C 
ENDBRANCH  13  14
ENDBRANCH   3   7
BRANCH   2  17
ATOM     17  O   LIG    1       -2.854  -2.312  -0.709  0.00  0.00    -0.506 OA
ATOM     18  H   LIG    1       -2.264  -3.032  -0.944  0.00  0.00    +0.292 HD
ENDBRANCH   2  17
BRANCH   4  19
ATOM     19  O   LIG    1       -2.689   2.302   0.806  0.00  0.00    -0.506 OA
ATOM     20  H   LIG    1       -2.049   2.982   1.028  0.00  0.00    +0.292 HD
ENDBRANCH   4  19
BRANCH   6  21
ATOM     21  C   LIG    1        1.478  -0.125  -0.036  0.00  0.00    +0.035 C 
BRANCH  21  22
ATOM     22  C   LIG    1        2.093   0.585  -1.258  0.00  0.00    +0.005 C 
BRANCH  22  23
ATOM     23  C   LIG    1        1.729  -0.057  -2.611  0.00  0.00    +0.000 C 
BRANCH  23  24
ATOM     24  C   LIG    1        2.399   0.643  -3.806  0.00  0.00    -0.003 C 
ATOM     25  C   LIG    1        2.031   0.011  -5.155  0.00  0.00    +0.004 C 
ENDBRANCH  23  24
ENDBRANCH  22  23
ENDBRANCH  21  22
ENDBRANCH   6  21
TORSDOF 8
