REMARK  Name = DB09484
REMARK                            x       y       z     vdW  Elec       q    Type
REMARK                         _______ _______ _______ _____ _____    ______ ____
ROOT
ATOM      1  P   LIG    1        0.973   0.080   0.243  0.00  0.00    +0.510 P 
ATOM      2  F   LIG    1        1.309  -0.747  -1.126  0.00  0.00    -0.133 F 
ATOM      3  O   LIG    1       -0.517   0.453   0.123  0.00  0.00    -0.223 OA
ENDROOT
BRANCH   1   4
ATOM      4  O   LIG    1        1.273  -0.909   1.385  0.00  0.00    -0.299 OA
ATOM      5  H   LIG    1        1.094  -0.483   2.238  0.00  0.00    +0.222 HD
ENDBRANCH   1   4
BRANCH   1   6
ATOM      6  O   LIG    1        1.919   1.295   0.212  0.00  0.00    -0.299 OA
ATOM      7  H   LIG    1        1.775   1.838   1.003  0.00  0.00    +0.222 HD
ENDBRANCH   1   6
TORSDOF 2
