REMARK  Name = DB09353
REMARK                            x       y       z     vdW  Elec       q    Type
REMARK                         _______ _______ _______ _____ _____    ______ ____
ROOT
ATOM      1  S   LIG    1       -2.094  -0.293   0.280  0.00  0.00    +0.000 S 
ATOM      2  S   LIG    1       -0.146  -0.880   0.344  0.00  0.00    +0.000 S 
ATOM      3  S   LIG    1        0.915   0.391   1.528  0.00  0.00    +0.000 S 
ATOM      4  S   LIG    1        1.837   1.794   0.376  0.00  0.00    +0.000 S 
ATOM      5  S   LIG    1        0.710   3.489   0.325  0.00  0.00    +0.000 S 
ATOM      6  S   LIG    1       -0.437   3.500  -1.357  0.00  0.00    +0.000 S 
ATOM      7  S   LIG    1       -2.300   2.804  -0.923  0.00  0.00    +0.000 S 
ATOM      8  S   LIG    1       -2.419   0.826  -1.389  0.00  0.00    +0.000 S 
ENDROOT
TORSDOF 0
