REMARK  Name = DB09136
REMARK                            x       y       z     vdW  Elec       q    Type
REMARK                         _______ _______ _______ _____ _____    ______ ____
ROOT
ATOM      1  C   LIG    1        0.075  -0.057   0.048  0.00  0.00    -0.002 C 
ATOM      2  C   LIG    1       -0.638   1.107   0.030  0.00  0.00    -0.017 C 
ATOM      3  C   LIG    1       -2.089   1.161  -0.158  0.00  0.00    +0.010 C 
ATOM      4  C   LIG    1       -2.795   2.318  -0.190  0.00  0.00    +0.026 C 
ATOM      5  C   LIG    1       -2.183   3.582  -0.038  0.00  0.00    +0.038 C 
ATOM      6  C   LIG    1       -0.785   3.580   0.167  0.00  0.00    +0.026 C 
ATOM      7  N   LIG    1       -2.901   4.737  -0.084  0.00  0.00    -0.371 N 
ATOM      8  C   LIG    1       -0.057   2.438   0.201  0.00  0.00    +0.010 C 
ENDROOT
BRANCH   1  14
ATOM      9  C   LIG    1       -0.452  -2.263  -1.127  0.00  0.00    +0.125 A 
ATOM     10  C   LIG    1       -1.071  -3.519  -1.093  0.00  0.00    +0.032 A 
ATOM     11  C   LIG    1       -1.846  -3.902  -0.000  0.00  0.00    +0.031 A 
ATOM     12  C   LIG    1       -2.000  -3.036   1.081  0.00  0.00    +0.118 A 
ATOM     13  C   LIG    1       -1.375  -1.789   1.063  0.00  0.00    +0.040 A 
ATOM     14  C   LIG    1       -0.595  -1.387  -0.029  0.00  0.00    +0.012 A 
BRANCH   9  15
ATOM     15  S   LIG    1        0.512  -1.806  -2.583  0.00  0.00    +0.110 S 
ATOM     16  O   LIG    1        1.899  -2.222  -2.344  0.00  0.00    -0.142 OA
ATOM     17  O   LIG    1        0.167  -0.430  -2.957  0.00  0.00    -0.142 OA
BRANCH  15  18
ATOM     18  O   LIG    1       -0.156  -2.829  -3.709  0.00  0.00    -0.250 OA
ATOM     19  H   LIG    1       -1.016  -2.487  -4.020  0.00  0.00    +0.245 HD
ENDBRANCH  15  18
ENDBRANCH   9  15
BRANCH  12  20
ATOM     20  S   LIG    1       -3.007  -3.506   2.481  0.00  0.00    +0.110 S 
ATOM     21  O   LIG    1       -3.158  -4.966   2.487  0.00  0.00    -0.142 OA
ATOM     22  O   LIG    1       -4.162  -2.602   2.522  0.00  0.00    -0.142 OA
BRANCH  20  23
ATOM     23  O   LIG    1       -1.958  -3.078   3.696  0.00  0.00    -0.250 OA
ATOM     24  H   LIG    1       -1.251  -3.745   3.793  0.00  0.00    +0.245 HD
ENDBRANCH  20  23
ENDBRANCH  12  20
ENDBRANCH   1  14
BRANCH   1  25
ATOM     25  C   LIG    1        1.563  -0.129   0.141  0.00  0.00    -0.017 A 
ATOM     26  C   LIG    1        2.375   0.645  -0.698  0.00  0.00    +0.010 A 
ATOM     27  C   LIG    1        3.761   0.547  -0.631  0.00  0.00    +0.024 A 
ATOM     28  C   LIG    1        4.360  -0.333   0.277  0.00  0.00    +0.030 A 
ATOM     29  C   LIG    1        3.557  -1.105   1.119  0.00  0.00    +0.024 A 
ATOM     30  C   LIG    1        2.170  -1.005   1.049  0.00  0.00    +0.010 A 
BRANCH  28  31
ATOM     31  N   LIG    1        5.762  -0.474   0.370  0.00  0.00    -0.330 N 
BRANCH  31  32
ATOM     32  C   LIG    1        6.407  -0.865  -0.891  0.00  0.00    +0.102 C 
ATOM     33  C   LIG    1        5.892  -2.186  -1.492  0.00  0.00    +0.024 C 
ENDBRANCH  31  32
BRANCH  31  34
ATOM     34  C   LIG    1        6.410   0.676   1.012  0.00  0.00    +0.102 C 
ATOM     35  C   LIG    1        5.941   0.962   2.451  0.00  0.00    +0.024 C 
ENDBRANCH  31  34
ENDBRANCH  28  31
ENDBRANCH   1  25
BRANCH   7  36
ATOM     36  C   LIG    1       -4.395   4.757  -0.299  0.00  0.00    +0.113 C 
ATOM     37  C   LIG    1       -4.757   4.599  -1.787  0.00  0.00    +0.027 C 
ENDBRANCH   7  36
BRANCH   7  38
ATOM     38  C   LIG    1       -2.266   6.096   0.077  0.00  0.00    +0.113 C 
ATOM     39  C   LIG    1       -1.609   6.576  -1.229  0.00  0.00    +0.027 C 
ENDBRANCH   7  38
TORSDOF 11
