REMARK  Name = DB09269
REMARK                            x       y       z     vdW  Elec       q    Type
REMARK                         _______ _______ _______ _____ _____    ______ ____
ROOT
ATOM      1  C   LIG    1       -0.095   0.099   0.022  0.00  0.00    -0.037 A 
ATOM      2  C   LIG    1       -0.670  -1.175  -0.035  0.00  0.00    +0.004 A 
ATOM      3  C   LIG    1       -2.054  -1.310  -0.110  0.00  0.00    +0.000 A 
ATOM      4  C   LIG    1       -2.859  -0.173  -0.120  0.00  0.00    +0.000 A 
ATOM      5  C   LIG    1       -2.294   1.099  -0.053  0.00  0.00    +0.000 A 
ATOM      6  C   LIG    1       -0.910   1.235   0.022  0.00  0.00    +0.004 A 
ENDROOT
BRANCH   1   7
ATOM      7  C   LIG    1        1.421   0.248   0.131  0.00  0.00    +0.155 C 
BRANCH   7   8
ATOM      8  C   LIG    1        1.927   0.282   1.582  0.00  0.00    +0.309 C 
ATOM      9  O   LIG    1        1.212   0.141   2.573  0.00  0.00    -0.251 OA
BRANCH   8  10
ATOM     10  O   LIG    1        3.276   0.478   1.622  0.00  0.00    -0.480 OA
ATOM     11  H   LIG    1        3.613   0.501   2.520  0.00  0.00    +0.295 HD
ENDBRANCH   8  10
ENDBRANCH   7   8
ENDBRANCH   1   7
TORSDOF 3
