REMARK  Name = DB09076
REMARK                            x       y       z     vdW  Elec       q    Type
REMARK                         _______ _______ _______ _____ _____    ______ ____
ROOT
ATOM      1  C   LIG    1       -2.417  -0.200  -0.285  0.00  0.00    +0.003 C 
ATOM      2  C   LIG    1       -1.866  -1.619   0.080  0.00  0.00    -0.008 C 
ATOM      3  C   LIG    1       -0.324  -1.720   0.007  0.00  0.00    -0.074 C 
ATOM      4  N   LIG    1        0.277  -0.353  -0.425  0.00  0.00    +0.382 N 
ATOM      5  C   LIG    1       -0.313   0.017  -1.814  0.00  0.00    -0.074 C 
ATOM      6  C   LIG    1       -0.149   0.704   0.632  0.00  0.00    -0.074 C 
ATOM      7  C   LIG    1       -1.857   0.103  -1.720  0.00  0.00    -0.008 C 
ATOM      8  C   LIG    1       -1.693   0.783   0.700  0.00  0.00    -0.008 C 
ENDROOT
BRANCH   1   9
ATOM      9  C   LIG    1       -4.021  -0.020  -0.226  0.00  0.00    +0.121 C 
BRANCH   9  10
ATOM     10  C   LIG    1       -4.774  -0.916  -1.279  0.00  0.00    -0.011 A 
ATOM     11  C   LIG    1       -4.796  -2.321  -1.206  0.00  0.00    +0.007 A 
ATOM     12  C   LIG    1       -5.469  -3.092  -2.150  0.00  0.00    +0.000 A 
ATOM     13  C   LIG    1       -6.137  -2.475  -3.199  0.00  0.00    +0.000 A 
ATOM     14  C   LIG    1       -6.133  -1.092  -3.309  0.00  0.00    +0.000 A 
ATOM     15  C   LIG    1       -5.459  -0.325  -2.363  0.00  0.00    +0.007 A 
ENDBRANCH   9  10
BRANCH   9  16
ATOM     16  C   LIG    1       -4.591  -0.204   1.229  0.00  0.00    -0.011 A 
ATOM     17  C   LIG    1       -5.115   0.898   1.940  0.00  0.00    +0.007 A 
ATOM     18  C   LIG    1       -5.617   0.766   3.231  0.00  0.00    +0.000 A 
ATOM     19  C   LIG    1       -5.606  -0.476   3.850  0.00  0.00    +0.000 A 
ATOM     20  C   LIG    1       -5.093  -1.582   3.185  0.00  0.00    +0.000 A 
ATOM     21  C   LIG    1       -4.593  -1.445   1.893  0.00  0.00    +0.007 A 
ENDBRANCH   9  16
BRANCH   9  22
ATOM     22  O   LIG    1       -4.173   1.352  -0.605  0.00  0.00    -0.379 OA
ATOM     23  H   LIG    1       -5.109   1.566  -0.583  0.00  0.00    +0.211 HD
ENDBRANCH   9  22
ENDBRANCH   1   9
BRANCH   4  24
ATOM     24  C   LIG    1        1.829  -0.537  -0.486  0.00  0.00    -0.047 C 
BRANCH  24  25
ATOM     25  C   LIG    1        2.620   0.633  -1.118  0.00  0.00    +0.142 C 
BRANCH  25  26
ATOM     26  O   LIG    1        2.483   1.835  -0.370  0.00  0.00    -0.377 OA
BRANCH  26  27
ATOM     27  C   LIG    1        2.861   3.026  -1.055  0.00  0.00    +0.195 C 
BRANCH  27  28
ATOM     28  C   LIG    1        1.788   3.429  -2.059  0.00  0.00    -0.022 A 
ATOM     29  C   LIG    1        2.050   3.367  -3.430  0.00  0.00    +0.006 A 
ATOM     30  C   LIG    1        1.055   3.707  -4.343  0.00  0.00    +0.000 A 
ATOM     31  C   LIG    1       -0.197   4.110  -3.882  0.00  0.00    +0.000 A 
ATOM     32  C   LIG    1       -0.463   4.180  -2.516  0.00  0.00    +0.000 A 
ATOM     33  C   LIG    1        0.532   3.842  -1.603  0.00  0.00    +0.006 A 
ENDBRANCH  27  28
ENDBRANCH  26  27
ENDBRANCH  25  26
ENDBRANCH  24  25
ENDBRANCH   4  24
TORSDOF 9
