REMARK  Name = DB09531
REMARK                            x       y       z     vdW  Elec       q    Type
REMARK                         _______ _______ _______ _____ _____    ______ ____
ROOT
ATOM      1  C   LIG    1        1.532  -0.020   0.000  0.00  0.00    +0.387 C 
ATOM      2  F   LIG    1        1.993   0.646  -1.062  0.00  0.00    -0.192 F 
ATOM      3  F   LIG    1        1.991   0.640   1.067  0.00  0.00    -0.192 F 
ENDROOT
BRANCH   1   4
ATOM      4  C   LIG    1        2.125  -1.466  -0.004  0.00  0.00    +0.409 C 
ATOM      5  F   LIG    1        1.685  -2.145   1.058  0.00  0.00    -0.189 F 
ATOM      6  F   LIG    1        1.691  -2.136  -1.075  0.00  0.00    -0.189 F 
BRANCH   4   7
ATOM      7  C   LIG    1        3.675  -1.503   0.000  0.00  0.00    +0.460 C 
ATOM      8  F   LIG    1        4.187  -0.903   1.075  0.00  0.00    -0.165 F 
ATOM      9  F   LIG    1        4.194  -0.892  -1.066  0.00  0.00    -0.165 F 
ATOM     10  F   LIG    1        4.129  -2.757  -0.005  0.00  0.00    -0.165 F 
ENDBRANCH   4   7
ENDBRANCH   1   4
BRANCH   1  11
ATOM     11  C   LIG    1       -0.032   0.020  -0.001  0.00  0.00    +0.387 C 
ATOM     12  F   LIG    1       -0.493  -0.643   1.063  0.00  0.00    -0.192 F 
ATOM     13  F   LIG    1       -0.492  -0.642  -1.065  0.00  0.00    -0.192 F 
BRANCH  11  14
ATOM     14  C   LIG    1       -0.625   1.466  -0.001  0.00  0.00    +0.409 C 
ATOM     15  F   LIG    1       -0.185   2.142  -1.065  0.00  0.00    -0.189 F 
ATOM     16  F   LIG    1       -0.190   2.139   1.068  0.00  0.00    -0.189 F 
BRANCH  14  17
ATOM     17  C   LIG    1       -2.175   1.503  -0.004  0.00  0.00    +0.460 C 
ATOM     18  F   LIG    1       -2.693   0.895   1.064  0.00  0.00    -0.165 F 
ATOM     19  F   LIG    1       -2.688   0.899  -1.078  0.00  0.00    -0.165 F 
ATOM     20  F   LIG    1       -2.629   2.757  -0.003  0.00  0.00    -0.165 F 
ENDBRANCH  14  17
ENDBRANCH  11  14
ENDBRANCH   1  11
TORSDOF 5
