REMARK  Name = DB09480
REMARK                            x       y       z     vdW  Elec       q    Type
REMARK                         _______ _______ _______ _____ _____    ______ ____
ROOT
ATOM      1  C   LIG    1       -0.567  -0.632  -1.248  0.00  0.00    +0.053 C 
ENDROOT
BRANCH   1   2
ATOM      2  C   LIG    1        0.094  -0.043  -2.491  0.00  0.00    -0.046 A 
ATOM      3  C   LIG    1        1.117  -0.741  -3.139  0.00  0.00    +0.005 A 
ATOM      4  C   LIG    1        1.724  -0.197  -4.268  0.00  0.00    +0.014 A 
ATOM      5  C   LIG    1        1.304   1.043  -4.748  0.00  0.00    +0.013 A 
ATOM      6  I   LIG    1        2.217   1.860  -6.442  0.00  0.00    -0.044 I 
ATOM      7  C   LIG    1        0.283   1.742  -4.108  0.00  0.00    +0.014 A 
ATOM      8  C   LIG    1       -0.323   1.199  -2.978  0.00  0.00    +0.005 A 
ENDBRANCH   1   2
BRANCH   1   9
ATOM      9  C   LIG    1       -0.105   0.007   0.085  0.00  0.00    +0.055 C 
ATOM     10  C   LIG    1       -0.853  -0.614   1.283  0.00  0.00    +0.024 C 
BRANCH   9  11
ATOM     11  N   LIG    1        1.347  -0.149   0.216  0.00  0.00    -0.311 NA
ATOM     12  H   LIG    1        1.602  -1.125   0.172  0.00  0.00    +0.122 HD
BRANCH  11  14
ATOM     13  C   LIG    1        1.846   2.028   1.319  0.00  0.00    +0.023 C 
ATOM     14  C   LIG    1        1.998   0.494   1.358  0.00  0.00    +0.048 C 
ATOM     15  C   LIG    1        3.479   0.079   1.334  0.00  0.00    +0.023 C 
ENDBRANCH  11  14
ENDBRANCH   9  11
ENDBRANCH   1   9
TORSDOF 4
