REMARK  Name = DB09213
REMARK                            x       y       z     vdW  Elec       q    Type
REMARK                         _______ _______ _______ _____ _____    ______ ____
ROOT
ATOM      1  C   LIG    1       -2.149  -1.116   0.172  0.00  0.00    +0.005 A 
ATOM      2  C   LIG    1       -2.833   0.076  -0.091  0.00  0.00    -0.034 A 
ATOM      3  C   LIG    1       -2.106   1.255  -0.298  0.00  0.00    +0.005 A 
ATOM      4  C   LIG    1       -0.715   1.237  -0.259  0.00  0.00    +0.004 A 
ATOM      5  C   LIG    1       -0.038   0.043  -0.005  0.00  0.00    -0.047 A 
ATOM      6  C   LIG    1       -0.757  -1.134   0.211  0.00  0.00    +0.004 A 
ENDROOT
BRANCH   2   7
ATOM      7  C   LIG    1       -4.366   0.078  -0.110  0.00  0.00    +0.124 C 
ATOM      8  C   LIG    1       -4.961   0.808  -1.337  0.00  0.00    +0.024 C 
BRANCH   7   9
ATOM      9  C   LIG    1       -4.913   0.640   1.216  0.00  0.00    +0.312 C 
ATOM     10  O   LIG    1       -5.022   1.843   1.451  0.00  0.00    -0.250 OA
BRANCH   9  11
ATOM     11  O   LIG    1       -5.228  -0.352   2.099  0.00  0.00    -0.480 OA
ATOM     12  H   LIG    1       -5.556  -0.006   2.932  0.00  0.00    +0.295 HD
ENDBRANCH   9  11
ENDBRANCH   7   9
ENDBRANCH   2   7
BRANCH   5  13
ATOM     13  C   LIG    1        1.486   0.029   0.040  0.00  0.00    +0.038 C 
BRANCH  13  14
ATOM     14  C   LIG    1        2.085   0.625   1.337  0.00  0.00    -0.013 C 
ATOM     15  C   LIG    1        1.665  -0.154   2.600  0.00  0.00    +0.007 C 
ATOM     16  C   LIG    1        3.618   0.722   1.240  0.00  0.00    +0.007 C 
ENDBRANCH  13  14
ENDBRANCH   5  13
TORSDOF 5
