REMARK  Name = DB09279
REMARK                            x       y       z     vdW  Elec       q    Type
REMARK                         _______ _______ _______ _____ _____    ______ ____
ROOT
ATOM      1  C   LIG    1       -2.995   2.192   0.191  0.00  0.00    +0.161 C 
ENDROOT
BRANCH   1   7
ATOM      2  C   LIG    1       -0.105  -0.214   0.243  0.00  0.00    +0.044 A 
ATOM      3  C   LIG    1       -0.803  -1.351   0.531  0.00  0.00    +0.049 A 
ATOM      4  C   LIG    1       -0.206  -2.737   0.730  0.00  0.00    +0.066 C 
ATOM      5  N   LIG    1       -2.156  -1.369   0.707  0.00  0.00    -0.238 NA
ATOM      6  C   LIG    1       -2.838  -0.280   0.588  0.00  0.00    +0.113 A 
ATOM      7  N   LIG    1       -2.213   0.932   0.295  0.00  0.00    -0.292 N 
ATOM      8  C   LIG    1       -0.848   1.047   0.097  0.00  0.00    +0.258 A 
ATOM      9  O   LIG    1       -0.277   2.107  -0.175  0.00  0.00    -0.267 OA
BRANCH   2  10
ATOM     10  C   LIG    1        1.421  -0.180  -0.005  0.00  0.00    +0.101 C 
BRANCH  10  11
ATOM     11  C   LIG    1        2.350  -0.057   1.236  0.00  0.00    +0.055 C 
ATOM     12  S   LIG    1        1.760   0.295   2.777  0.00  0.00    -0.040 S 
BRANCH  11  13
ATOM     13  N   LIG    1        3.695  -0.250   0.953  0.00  0.00    -0.333 N 
ATOM     14  C   LIG    1        4.734  -0.284   1.999  0.00  0.00    +0.129 C 
ATOM     15  C   LIG    1        4.204  -0.327  -0.426  0.00  0.00    +0.129 C 
ENDBRANCH  11  13
ENDBRANCH  10  11
ENDBRANCH   2  10
BRANCH   6  16
ATOM     16  C   LIG    1       -4.373  -0.321   0.752  0.00  0.00    +0.074 C 
BRANCH  16  17
ATOM     17  C   LIG    1       -4.982  -1.728   0.969  0.00  0.00    +0.007 C 
BRANCH  17  18
ATOM     18  C   LIG    1       -6.519  -1.698   1.058  0.00  0.00    -0.003 C 
ATOM     19  C   LIG    1       -7.135  -3.087   1.263  0.00  0.00    +0.004 C 
ENDBRANCH  17  18
ENDBRANCH  16  17
ENDBRANCH   6  16
ENDBRANCH   1   7
BRANCH   1  20
ATOM     20  C   LIG    1       -3.708   2.405  -1.143  0.00  0.00    -0.028 A 
ATOM     21  C   LIG    1       -5.053   2.772  -1.136  0.00  0.00    +0.006 A 
ATOM     22  C   LIG    1       -5.749   2.892  -2.333  0.00  0.00    +0.009 A 
ATOM     23  C   LIG    1       -5.116   2.648  -3.559  0.00  0.00    -0.017 A 
ATOM     24  C   LIG    1       -3.753   2.325  -3.557  0.00  0.00    +0.009 A 
ATOM     25  C   LIG    1       -3.053   2.200  -2.360  0.00  0.00    +0.006 A 
BRANCH  23  26
ATOM     26  C   LIG    1       -5.880   2.722  -4.843  0.00  0.00    -0.007 A 
ATOM     27  C   LIG    1       -5.305   3.417  -5.918  0.00  0.00    +0.009 A 
ATOM     28  C   LIG    1       -5.977   3.567  -7.128  0.00  0.00    +0.001 A 
ATOM     29  C   LIG    1       -7.240   3.012  -7.291  0.00  0.00    +0.001 A 
ATOM     30  C   LIG    1       -7.816   2.288  -6.252  0.00  0.00    +0.012 A 
ATOM     31  C   LIG    1       -7.145   2.106  -5.031  0.00  0.00    +0.028 A 
BRANCH  31  32
ATOM     32  C   LIG    1       -7.821   1.213  -4.019  0.00  0.00    +0.180 A 
ATOM     33  N   LIG    1       -7.188   0.269  -3.357  0.00  0.00    -0.108 NA
ATOM     34  N   LIG    1       -8.137  -0.316  -2.552  0.00  0.00    -0.023 NA
ATOM     35  N   LIG    1       -9.330   0.312  -2.795  0.00  0.00    -0.046 NA
ATOM     36  N   LIG    1       -9.107   1.280  -3.746  0.00  0.00    -0.239 N 
ATOM     37  H   LIG    1       -9.769   1.893  -4.139  0.00  0.00    +0.192 HD
ENDBRANCH  31  32
ENDBRANCH  23  26
ENDBRANCH   1  20
TORSDOF 10
