REMARK  Name = DB09224
REMARK                            x       y       z     vdW  Elec       q    Type
REMARK                         _______ _______ _______ _____ _____    ______ ____
ROOT
ATOM      1  C   LIG    1       -0.039   0.055   0.102  0.00  0.00    +0.078 C 
ENDROOT
BRANCH   1   2
ATOM      2  C   LIG    1       -0.623   1.477   0.085  0.00  0.00    +0.163 C 
ATOM      3  O   LIG    1       -0.838   1.995  -1.012  0.00  0.00    -0.292 OA
BRANCH   2   6
ATOM      4  C   LIG    1       -1.902   4.038   2.571  0.00  0.00    +0.039 A 
ATOM      5  C   LIG    1       -1.597   3.387   1.378  0.00  0.00    +0.014 A 
ATOM      6  C   LIG    1       -0.945   2.145   1.390  0.00  0.00    +0.018 A 
ATOM      7  C   LIG    1       -0.602   1.569   2.623  0.00  0.00    +0.014 A 
ATOM      8  C   LIG    1       -0.907   2.221   3.815  0.00  0.00    +0.039 A 
ATOM      9  C   LIG    1       -1.556   3.452   3.785  0.00  0.00    +0.123 A 
ATOM     10  F   LIG    1       -1.851   4.085   4.944  0.00  0.00    -0.205 F 
ENDBRANCH   2   6
ENDBRANCH   1   2
BRANCH   1  11
ATOM     11  C   LIG    1        1.497   0.040   0.211  0.00  0.00    -0.011 C 
BRANCH  11  12
ATOM     12  C   LIG    1        2.057  -1.393   0.180  0.00  0.00    -0.078 C 
BRANCH  12  13
ATOM     13  N   LIG    1        3.604  -1.397   0.102  0.00  0.00    +0.380 N 
ATOM     14  H   LIG    1        3.888  -0.786  -0.651  0.00  0.00    -0.082 HD
ATOM     15  C   LIG    1        4.253  -0.873   1.410  0.00  0.00    -0.079 C 
ATOM     16  C   LIG    1        5.785  -0.917   1.260  0.00  0.00    -0.016 C 
ATOM     17  C   LIG    1        6.277  -2.346   0.957  0.00  0.00    -0.018 C 
ATOM     18  C   LIG    1        7.813  -2.416   0.897  0.00  0.00    +0.007 C 
ATOM     19  C   LIG    1        5.634  -2.806  -0.365  0.00  0.00    -0.016 C 
ATOM     20  C   LIG    1        4.098  -2.821  -0.259  0.00  0.00    -0.079 C 
ENDBRANCH  12  13
ENDBRANCH  11  12
ENDBRANCH   1  11
TORSDOF 5
