REMARK  Name = DB09128
REMARK                            x       y       z     vdW  Elec       q    Type
REMARK                         _______ _______ _______ _____ _____    ______ ____
ROOT
ATOM      1  C   LIG    1        1.516  -0.150  -0.219  0.00  0.00    +0.019 C 
ENDROOT
BRANCH   1   2
ATOM      2  C   LIG    1       -0.012  -0.115  -0.413  0.00  0.00    +0.042 C 
BRANCH   2   3
ATOM      3  C   LIG    1       -0.633   1.269  -0.165  0.00  0.00    +0.229 C 
BRANCH   3   4
ATOM      4  O   LIG    1       -0.116   2.201  -1.112  0.00  0.00    -0.492 OA
BRANCH   4   5
ATOM      5  C   LIG    1       -0.553   3.511  -1.083  0.00  0.00    +0.122 A 
ATOM      6  C   LIG    1       -0.011   4.373  -2.042  0.00  0.00    +0.046 A 
ATOM      7  C   LIG    1       -0.387   5.716  -2.099  0.00  0.00    +0.013 A 
ATOM      8  C   LIG    1       -1.318   6.208  -1.186  0.00  0.00    -0.001 A 
ATOM      9  C   LIG    1       -1.771   7.610  -1.176  0.00  0.00    +0.015 A 
ATOM     10  C   LIG    1       -2.682   8.030  -0.268  0.00  0.00    +0.071 A 
ATOM     11  C   LIG    1       -3.272   7.157   0.740  0.00  0.00    +0.249 A 
ATOM     12  O   LIG    1       -4.104   7.525   1.564  0.00  0.00    -0.268 OA
ATOM     13  N   LIG    1       -2.816   5.877   0.690  0.00  0.00    -0.322 N 
ATOM     14  H   LIG    1       -3.214   5.260   1.382  0.00  0.00    +0.169 HD
ATOM     15  C   LIG    1       -1.873   5.357  -0.218  0.00  0.00    +0.053 A 
ATOM     16  C   LIG    1       -1.492   4.016  -0.165  0.00  0.00    +0.072 A 
ENDBRANCH   4   5
ENDBRANCH   3   4
ENDBRANCH   2   3
ENDBRANCH   1   2
BRANCH   1  17
ATOM     17  C   LIG    1        2.108  -1.562  -0.412  0.00  0.00    +0.084 C 
BRANCH  17  18
ATOM     18  N   LIG    1        3.568  -1.562  -0.549  0.00  0.00    -0.299 NA
ATOM     19  C   LIG    1        4.029  -2.905  -0.902  0.00  0.00    +0.103 C 
ATOM     20  C   LIG    1        5.557  -2.917  -1.132  0.00  0.00    +0.120 C 
ATOM     21  N   LIG    1        6.325  -2.441   0.033  0.00  0.00    -0.327 N 
ATOM     22  C   LIG    1        5.777  -1.156   0.505  0.00  0.00    +0.120 C 
ATOM     23  C   LIG    1        4.242  -1.172   0.693  0.00  0.00    +0.103 C 
BRANCH  21  24
ATOM     24  C   LIG    1        7.684  -2.735   0.127  0.00  0.00    +0.038 A 
ATOM     25  C   LIG    1        8.651  -1.718   0.135  0.00  0.00    +0.024 A 
ATOM     26  C   LIG    1       10.011  -1.996   0.184  0.00  0.00    +0.003 A 
ATOM     27  C   LIG    1       10.476  -3.304   0.223  0.00  0.00    +0.016 A 
ATOM     28  C   LIG    1        9.536  -4.342   0.224  0.00  0.00    +0.021 A 
ATOM     29  S   LIG    1        9.893  -6.063   0.279  0.00  0.00    -0.097 S 
ATOM     30  C   LIG    1        8.191  -6.425   0.272  0.00  0.00    +0.046 A 
ATOM     31  C   LIG    1        7.389  -5.308   0.226  0.00  0.00    +0.018 A 
ATOM     32  C   LIG    1        8.128  -4.084   0.180  0.00  0.00    +0.010 A 
ENDBRANCH  21  24
ENDBRANCH  17  18
ENDBRANCH   1  17
TORSDOF 7
