REMARK  Name = DB09017
REMARK                            x       y       z     vdW  Elec       q    Type
REMARK                         _______ _______ _______ _____ _____    ______ ____
ROOT
ATOM      1  C   LIG    1       -0.283  -0.294   0.008  0.00  0.00    +0.088 C 
ATOM      2  C   LIG    1        1.226  -0.181  -0.065  0.00  0.00    +0.135 A 
ATOM      3  N   LIG    1        2.116  -1.236   0.014  0.00  0.00    -0.275 N 
ATOM      4  C   LIG    1        1.901  -2.596   0.159  0.00  0.00    +0.097 A 
ATOM      5  S   LIG    1        0.678  -3.309   1.178  0.00  0.00    -0.063 S 
ATOM      6  C   LIG    1        1.111  -4.898   0.663  0.00  0.00    +0.058 A 
ATOM      7 BR   LIG    1        0.176  -6.415   1.330  0.00  0.00    -0.042 Br
ATOM      8  C   LIG    1        2.163  -4.879  -0.234  0.00  0.00    +0.035 A 
ATOM      9  C   LIG    1        2.653  -3.588  -0.516  0.00  0.00    +0.033 A 
ATOM     10  C   LIG    1        3.791  -3.311  -1.432  0.00  0.00    +0.077 C 
ATOM     11  N   LIG    1        4.670  -2.379  -1.336  0.00  0.00    -0.275 NA
ATOM     12  C   LIG    1        4.633  -1.439  -0.225  0.00  0.00    +0.218 C 
ATOM     13  C   LIG    1        3.343  -0.635  -0.160  0.00  0.00    +0.160 A 
ATOM     14  N   LIG    1        3.217   0.662  -0.295  0.00  0.00    -0.132 NA
ATOM     15  N   LIG    1        1.860   0.953  -0.231  0.00  0.00    -0.134 NA
ENDROOT
BRANCH  10  16
ATOM     16  C   LIG    1        3.888  -4.250  -2.559  0.00  0.00    +0.019 A 
ATOM     17  C   LIG    1        4.777  -5.343  -2.555  0.00  0.00    +0.050 A 
ATOM     18 CL   LIG    1        5.833  -5.673  -1.220  0.00  0.00    -0.083 Cl
ATOM     19  C   LIG    1        4.816  -6.207  -3.652  0.00  0.00    +0.020 A 
ATOM     20  C   LIG    1        3.981  -5.996  -4.748  0.00  0.00    +0.001 A 
ATOM     21  C   LIG    1        3.099  -4.917  -4.755  0.00  0.00    +0.001 A 
ATOM     22  C   LIG    1        3.052  -4.048  -3.666  0.00  0.00    +0.011 A 
ENDBRANCH  10  16
TORSDOF 1
