REMARK  Name = DB09335
REMARK                            x       y       z     vdW  Elec       q    Type
REMARK                         _______ _______ _______ _____ _____    ______ ____
ROOT
ATOM      1  C   LIG    1       -3.461   6.149   2.527  0.00  0.00    +0.151 A 
ATOM      2  N   LIG    1       -3.422   4.955   1.877  0.00  0.00    -0.211 NA
ATOM      3  C   LIG    1       -4.583   4.365   1.495  0.00  0.00    +0.159 A 
ATOM      4  C   LIG    1       -5.824   4.958   1.739  0.00  0.00    +0.164 A 
ATOM      5  F   LIG    1       -6.976   4.363   1.349  0.00  0.00    -0.202 F 
ATOM      6  C   LIG    1       -5.861   6.190   2.396  0.00  0.00    +0.057 A 
ATOM      7  C   LIG    1       -4.673   6.817   2.810  0.00  0.00    +0.068 A 
ATOM      8  C   LIG    1       -4.715   8.149   3.517  0.00  0.00    +0.205 A 
ATOM      9  O   LIG    1       -5.788   8.720   3.726  0.00  0.00    -0.286 OA
ATOM     10  C   LIG    1       -3.371   8.672   3.905  0.00  0.00    +0.122 A 
ATOM     11  C   LIG    1       -2.256   7.963   3.587  0.00  0.00    +0.112 A 
ATOM     12  N   LIG    1       -2.238   6.745   2.926  0.00  0.00    -0.297 N 
ENDROOT
BRANCH  12  13
ATOM     13  C   LIG    1       -0.991   6.116   2.719  0.00  0.00    +0.083 A 
ATOM     14  C   LIG    1       -0.096   6.634   1.775  0.00  0.00    +0.032 A 
ATOM     15  C   LIG    1        1.138   6.019   1.561  0.00  0.00    +0.040 A 
ATOM     16  C   LIG    1        1.491   4.887   2.294  0.00  0.00    +0.126 A 
ATOM     17  F   LIG    1        2.687   4.293   2.086  0.00  0.00    -0.205 F 
ATOM     18  C   LIG    1        0.611   4.372   3.246  0.00  0.00    +0.078 A 
ATOM     19  C   LIG    1       -0.623   4.984   3.464  0.00  0.00    +0.150 A 
ATOM     20  F   LIG    1       -1.459   4.472   4.399  0.00  0.00    -0.203 F 
ENDBRANCH  12  13
BRANCH   3  21
ATOM     21  N   LIG    1       -4.474   3.132   0.841  0.00  0.00    -0.312 N 
ATOM     22  C   LIG    1       -3.859   2.014   1.551  0.00  0.00    +0.112 C 
ATOM     23  C   LIG    1       -2.447   1.751   1.019  0.00  0.00    +0.033 C 
ATOM     24  C   LIG    1       -2.303   0.956  -0.259  0.00  0.00    +0.083 C 
ATOM     25  C   LIG    1       -2.410   2.460  -0.318  0.00  0.00    +0.033 C 
ATOM     26  C   LIG    1       -3.803   3.083  -0.454  0.00  0.00    +0.112 C 
BRANCH  24  27
ATOM     27  N   LIG    1       -0.991   0.395  -0.555  0.00  0.00    -0.310 N 
ATOM     28  H   LIG    1       -0.555   0.686  -1.418  0.00  0.00    +0.149 HD
ATOM     29  C   LIG    1       -0.410  -0.574   0.171  0.00  0.00    +0.233 C 
ATOM     30  O   LIG    1       -0.916  -1.087   1.170  0.00  0.00    -0.274 OA
BRANCH  29  31
ATOM     31  C   LIG    1        0.974  -1.049  -0.319  0.00  0.00    +0.156 C 
ATOM     32  C   LIG    1        0.955  -2.548  -0.664  0.00  0.00    +0.038 C 
BRANCH  31  33
ATOM     33  N   LIG    1        2.014  -0.825   0.688  0.00  0.00    -0.303 N 
ATOM     34  H   LIG    1        2.407  -1.658   1.101  0.00  0.00    +0.149 HD
ATOM     35  C   LIG    1        2.443   0.377   1.114  0.00  0.00    +0.230 C 
ATOM     36  O   LIG    1        2.024   1.454   0.680  0.00  0.00    -0.274 OA
BRANCH  35  37
ATOM     37  C   LIG    1        3.522   0.351   2.218  0.00  0.00    +0.135 C 
ATOM     38  C   LIG    1        2.965   0.905   3.541  0.00  0.00    +0.033 C 
BRANCH  37  39
ATOM     39  N   LIG    1        4.680   1.115   1.724  0.00  0.00    -0.320 NA
ATOM     40  H   LIG    1        5.168   0.615   0.995  0.00  0.00    +0.119 HD
ATOM     41  H   LIG    1        5.346   1.289   2.463  0.00  0.00    +0.119 HD
ENDBRANCH  37  39
ENDBRANCH  35  37
ENDBRANCH  31  33
ENDBRANCH  29  31
ENDBRANCH  24  27
ENDBRANCH   3  21
BRANCH  10  42
ATOM     42  C   LIG    1       -3.185   9.936   4.604  0.00  0.00    +0.342 C 
ATOM     43  O   LIG    1       -2.225  10.687   4.428  0.00  0.00    -0.245 OA
BRANCH  42  44
ATOM     44  O   LIG    1       -4.163  10.197   5.522  0.00  0.00    -0.477 OA
ATOM     45  H   LIG    1       -4.016  11.026   5.982  0.00  0.00    +0.295 HD
ENDBRANCH  42  44
ENDBRANCH  10  42
TORSDOF 9
