REMARK  Name = DB09030
REMARK                            x       y       z     vdW  Elec       q    Type
REMARK                         _______ _______ _______ _____ _____    ______ ____
ROOT
ATOM      1  C   LIG    1       -0.582  -0.878   1.499  0.00  0.00    +0.050 C 
ATOM      2  C   LIG    1       -0.002  -2.235   1.944  0.00  0.00    +0.178 C 
ATOM      3  C   LIG    1        1.293  -2.169   2.777  0.00  0.00    +0.052 C 
ATOM      4  O   LIG    1       -1.015  -2.737   2.818  0.00  0.00    -0.461 OA
ATOM      5  C   LIG    1       -2.209  -2.142   2.611  0.00  0.00    +0.311 C 
ATOM      6  O   LIG    1       -3.201  -2.411   3.285  0.00  0.00    -0.251 OA
ATOM      7  C   LIG    1       -0.055  -0.195   0.190  0.00  0.00    +0.022 C 
ATOM      8  C   LIG    1       -0.653  -0.747  -1.145  0.00  0.00    -0.000 C 
ATOM      9  C   LIG    1       -0.307   0.178  -2.342  0.00  0.00    +0.006 C 
ATOM     10  C   LIG    1       -0.873  -0.330  -3.681  0.00  0.00    +0.023 C 
ATOM     11  C   LIG    1       -2.399  -0.605  -3.623  0.00  0.00    +0.076 C 
ATOM     12  C   LIG    1       -2.772  -1.428  -2.369  0.00  0.00    +0.026 C 
ATOM     13  C   LIG    1       -2.201  -0.848  -1.050  0.00  0.00    -0.005 C 
ATOM     14  C   LIG    1       -2.550  -1.768   0.131  0.00  0.00    +0.019 C 
ATOM     15  C   LIG    1       -2.088  -1.146   1.464  0.00  0.00    +0.105 C 
ENDROOT
BRANCH  11  16
ATOM     16  N   LIG    1       -2.974  -1.147  -4.856  0.00  0.00    -0.278 N 
ATOM     17  H   LIG    1       -3.245  -2.120  -4.869  0.00  0.00    +0.152 HD
ATOM     18  C   LIG    1       -3.123  -0.405  -6.019  0.00  0.00    +0.400 C 
ATOM     19  O   LIG    1       -2.827   0.784  -6.167  0.00  0.00    -0.226 OA
BRANCH  18  20
ATOM     20  O   LIG    1       -3.654  -1.193  -6.974  0.00  0.00    -0.451 OA
BRANCH  20  21
ATOM     21  C   LIG    1       -3.926  -0.680  -8.272  0.00  0.00    +0.230 C 
ATOM     22  C   LIG    1       -4.509  -1.794  -9.148  0.00  0.00    +0.048 C 
ENDBRANCH  20  21
ENDBRANCH  18  20
ENDBRANCH  11  16
BRANCH   7  23
ATOM     23  C   LIG    1        1.468  -0.201   0.148  0.00  0.00    -0.021 C 
ATOM     24  C   LIG    1        2.245   0.887   0.318  0.00  0.00    +0.024 C 
BRANCH  24  25
ATOM     25  C   LIG    1        3.722   0.922   0.303  0.00  0.00    +0.064 A 
ATOM     26  N   LIG    1        4.404  -0.244   0.141  0.00  0.00    -0.255 NA
ATOM     27  C   LIG    1        5.761  -0.207   0.145  0.00  0.00    +0.120 A 
ATOM     28  C   LIG    1        6.507   0.970   0.306  0.00  0.00    +0.000 A 
ATOM     29  C   LIG    1        5.780   2.159   0.465  0.00  0.00    +0.012 A 
ATOM     30  C   LIG    1        4.384   2.142   0.465  0.00  0.00    +0.028 A 
BRANCH  28  31
ATOM     31  C   LIG    1        8.000   0.957   0.309  0.00  0.00    -0.014 A 
ATOM     32  C   LIG    1        8.733   2.038  -0.207  0.00  0.00    +0.009 A 
ATOM     33  C   LIG    1       10.129   2.027  -0.207  0.00  0.00    +0.003 A 
ATOM     34  C   LIG    1       10.817   0.933   0.313  0.00  0.00    +0.038 A 
ATOM     35  C   LIG    1       10.108  -0.148   0.833  0.00  0.00    +0.124 A 
ATOM     36  F   LIG    1       10.773  -1.210   1.342  0.00  0.00    -0.205 F 
ATOM     37  C   LIG    1        8.713  -0.135   0.828  0.00  0.00    +0.047 A 
ENDBRANCH  28  31
ENDBRANCH  24  25
ENDBRANCH   7  23
TORSDOF 6
