REMARK  Name = DB09034
REMARK                            x       y       z     vdW  Elec       q    Type
REMARK                         _______ _______ _______ _____ _____    ______ ____
ROOT
ATOM      1  C   LIG    1        1.372  -0.185   0.129  0.00  0.00    +0.249 C 
ATOM      2  O   LIG    1        2.059  -0.370   1.136  0.00  0.00    -0.270 OA
ATOM      3  N   LIG    1        1.886  -0.157  -1.138  0.00  0.00    -0.293 N 
ATOM      4  C   LIG    1        3.353  -0.179  -1.336  0.00  0.00    +0.075 C 
ATOM      5  C   LIG    1        3.853  -1.005  -2.549  0.00  0.00    +0.041 C 
ATOM      6  C   LIG    1        3.197  -2.393  -2.706  0.00  0.00    +0.111 C 
ATOM      7  N   LIG    1        1.921  -2.412  -3.433  0.00  0.00    -0.283 N 
ATOM      8  C   LIG    1        0.794  -1.709  -2.805  0.00  0.00    +0.128 C 
ATOM      9  C   LIG    1        3.933   1.249  -1.346  0.00  0.00    +0.028 C 
ATOM     10  C   LIG    1        1.045  -0.260  -2.345  0.00  0.00    +0.127 C 
ENDROOT
BRANCH   7  11
ATOM     11  C   LIG    1        1.627  -3.585  -4.107  0.00  0.00    +0.291 A 
ATOM     12  O   LIG    1        2.636  -4.150  -4.843  0.00  0.00    -0.424 OA
ATOM     13  C   LIG    1        2.054  -5.238  -5.415  0.00  0.00    +0.157 A 
ATOM     14  C   LIG    1        0.711  -5.266  -5.011  0.00  0.00    +0.113 A 
ATOM     15  C   LIG    1       -0.124  -6.297  -5.468  0.00  0.00    +0.051 A 
ATOM     16  C   LIG    1        0.429  -7.265  -6.317  0.00  0.00    +0.043 A 
ATOM     17 CL   LIG    1       -0.569  -8.547  -6.898  0.00  0.00    -0.083 Cl
ATOM     18  C   LIG    1        1.774  -7.212  -6.704  0.00  0.00    +0.024 A 
ATOM     19  C   LIG    1        2.623  -6.193  -6.261  0.00  0.00    +0.050 A 
ATOM     20  N   LIG    1        0.461  -4.201  -4.194  0.00  0.00    -0.195 NA
ENDBRANCH   7  11
BRANCH   1  24
ATOM     21  C   LIG    1       -3.100  -1.980   1.532  0.00  0.00    +0.044 C 
ATOM     22  C   LIG    1       -2.267  -0.826   1.005  0.00  0.00    -0.050 A 
ATOM     23  C   LIG    1       -0.890  -0.978   0.830  0.00  0.00    +0.018 A 
ATOM     24  C   LIG    1       -0.107   0.066   0.321  0.00  0.00    +0.064 A 
ATOM     25  C   LIG    1       -0.727   1.301   0.008  0.00  0.00    +0.098 A 
ATOM     26  C   LIG    1       -2.111   1.439   0.176  0.00  0.00    +0.030 A 
ATOM     27  C   LIG    1       -2.875   0.383   0.668  0.00  0.00    +0.005 A 
BRANCH  25  28
ATOM     28  N   LIG    1       -0.008   2.421  -0.472  0.00  0.00    -0.150 N 
ATOM     29  N   LIG    1       -0.345   3.047  -1.613  0.00  0.00    -0.156 NA
ATOM     30  C   LIG    1        0.542   4.008  -1.685  0.00  0.00    +0.156 A 
ATOM     31  C   LIG    1        1.388   3.948  -0.578  0.00  0.00    +0.156 A 
ATOM     32  N   LIG    1        1.034   2.950   0.193  0.00  0.00    -0.156 NA
ENDBRANCH  25  28
ENDBRANCH   1  24
TORSDOF 3
