REMARK  Name = DB09156
REMARK                            x       y       z     vdW  Elec       q    Type
REMARK                         _______ _______ _______ _____ _____    ______ ____
ROOT
ATOM      1  C   LIG    1       -0.721  -1.121  -0.220  0.00  0.00    +0.040 A 
ATOM      2  C   LIG    1       -2.121  -1.066  -0.065  0.00  0.00    +0.065 A 
ATOM      3  C   LIG    1       -2.773   0.178   0.030  0.00  0.00    +0.049 A 
ATOM      4  I   LIG    1       -4.869   0.293   0.283  0.00  0.00    -0.041 I 
ATOM      5  C   LIG    1       -2.020   1.361  -0.040  0.00  0.00    +0.061 A 
ATOM      6  C   LIG    1       -0.624   1.318  -0.173  0.00  0.00    +0.049 A 
ATOM      7  I   LIG    1        0.473   3.125  -0.229  0.00  0.00    -0.041 I 
ATOM      8  I   LIG    1        0.260  -2.994  -0.379  0.00  0.00    -0.042 I 
ATOM      9  C   LIG    1        0.026   0.073  -0.270  0.00  0.00    +0.066 A 
ENDROOT
BRANCH   2  10
ATOM     10  C   LIG    1       -2.920  -2.338  -0.003  0.00  0.00    +0.246 C 
ATOM     11  O   LIG    1       -3.379  -2.844  -1.028  0.00  0.00    -0.270 OA
ATOM     12  N   LIG    1       -3.056  -2.852   1.231  0.00  0.00    -0.309 N 
ATOM     13  H   LIG    1       -2.672  -2.342   2.013  0.00  0.00    +0.149 HD
BRANCH  12  14
ATOM     14  C   LIG    1       -3.721  -4.119   1.540  0.00  0.00    +0.138 C 
BRANCH  14  15
ATOM     15  C   LIG    1       -2.902  -5.378   1.165  0.00  0.00    +0.157 C 
BRANCH  15  16
ATOM     16  O   LIG    1       -1.685  -5.375   1.893  0.00  0.00    -0.388 OA
ATOM     17  H   LIG    1       -1.200  -4.577   1.669  0.00  0.00    +0.210 HD
ENDBRANCH  15  16
BRANCH  15  18
ATOM     18  C   LIG    1       -3.669  -6.685   1.461  0.00  0.00    +0.188 C 
BRANCH  18  19
ATOM     19  O   LIG    1       -3.015  -7.806   0.897  0.00  0.00    -0.392 OA
ATOM     20  H   LIG    1       -3.517  -8.595   1.113  0.00  0.00    +0.210 HD
ENDBRANCH  18  19
ENDBRANCH  15  18
ENDBRANCH  14  15
ENDBRANCH  12  14
ENDBRANCH   2  10
BRANCH   5  21
ATOM     21  N   LIG    1       -2.669   2.600   0.048  0.00  0.00    -0.282 N 
ATOM     22  H   LIG    1       -2.793   2.993   0.970  0.00  0.00    +0.155 HD
ATOM     23  C   LIG    1       -3.131   3.287  -1.019  0.00  0.00    +0.243 C 
ATOM     24  O   LIG    1       -3.027   2.884  -2.180  0.00  0.00    -0.273 OA
BRANCH  23  25
ATOM     25  C   LIG    1       -3.826   4.635  -0.766  0.00  0.00    +0.255 C 
BRANCH  25  26
ATOM     26  O   LIG    1       -3.790   4.968   0.620  0.00  0.00    -0.374 OA
ATOM     27  C   LIG    1       -4.440   6.192   0.922  0.00  0.00    +0.194 C 
ENDBRANCH  25  26
ENDBRANCH  23  25
ENDBRANCH   5  21
BRANCH   9  28
ATOM     28  C   LIG    1        1.527   0.020  -0.422  0.00  0.00    +0.249 C 
ATOM     29  O   LIG    1        2.218  -0.016   0.598  0.00  0.00    -0.270 OA
ATOM     30  N   LIG    1        2.044  -0.012  -1.680  0.00  0.00    -0.298 N 
ATOM     31  C   LIG    1        1.250   0.084  -2.911  0.00  0.00    +0.132 C 
BRANCH  30  32
ATOM     32  C   LIG    1        3.485  -0.213  -1.906  0.00  0.00    +0.141 C 
BRANCH  32  33
ATOM     33  C   LIG    1        3.983  -1.662  -1.674  0.00  0.00    +0.157 C 
BRANCH  33  34
ATOM     34  O   LIG    1        3.377  -2.525  -2.618  0.00  0.00    -0.388 OA
ATOM     35  H   LIG    1        2.424  -2.460  -2.520  0.00  0.00    +0.210 HD
ENDBRANCH  33  34
BRANCH  33  36
ATOM     36  C   LIG    1        5.515  -1.793  -1.788  0.00  0.00    +0.188 C 
BRANCH  36  37
ATOM     37  O   LIG    1        6.165  -1.130  -0.723  0.00  0.00    -0.392 OA
ATOM     38  H   LIG    1        7.113  -1.244  -0.824  0.00  0.00    +0.210 HD
ENDBRANCH  36  37
ENDBRANCH  33  36
ENDBRANCH  32  33
ENDBRANCH  30  32
ENDBRANCH   9  28
TORSDOF 15
