REMARK  Name = DB09123
REMARK                            x       y       z     vdW  Elec       q    Type
REMARK                         _______ _______ _______ _____ _____    ______ ____
ROOT
ATOM      1  C   LIG    1       -0.567  -3.020  -3.189  0.00  0.00    -0.063 C 
ATOM      2  C   LIG    1       -0.221  -4.078  -3.980  0.00  0.00    -0.044 C 
ATOM      3  C   LIG    1        0.438  -3.863  -5.357  0.00  0.00    +0.043 C 
ATOM      4  C   LIG    1        0.479  -5.122  -6.260  0.00  0.00    +0.083 C 
ATOM      5  C   LIG    1        0.740  -6.420  -5.490  0.00  0.00    +0.157 C 
ATOM      6  O   LIG    1        1.383  -7.354  -5.963  0.00  0.00    -0.293 OA
ATOM      7  C   LIG    1        0.008  -6.527  -4.241  0.00  0.00    +0.050 C 
ATOM      8  C   LIG    1       -0.466  -5.468  -3.545  0.00  0.00    -0.041 C 
ATOM      9  C   LIG    1       -1.292  -5.712  -2.290  0.00  0.00    +0.036 C 
ATOM     10  C   LIG    1       -0.926  -4.661  -1.244  0.00  0.00    +0.013 C 
ATOM     11  C   LIG    1       -0.404  -1.546  -3.639  0.00  0.00    +0.032 C 
ATOM     12  C   LIG    1        0.200  -0.656  -2.529  0.00  0.00    +0.014 C 
ATOM     13  C   LIG    1       -0.621  -0.732  -1.221  0.00  0.00    +0.001 C 
ATOM     14  C   LIG    1       -0.505  -2.199  -0.759  0.00  0.00    +0.005 C 
ATOM     15  C   LIG    1       -0.998  -2.176   0.693  0.00  0.00    +0.007 C 
ATOM     16  C   LIG    1       -0.591  -0.788   1.225  0.00  0.00    +0.036 C 
ATOM     17  C   LIG    1       -0.030   0.020   0.021  0.00  0.00    +0.084 C 
ATOM     18  C   LIG    1       -2.099  -0.270  -1.464  0.00  0.00    +0.014 C 
ATOM     19  C   LIG    1       -1.145  -3.214  -1.750  0.00  0.00    +0.019 C 
ENDROOT
BRANCH  17  20
ATOM     20  O   LIG    1       -0.395   1.391   0.109  0.00  0.00    -0.387 OA
ATOM     21  H   LIG    1       -0.033   1.752   0.922  0.00  0.00    +0.210 HD
ENDBRANCH  17  20
BRANCH  17  22
ATOM     22  C   LIG    1        1.526   0.066   0.044  0.00  0.00    +0.153 C 
BRANCH  22  23
ATOM     23  C   LIG    1        2.120   0.682   1.245  0.00  0.00    +0.065 C 
ATOM     24  N   LIG    1        2.585   1.165   2.188  0.00  0.00    -0.196 NA
ENDBRANCH  22  23
ENDBRANCH  17  22
TORSDOF 3
