REMARK  Name = DB09561
REMARK                            x       y       z     vdW  Elec       q    Type
REMARK                         _______ _______ _______ _____ _____    ______ ____
ROOT
ATOM      1  C   LIG    1        0.003  -0.047  -0.118  0.00  0.00    +0.206 C 
ENDROOT
BRANCH   1   2
ATOM      2  C   LIG    1        1.541  -0.042  -0.039  0.00  0.00    +0.166 C 
BRANCH   2   3
ATOM      3  O   LIG    1        2.041   0.622  -1.186  0.00  0.00    -0.387 OA
ATOM      4  H   LIG    1        1.589   1.466  -1.259  0.00  0.00    +0.210 HD
ENDBRANCH   2   3
BRANCH   2   5
ATOM      5  C   LIG    1        2.129  -1.468   0.023  0.00  0.00    +0.189 C 
BRANCH   5   6
ATOM      6  O   LIG    1        3.513  -1.448   0.319  0.00  0.00    -0.392 OA
ATOM      7  H   LIG    1        3.834  -2.353   0.330  0.00  0.00    +0.210 HD
ENDBRANCH   5   6
ENDBRANCH   2   5
ENDBRANCH   1   2
BRANCH   1   8
ATOM      8  O   LIG    1       -0.491   1.273   0.007  0.00  0.00    -0.284 OA
BRANCH   8   9
ATOM      9  P   LIG    1       -2.220   1.583   0.072  0.00  0.00    +0.472 P 
ATOM     10  O   LIG    1       -2.793   1.049  -1.254  0.00  0.00    -0.228 OA
BRANCH   9  11
ATOM     11  O   LIG    1       -2.740   0.817   1.303  0.00  0.00    -0.303 OA
ATOM     12  H   LIG    1       -3.696   0.953   1.389  0.00  0.00    +0.222 HD
ENDBRANCH   9  11
BRANCH   9  13
ATOM     13  O   LIG    1       -2.361   3.110   0.213  0.00  0.00    -0.303 OA
ATOM     14  H   LIG    1       -3.301   3.346   0.254  0.00  0.00    +0.222 HD
ENDBRANCH   9  13
ENDBRANCH   8   9
ENDBRANCH   1   8
TORSDOF 8
