REMARK  Name = DB09299
REMARK                            x       y       z     vdW  Elec       q    Type
REMARK                         _______ _______ _______ _____ _____    ______ ____
ROOT
ATOM      1  P   LIG    1       -0.625   0.245   0.506  0.00  0.00    +0.345 P 
ATOM      2  O   LIG    1       -1.449   1.301   1.156  0.00  0.00    -0.257 OA
ENDROOT
BRANCH   1   3
ATOM      3  N   LIG    1        0.979   0.688   0.148  0.00  0.00    -0.221 NA
ATOM      4  H   LIG    1        1.304   0.594  -0.815  0.00  0.00    +0.133 HD
BRANCH   3   5
ATOM      5  C   LIG    1        1.788   1.575   0.991  0.00  0.00    +0.169 C 
ATOM      6  C   LIG    1        1.867   1.139   2.471  0.00  0.00    +0.036 C 
BRANCH   5   7
ATOM      7  C   LIG    1        3.182   1.739   0.421  0.00  0.00    +0.325 C 
ATOM      8  O   LIG    1        3.627   2.837   0.081  0.00  0.00    -0.249 OA
BRANCH   7   9
ATOM      9  O   LIG    1        3.856   0.559   0.341  0.00  0.00    -0.461 OA
BRANCH   9  10
ATOM     10  C   LIG    1        5.199   0.485  -0.137  0.00  0.00    +0.170 C 
ATOM     11  C   LIG    1        6.196   0.934   0.950  0.00  0.00    +0.052 C 
ATOM     12  C   LIG    1        5.457  -0.961  -0.585  0.00  0.00    +0.052 C 
ENDBRANCH   9  10
ENDBRANCH   7   9
ENDBRANCH   5   7
ENDBRANCH   3   5
ENDBRANCH   1   3
BRANCH   1  13
ATOM     13  C   LIG    1       -0.463  -1.362   1.390  0.00  0.00    +0.286 C 
BRANCH  13  14
ATOM     14  O   LIG    1       -1.788  -1.820   1.627  0.00  0.00    -0.363 OA
BRANCH  14  15
ATOM     15  C   LIG    1       -1.908  -3.037   2.358  0.00  0.00    +0.136 C 
ATOM     16  C   LIG    1       -1.618  -4.243   1.445  0.00  0.00    +0.040 C 
BRANCH  15  17
ATOM     17  C   LIG    1       -3.333  -3.106   2.944  0.00  0.00    +0.156 C 
BRANCH  17  18
ATOM     18  N   LIG    1       -3.597  -1.987   3.865  0.00  0.00    -0.312 N 
ATOM     19  C   LIG    1       -3.434  -1.998   5.203  0.00  0.00    +0.201 A 
ATOM     20  N   LIG    1       -3.719  -0.849   5.765  0.00  0.00    -0.231 NA
ATOM     21  C   LIG    1       -4.080  -0.053   4.742  0.00  0.00    +0.147 A 
ATOM     22  C   LIG    1       -4.488   1.301   4.704  0.00  0.00    +0.147 A 
ATOM     23  N   LIG    1       -4.793   1.849   3.496  0.00  0.00    -0.219 NA
ATOM     24  C   LIG    1       -4.694   1.069   2.410  0.00  0.00    +0.225 A 
ATOM     25  N   LIG    1       -4.327  -0.218   2.319  0.00  0.00    -0.216 NA
ATOM     26  C   LIG    1       -4.022  -0.731   3.536  0.00  0.00    +0.165 A 
BRANCH  22  27
ATOM     27  N   LIG    1       -4.589   2.098   5.843  0.00  0.00    -0.341 N 
ATOM     28  H   LIG    1       -4.879   3.060   5.748  0.00  0.00    +0.144 HD
ATOM     29  H   LIG    1       -4.361   1.704   6.745  0.00  0.00    +0.144 HD
ENDBRANCH  22  27
ENDBRANCH  17  18
ENDBRANCH  15  17
ENDBRANCH  14  15
ENDBRANCH  13  14
ENDBRANCH   1  13
BRANCH   1  30
ATOM     30  O   LIG    1       -1.178  -0.230  -0.954  0.00  0.00    -0.431 OA
BRANCH  30  31
ATOM     31  C   LIG    1       -2.418  -0.771  -1.165  0.00  0.00    +0.129 A 
ATOM     32  C   LIG    1       -3.570  -0.003  -0.980  0.00  0.00    +0.046 A 
ATOM     33  C   LIG    1       -4.823  -0.571  -1.195  0.00  0.00    +0.004 A 
ATOM     34  C   LIG    1       -4.917  -1.899  -1.605  0.00  0.00    +0.000 A 
ATOM     35  C   LIG    1       -3.769  -2.663  -1.808  0.00  0.00    +0.004 A 
ATOM     36  C   LIG    1       -2.517  -2.095  -1.593  0.00  0.00    +0.046 A 
ENDBRANCH  30  31
ENDBRANCH   1  30
TORSDOF 13
