REMARK  Name = DB09361
REMARK                            x       y       z     vdW  Elec       q    Type
REMARK                         _______ _______ _______ _____ _____    ______ ____
ROOT
ATOM      1  C   LIG    1       -2.791   1.912  -2.627  0.00  0.00    +0.046 C 
ATOM      2  C   LIG    1       -2.094   0.809  -1.834  0.00  0.00    -0.023 A 
ATOM      3  C   LIG    1       -2.837  -0.183  -1.163  0.00  0.00    +0.089 A 
ATOM      4  C   LIG    1       -2.109  -1.162  -0.457  0.00  0.00    +0.030 A 
ATOM      5  C   LIG    1       -0.717  -1.155  -0.420  0.00  0.00    +0.010 A 
ATOM      6  C   LIG    1        0.014  -0.170  -1.087  0.00  0.00    -0.017 A 
ATOM      7  C   LIG    1       -0.696   0.808  -1.792  0.00  0.00    +0.014 A 
ENDROOT
BRANCH   6   8
ATOM      8  C   LIG    1        1.504  -0.160  -1.051  0.00  0.00    -0.017 A 
ATOM      9  C   LIG    1        2.235  -1.349  -1.146  0.00  0.00    +0.014 A 
ATOM     10  C   LIG    1        3.634  -1.352  -1.114  0.00  0.00    -0.023 A 
ATOM     11  C   LIG    1        4.356  -0.147  -0.987  0.00  0.00    +0.089 A 
ATOM     12  C   LIG    1        3.606   1.042  -0.890  0.00  0.00    +0.030 A 
ATOM     13  C   LIG    1        4.354  -2.692  -1.224  0.00  0.00    +0.046 C 
ATOM     14  C   LIG    1        2.213   1.036  -0.921  0.00  0.00    +0.010 A 
BRANCH  11  15
ATOM     15  N   LIG    1        5.766  -0.200  -0.964  0.00  0.00    -0.149 NA
ATOM     16  N   LIG    1        6.378   0.912  -0.869  0.00  0.00    -0.146 NA
BRANCH  16  17
ATOM     17  C   LIG    1        7.793   0.865  -0.853  0.00  0.00    +0.128 A 
ATOM     18  C   LIG    1        8.514   2.072  -0.785  0.00  0.00    +0.153 A 
ATOM     19  C   LIG    1        9.963   2.106  -0.771  0.00  0.00    +0.050 A 
ATOM     20  C   LIG    1       10.748   3.321  -0.708  0.00  0.00    +0.064 A 
ATOM     21  C   LIG    1       12.151   3.262  -0.700  0.00  0.00    +0.140 A 
ATOM     22  C   LIG    1       12.796   2.032  -0.754  0.00  0.00    +0.061 A 
ATOM     23  C   LIG    1       12.096   0.832  -0.816  0.00  0.00    +0.127 A 
ATOM     24  C   LIG    1       10.664   0.853  -0.826  0.00  0.00    +0.015 A 
ATOM     25  C   LIG    1        9.907  -0.343  -0.888  0.00  0.00    +0.013 A 
ATOM     26  C   LIG    1        8.526  -0.326  -0.901  0.00  0.00    +0.034 A 
BRANCH  20  27
ATOM     27  N   LIG    1       10.150   4.585  -0.653  0.00  0.00    -0.356 N 
ATOM     28  H   LIG    1       10.736   5.407  -0.591  0.00  0.00    +0.142 HD
ATOM     29  H   LIG    1        9.143   4.655  -0.646  0.00  0.00    +0.142 HD
ENDBRANCH  20  27
BRANCH  21  30
ATOM     30  S   LIG    1       13.168   4.765  -0.627  0.00  0.00    +0.111 S 
ATOM     31  O   LIG    1       14.555   4.287  -0.623  0.00  0.00    -0.142 OA
ATOM     32  O   LIG    1       12.733   5.389   0.629  0.00  0.00    -0.142 OA
BRANCH  30  33
ATOM     33  O   LIG    1       12.772   5.480  -1.846  0.00  0.00    -0.250 OA
ATOM     34  H   LIG    1       11.847   5.761  -1.770  0.00  0.00    +0.245 HD
ENDBRANCH  30  33
ENDBRANCH  21  30
BRANCH  23  35
ATOM     35  S   LIG    1       13.038  -0.716  -0.886  0.00  0.00    +0.110 S 
ATOM     36  O   LIG    1       14.447  -0.305  -0.859  0.00  0.00    -0.142 OA
ATOM     37  O   LIG    1       12.599  -1.302  -2.158  0.00  0.00    -0.142 OA
BRANCH  35  38
ATOM     38  O   LIG    1       12.586  -1.422   0.319  0.00  0.00    -0.250 OA
ATOM     39  H   LIG    1       11.650  -1.658   0.223  0.00  0.00    +0.245 HD
ENDBRANCH  35  38
ENDBRANCH  23  35
BRANCH  18  40
ATOM     40  O   LIG    1        7.776   3.235  -0.735  0.00  0.00    -0.504 OA
ATOM     41  H   LIG    1        6.831   3.063  -0.749  0.00  0.00    +0.292 HD
ENDBRANCH  18  40
ENDBRANCH  16  17
ENDBRANCH  11  15
ENDBRANCH   6   8
BRANCH   3  42
ATOM     42  N   LIG    1       -4.246  -0.141  -1.234  0.00  0.00    -0.149 NA
ATOM     43  N   LIG    1       -4.878  -1.060  -0.620  0.00  0.00    -0.146 NA
BRANCH  43  44
ATOM     44  C   LIG    1       -6.291  -1.020  -0.687  0.00  0.00    +0.128 A 
ATOM     45  C   LIG    1       -7.032  -2.013  -0.018  0.00  0.00    +0.153 A 
ATOM     46  C   LIG    1       -8.482  -2.039  -0.037  0.00  0.00    +0.050 A 
ATOM     47  C   LIG    1       -9.286  -3.035   0.636  0.00  0.00    +0.064 A 
ATOM     48  C   LIG    1      -10.689  -2.984   0.566  0.00  0.00    +0.140 A 
ATOM     49  C   LIG    1      -11.312  -1.974  -0.155  0.00  0.00    +0.061 A 
ATOM     50  C   LIG    1      -10.592  -0.989  -0.822  0.00  0.00    +0.127 A 
ATOM     51  C   LIG    1       -9.162  -1.008  -0.771  0.00  0.00    +0.015 A 
ATOM     52  C   LIG    1       -8.385  -0.024  -1.433  0.00  0.00    +0.013 A 
ATOM     53  C   LIG    1       -7.004  -0.040  -1.386  0.00  0.00    +0.034 A 
BRANCH  47  54
ATOM     54  N   LIG    1       -8.710  -4.075   1.375  0.00  0.00    -0.356 N 
ATOM     55  H   LIG    1       -9.310  -4.742   1.841  0.00  0.00    +0.142 HD
ATOM     56  H   LIG    1       -7.705  -4.130   1.449  0.00  0.00    +0.142 HD
ENDBRANCH  47  54
BRANCH  48  57
ATOM     57  S   LIG    1      -11.729  -4.217   1.402  0.00  0.00    +0.111 S 
ATOM     58  O   LIG    1      -13.109  -3.819   1.097  0.00  0.00    -0.142 OA
ATOM     59  O   LIG    1      -11.345  -4.061   2.809  0.00  0.00    -0.142 OA
BRANCH  57  60
ATOM     60  O   LIG    1      -11.304  -5.474   0.775  0.00  0.00    -0.250 OA
ATOM     61  H   LIG    1      -10.386  -5.665   1.024  0.00  0.00    +0.245 HD
ENDBRANCH  57  60
ENDBRANCH  48  57
BRANCH  50  62
ATOM     62  S   LIG    1      -11.509   0.285  -1.732  0.00  0.00    +0.110 S 
ATOM     63  O   LIG    1      -12.924  -0.056  -1.542  0.00  0.00    -0.142 OA
ATOM     64  O   LIG    1      -11.020   0.114  -3.106  0.00  0.00    -0.142 OA
BRANCH  62  65
ATOM     65  O   LIG    1      -11.085   1.522  -1.065  0.00  0.00    -0.250 OA
ATOM     66  H   LIG    1      -10.143   1.676  -1.238  0.00  0.00    +0.245 HD
ENDBRANCH  62  65
ENDBRANCH  50  62
BRANCH  45  67
ATOM     67  O   LIG    1       -6.314  -2.970   0.665  0.00  0.00    -0.504 OA
ATOM     68  H   LIG    1       -5.367  -2.830   0.592  0.00  0.00    +0.292 HD
ENDBRANCH  45  67
ENDBRANCH  43  44
ENDBRANCH   3  42
TORSDOF 17
