REMARK  Name = DB09149
REMARK                            x       y       z     vdW  Elec       q    Type
REMARK                         _______ _______ _______ _____ _____    ______ ____
ROOT
ATOM      1  C   LIG    1        3.479  -1.107  -0.553  0.00  0.00    +0.215 A 
ATOM      2  C   LIG    1        4.044  -2.322  -0.942  0.00  0.00    +0.068 A 
ATOM      3  C   LIG    1        5.432  -2.464  -0.907  0.00  0.00    +0.014 A 
ATOM      4  C   LIG    1        6.238  -1.395  -0.485  0.00  0.00    -0.007 A 
ATOM      5  C   LIG    1        5.589  -0.214  -0.106  0.00  0.00    +0.122 A 
ATOM      6  N   LIG    1        4.242  -0.057  -0.134  0.00  0.00    -0.221 NA
ENDROOT
BRANCH   4   7
ATOM      7  C   LIG    1        7.714  -1.458  -0.432  0.00  0.00    +0.010 C 
ATOM      8  C   LIG    1        8.492  -2.489  -0.825  0.00  0.00    +0.008 C 
BRANCH   8   9
ATOM      9  C   LIG    1        9.970  -2.557  -0.776  0.00  0.00    -0.025 A 
ATOM     10  C   LIG    1       10.599  -3.694  -1.291  0.00  0.00    +0.010 A 
ATOM     11  C   LIG    1       11.987  -3.805  -1.277  0.00  0.00    +0.023 A 
ATOM     12  C   LIG    1       12.770  -2.773  -0.744  0.00  0.00    +0.027 A 
ATOM     13  C   LIG    1       12.145  -1.639  -0.226  0.00  0.00    +0.023 A 
ATOM     14  C   LIG    1       10.757  -1.529  -0.241  0.00  0.00    +0.010 A 
BRANCH  12  15
ATOM     15  N   LIG    1       14.173  -2.822  -0.701  0.00  0.00    -0.347 N 
ATOM     16  H   LIG    1       14.674  -1.976  -0.468  0.00  0.00    +0.146 HD
ATOM     17  C   LIG    1       14.921  -3.905  -1.325  0.00  0.00    +0.125 C 
ENDBRANCH  12  15
ENDBRANCH   8   9
ENDBRANCH   4   7
BRANCH   1  18
ATOM     18  O   LIG    1        2.102  -0.976  -0.602  0.00  0.00    -0.474 OA
BRANCH  18  19
ATOM     19  C   LIG    1        1.496   0.263  -0.230  0.00  0.00    +0.258 C 
BRANCH  19  20
ATOM     20  C   LIG    1       -0.018   0.164  -0.448  0.00  0.00    +0.201 C 
BRANCH  20  21
ATOM     21  O   LIG    1       -0.619   1.396  -0.072  0.00  0.00    -0.374 OA
BRANCH  21  22
ATOM     22  C   LIG    1       -2.028   1.422  -0.248  0.00  0.00    +0.188 C 
BRANCH  22  23
ATOM     23  C   LIG    1       -2.559   2.793   0.188  0.00  0.00    +0.188 C 
BRANCH  23  24
ATOM     24  O   LIG    1       -3.969   2.825  -0.002  0.00  0.00    -0.375 OA
BRANCH  24  25
ATOM     25  C   LIG    1       -4.620   4.002   0.468  0.00  0.00    +0.193 C 
BRANCH  25  27
ATOM     26  F   LIG    1       -5.060   6.297  -0.067  0.00  0.00    -0.247 F 
ATOM     27  C   LIG    1       -4.297   5.248  -0.374  0.00  0.00    +0.241 C 
ENDBRANCH  25  27
ENDBRANCH  24  25
ENDBRANCH  23  24
ENDBRANCH  22  23
ENDBRANCH  21  22
ENDBRANCH  20  21
ENDBRANCH  19  20
ENDBRANCH  18  19
ENDBRANCH   1  18
TORSDOF 12
