REMARK  Name = DB09157
REMARK                            x       y       z     vdW  Elec       q    Type
REMARK                         _______ _______ _______ _____ _____    ______ ____
ROOT
ATOM      1  C   LIG    1        0.183   0.324   0.319  0.00  0.00    +0.372 C 
ATOM      2  O   LIG    1        0.995  -0.530   0.404  0.00  0.00    -0.186 OA
ATOM      3  O   LIG    1       -0.661   1.150   0.298  0.00  0.00    -0.186 OA
ENDROOT
TORSDOF 0
