REMARK  Name = DB09289
REMARK                            x       y       z     vdW  Elec       q    Type
REMARK                         _______ _______ _______ _____ _____    ______ ____
ROOT
ATOM      1  C   LIG    1        0.645  -1.958  -4.848  0.00  0.00    +0.157 C 
ATOM      2  N   LIG    1        1.032  -2.887  -3.789  0.00  0.00    -0.206 N 
ATOM      3  S   LIG    1       -0.274  -4.056  -3.462  0.00  0.00    +0.075 S 
ATOM      4  O   LIG    1       -1.499  -3.285  -3.219  0.00  0.00    -0.150 OA
ATOM      5  O   LIG    1       -0.224  -5.069  -4.522  0.00  0.00    -0.150 OA
ATOM      6  C   LIG    1        0.121  -4.887  -1.905  0.00  0.00    +0.112 A 
ATOM      7  C   LIG    1        1.193  -4.600  -1.026  0.00  0.00    -0.030 A 
ATOM      8  C   LIG    1        2.234  -3.513  -1.301  0.00  0.00    -0.006 C 
ATOM      9  C   LIG    1        2.963  -3.729  -2.633  0.00  0.00    -0.035 A 
ATOM     10  C   LIG    1        4.269  -4.236  -2.636  0.00  0.00    +0.004 A 
ATOM     11  C   LIG    1        4.966  -4.426  -3.824  0.00  0.00    +0.000 A 
ATOM     12  C   LIG    1        4.364  -4.104  -5.034  0.00  0.00    +0.002 A 
ATOM     13  C   LIG    1        3.069  -3.595  -5.045  0.00  0.00    +0.025 A 
ATOM     14  C   LIG    1        1.313  -5.366   0.144  0.00  0.00    +0.005 A 
ATOM     15  C   LIG    1        0.409  -6.379   0.451  0.00  0.00    +0.020 A 
ATOM     16  C   LIG    1       -0.643  -6.651  -0.416  0.00  0.00    +0.043 A 
ATOM     17 CL   LIG    1       -1.771  -7.904  -0.045  0.00  0.00    -0.083 Cl
ATOM     18  C   LIG    1       -0.783  -5.908  -1.585  0.00  0.00    +0.049 A 
ATOM     19  C   LIG    1        2.340  -3.401  -3.859  0.00  0.00    +0.053 A 
ENDROOT
BRANCH   8  20
ATOM     20  N   LIG    1        1.760  -2.064  -1.052  0.00  0.00    +0.386 N 
ATOM     21  H   LIG    1        2.570  -1.460  -1.068  0.00  0.00    -0.085 HD
ATOM     22  H   LIG    1        1.161  -1.794  -1.819  0.00  0.00    -0.085 HD
BRANCH  20  23
ATOM     23  C   LIG    1        0.999  -1.811   0.260  0.00  0.00    -0.081 C 
BRANCH  23  24
ATOM     24  C   LIG    1        0.621  -0.324   0.357  0.00  0.00    -0.019 C 
BRANCH  24  25
ATOM     25  C   LIG    1       -0.387   0.134  -0.719  0.00  0.00    -0.002 C 
BRANCH  25  26
ATOM     26  C   LIG    1       -0.848   1.597  -0.575  0.00  0.00    +0.000 C 
BRANCH  26  27
ATOM     27  C   LIG    1        0.272   2.640  -0.790  0.00  0.00    +0.011 C 
BRANCH  27  28
ATOM     28  C   LIG    1       -0.200   4.118  -0.735  0.00  0.00    +0.120 C 
BRANCH  28  29
ATOM     29  C   LIG    1       -1.130   4.568  -1.889  0.00  0.00    +0.305 C 
ATOM     30  O   LIG    1       -1.885   5.537  -1.650  0.00  0.00    -0.251 OA
BRANCH  29  31
ATOM     31  O   LIG    1       -1.063   3.986  -2.997  0.00  0.00    -0.481 OA
ATOM     32  H   LIG    1       -0.477   3.265  -3.113  0.00  0.00    +0.295 HD
ENDBRANCH  29  31
ENDBRANCH  28  29
ENDBRANCH  27  28
ENDBRANCH  26  27
ENDBRANCH  25  26
ENDBRANCH  24  25
ENDBRANCH  23  24
ENDBRANCH  20  23
ENDBRANCH   8  20
TORSDOF 9
