REMARK  Name = DB09031
REMARK                            x       y       z     vdW  Elec       q    Type
REMARK                         _______ _______ _______ _____ _____    ______ ____
ROOT
ATOM      1  C   LIG    1        1.516  -1.749  -0.579  0.00  0.00    +0.002 C 
ENDROOT
BRANCH   1   2
ATOM      2  C   LIG    1        1.229  -0.264  -0.304  0.00  0.00    +0.000 C 
BRANCH   2   3
ATOM      3  C   LIG    1       -0.273   0.024  -0.112  0.00  0.00    +0.000 C 
BRANCH   3   4
ATOM      4  C   LIG    1       -0.610   1.508   0.141  0.00  0.00    +0.000 C 
BRANCH   4   5
ATOM      5  C   LIG    1       -0.043   2.112   1.444  0.00  0.00    -0.000 C 
BRANCH   5   6
ATOM      6  C   LIG    1       -0.567   1.447   2.732  0.00  0.00    -0.000 C 
BRANCH   6   7
ATOM      7  C   LIG    1       -0.071   2.144   4.012  0.00  0.00    -0.000 C 
BRANCH   7   8
ATOM      8  C   LIG    1       -0.618   1.495   5.296  0.00  0.00    -0.000 C 
BRANCH   8   9
ATOM      9  C   LIG    1       -0.150   2.209   6.577  0.00  0.00    -0.000 C 
BRANCH   9  10
ATOM     10  C   LIG    1       -0.706   1.567   7.860  0.00  0.00    -0.000 C 
BRANCH  10  11
ATOM     11  C   LIG    1       -0.257   2.294   9.140  0.00  0.00    -0.000 C 
BRANCH  11  12
ATOM     12  C   LIG    1       -0.818   1.656  10.423  0.00  0.00    -0.000 C 
BRANCH  12  13
ATOM     13  C   LIG    1       -0.372   2.386  11.702  0.00  0.00    -0.003 C 
ATOM     14  C   LIG    1       -0.929   1.746  12.981  0.00  0.00    +0.004 C 
ENDBRANCH  12  13
ENDBRANCH  11  12
ENDBRANCH  10  11
ENDBRANCH   9  10
ENDBRANCH   8   9
ENDBRANCH   7   8
ENDBRANCH   6   7
ENDBRANCH   5   6
ENDBRANCH   4   5
ENDBRANCH   3   4
ENDBRANCH   2   3
ENDBRANCH   1   2
BRANCH   1  15
ATOM     15  C   LIG    1        3.009  -2.050  -0.805  0.00  0.00    +0.029 C 
BRANCH  15  16
ATOM     16  C   LIG    1        3.301  -3.537  -1.063  0.00  0.00    +0.172 C 
BRANCH  16  17
ATOM     17  O   LIG    1        2.943  -4.298   0.078  0.00  0.00    -0.287 OA
BRANCH  17  18
ATOM     18  P   LIG    1        3.071  -6.017  -0.041  0.00  0.00    +0.475 P 
ATOM     19  O   LIG    1        4.366  -6.349  -0.749  0.00  0.00    -0.227 OA
BRANCH  18  20
ATOM     20  O   LIG    1        2.692  -6.599   1.304  0.00  0.00    -0.302 OA
ATOM     21  H   LIG    1        1.826  -6.256   1.573  0.00  0.00    +0.222 HD
ENDBRANCH  18  20
BRANCH  18  22
ATOM     22  O   LIG    1        1.772  -6.291  -1.158  0.00  0.00    -0.289 OA
BRANCH  22  23
ATOM     23  C   LIG    1        0.445  -6.372  -0.655  0.00  0.00    +0.154 C 
BRANCH  23  24
ATOM     24  C   LIG    1       -0.052  -4.997  -0.152  0.00  0.00    -0.047 C 
BRANCH  24  25
ATOM     25  N   LIG    1       -1.531  -4.985   0.333  0.00  0.00    +0.376 N 
ATOM     26  C   LIG    1       -1.733  -5.933   1.539  0.00  0.00    -0.093 C 
ATOM     27  C   LIG    1       -2.508  -5.375  -0.801  0.00  0.00    -0.093 C 
ATOM     28  C   LIG    1       -1.868  -3.542   0.787  0.00  0.00    -0.093 C 
ENDBRANCH  24  25
ENDBRANCH  23  24
ENDBRANCH  22  23
ENDBRANCH  18  22
ENDBRANCH  17  18
ENDBRANCH  16  17
ENDBRANCH  15  16
ENDBRANCH   1  15
TORSDOF 21
