REMARK  Name = DB09069
REMARK                            x       y       z     vdW  Elec       q    Type
REMARK                         _______ _______ _______ _____ _____    ______ ____
ROOT
ATOM      1  C   LIG    1        4.418  -0.109  -0.000  0.00  0.00    +0.165 A 
ATOM      2  C   LIG    1        3.713   0.522   1.033  0.00  0.00    +0.204 A 
ATOM      3  C   LIG    1        2.312   0.621   0.989  0.00  0.00    +0.170 A 
ATOM      4  C   LIG    1        1.605   0.047  -0.081  0.00  0.00    +0.012 A 
ATOM      5  C   LIG    1        2.309  -0.596  -1.101  0.00  0.00    +0.012 A 
ATOM      6  C   LIG    1        3.699  -0.666  -1.069  0.00  0.00    +0.050 A 
ENDROOT
BRANCH   1   8
ATOM      7  C   LIG    1        6.558  -0.794  -0.908  0.00  0.00    +0.277 C 
ATOM      8  O   LIG    1        5.797  -0.149   0.108  0.00  0.00    -0.491 OA
ENDBRANCH   1   8
BRANCH   2   9
ATOM      9  O   LIG    1        4.407   1.056   2.092  0.00  0.00    -0.488 OA
ATOM     10  C   LIG    1        4.543   0.175   3.198  0.00  0.00    +0.277 C 
ENDBRANCH   2   9
BRANCH   3  11
ATOM     11  O   LIG    1        1.621   1.223   2.017  0.00  0.00    -0.491 OA
ATOM     12  C   LIG    1        1.742   2.640   2.074  0.00  0.00    +0.277 C 
ENDBRANCH   3  11
BRANCH   4  13
ATOM     13  C   LIG    1        0.077   0.084  -0.149  0.00  0.00    +0.123 C 
BRANCH  13  14
ATOM     14  N   LIG    1       -0.477   1.440  -0.103  0.00  0.00    -0.296 NA
ATOM     15  C   LIG    1       -0.228   2.162  -1.360  0.00  0.00    +0.100 C 
ATOM     16  C   LIG    1       -0.797   3.598  -1.274  0.00  0.00    +0.096 C 
ATOM     17  N   LIG    1       -2.234   3.576  -1.002  0.00  0.00    -0.314 NA
ATOM     18  H   LIG    1       -2.585   4.519  -0.915  0.00  0.00    +0.122 HD
ATOM     19  C   LIG    1       -2.496   2.827   0.227  0.00  0.00    +0.096 C 
ATOM     20  C   LIG    1       -1.925   1.391   0.132  0.00  0.00    +0.100 C 
ENDBRANCH  13  14
ENDBRANCH   4  13
TORSDOF 5
