REMARK  Name = DB09055
REMARK                            x       y       z     vdW  Elec       q    Type
REMARK                         _______ _______ _______ _____ _____    ______ ____
ROOT
ATOM      1  CA  LIG    1        0.002   0.021   0.000  0.00  0.00    +0.167 C 
ATOM      2  N   LIG    1       -0.669   1.209   0.000  0.00  0.00    -0.292 NA
ATOM      3  H   LIG    1       -0.379   1.722  -0.833  0.00  0.00    +0.123 HD
ATOM      4  C   LIG    1       -2.028   1.177   0.000  0.00  0.00    +0.098 C 
ATOM      5  C   LIG    1       -2.749  -0.022   0.000  0.00  0.00    +0.083 C 
ATOM      6  C   LIG    1       -4.273  -0.039   0.000  0.00  0.00    +0.034 C 
ATOM      7  N   LIG    1       -2.043  -1.183   0.000  0.00  0.00    -0.175 NA
ATOM      8  C   LIG    1       -0.691  -1.199   0.000  0.00  0.00    +0.140 C 
ENDROOT
BRANCH   1   9
ATOM      9  C   LIG    1        1.512   0.051   0.000  0.00  0.00    +0.329 C 
ATOM     10  OXT LIG    1        2.186  -0.980   0.000  0.00  0.00    -0.249 OA
BRANCH   9  11
ATOM     11  O   LIG    1        2.071   1.298   0.000  0.00  0.00    -0.479 OA
ATOM     12  H   LIG    1        3.030   1.267   0.000  0.00  0.00    +0.295 HD
ENDBRANCH   9  11
ENDBRANCH   1   9
BRANCH   7  13
ATOM     13  O   LIG    1       -2.649  -2.290   0.000  0.00  0.00    -0.311 OA
ATOM     14  H   LIG    1       -2.002  -3.013   0.000  0.00  0.00    +0.237 HD
ENDBRANCH   7  13
TORSDOF 3
