REMARK  Name = DB09158
REMARK                            x       y       z     vdW  Elec       q    Type
REMARK                         _______ _______ _______ _____ _____    ______ ____
ROOT
ATOM      1  C   LIG    1       -2.865  -0.290   0.428  0.00  0.00    +0.089 A 
ATOM      2  C   LIG    1       -2.118   0.706  -0.232  0.00  0.00    -0.023 A 
ATOM      3  C   LIG    1       -2.810   1.838  -0.985  0.00  0.00    +0.046 C 
ATOM      4  C   LIG    1       -0.719   0.679  -0.219  0.00  0.00    +0.014 A 
ATOM      5  C   LIG    1       -0.014  -0.328   0.448  0.00  0.00    -0.017 A 
ATOM      6  C   LIG    1       -0.748  -1.315   1.109  0.00  0.00    +0.010 A 
ATOM      7  C   LIG    1       -2.140  -1.297   1.100  0.00  0.00    +0.030 A 
ENDROOT
BRANCH   5   8
ATOM      8  C   LIG    1        1.477  -0.348   0.450  0.00  0.00    -0.017 A 
ATOM      9  C   LIG    1        2.180  -1.545   0.295  0.00  0.00    +0.010 A 
ATOM     10  C   LIG    1        3.572  -1.559   0.286  0.00  0.00    +0.030 A 
ATOM     11  C   LIG    1        4.328  -0.378   0.432  0.00  0.00    +0.089 A 
ATOM     12  C   LIG    1        3.612   0.826   0.597  0.00  0.00    -0.023 A 
ATOM     13  C   LIG    1        4.340   2.155   0.771  0.00  0.00    +0.046 C 
ATOM     14  C   LIG    1        2.213   0.831   0.603  0.00  0.00    +0.014 A 
BRANCH  11  15
ATOM     15  N   LIG    1        5.738  -0.332   0.423  0.00  0.00    -0.149 NA
ATOM     16  N   LIG    1        6.341  -1.437   0.247  0.00  0.00    -0.144 NA
BRANCH  16  17
ATOM     17  C   LIG    1        7.736  -1.284   0.259  0.00  0.00    +0.155 A 
ATOM     18  C   LIG    1        8.416  -0.601  -0.773  0.00  0.00    +0.155 A 
ATOM     19  C   LIG    1        9.849  -0.454  -0.761  0.00  0.00    +0.047 A 
ATOM     20  C   LIG    1       10.617   0.244  -1.765  0.00  0.00    +0.038 A 
ATOM     21  C   LIG    1       12.005   0.326  -1.653  0.00  0.00    +0.053 A 
ATOM     22  C   LIG    1       12.682  -0.255  -0.588  0.00  0.00    +0.119 A 
ATOM     23  C   LIG    1       11.976  -0.939   0.394  0.00  0.00    +0.038 A 
ATOM     24  C   LIG    1       10.567  -1.047   0.326  0.00  0.00    -0.009 A 
ATOM     25  C   LIG    1        9.868  -1.747   1.330  0.00  0.00    +0.040 A 
ATOM     26  C   LIG    1        8.483  -1.862   1.298  0.00  0.00    +0.148 A 
BRANCH  20  27
ATOM     27  N   LIG    1       10.056   0.869  -2.882  0.00  0.00    -0.357 N 
ATOM     28  H   LIG    1        9.054   0.836  -3.011  0.00  0.00    +0.142 HD
ATOM     29  H   LIG    1       10.653   1.339  -3.546  0.00  0.00    +0.142 HD
ENDBRANCH  20  27
BRANCH  22  30
ATOM     30  S   LIG    1       14.463  -0.117  -0.498  0.00  0.00    +0.110 S 
ATOM     31  O   LIG    1       14.927  -0.713   0.760  0.00  0.00    -0.142 OA
ATOM     32  O   LIG    1       14.838   1.243  -0.899  0.00  0.00    -0.142 OA
BRANCH  30  33
ATOM     33  O   LIG    1       14.836  -1.152  -1.742  0.00  0.00    -0.250 OA
ATOM     34  H   LIG    1       14.684  -0.723  -2.606  0.00  0.00    +0.245 HD
ENDBRANCH  30  33
ENDBRANCH  22  30
BRANCH  26  35
ATOM     35  S   LIG    1        7.686  -2.777   2.635  0.00  0.00    +0.112 S 
ATOM     36  O   LIG    1        8.673  -3.059   3.683  0.00  0.00    -0.142 OA
ATOM     37  O   LIG    1        6.872  -3.840   2.036  0.00  0.00    -0.142 OA
BRANCH  35  38
ATOM     38  O   LIG    1        6.671  -1.581   3.182  0.00  0.00    -0.250 OA
ATOM     39  H   LIG    1        5.945  -1.430   2.547  0.00  0.00    +0.245 HD
ENDBRANCH  35  38
ENDBRANCH  26  35
BRANCH  18  40
ATOM     40  O   LIG    1        7.669  -0.087  -1.810  0.00  0.00    -0.504 OA
ATOM     41  H   LIG    1        6.731  -0.265  -1.709  0.00  0.00    +0.292 HD
ENDBRANCH  18  40
ENDBRANCH  16  17
ENDBRANCH  11  15
ENDBRANCH   5   8
BRANCH   1  43
ATOM     42  N   LIG    1       -4.903  -1.202   0.893  0.00  0.00    -0.144 NA
ATOM     43  N   LIG    1       -4.274  -0.221   0.389  0.00  0.00    -0.149 NA
BRANCH  42  51
ATOM     44  C   LIG    1       -8.413  -0.804   1.997  0.00  0.00    +0.040 A 
ATOM     45  C   LIG    1       -9.121  -0.737   0.782  0.00  0.00    -0.009 A 
ATOM     46  C   LIG    1       -8.418  -0.837  -0.460  0.00  0.00    +0.047 A 
ATOM     47  C   LIG    1       -9.196  -0.770  -1.674  0.00  0.00    +0.038 A 
ATOM     48  C   LIG    1      -10.580  -0.610  -1.611  0.00  0.00    +0.053 A 
ATOM     49  C   LIG    1      -11.243  -0.513  -0.395  0.00  0.00    +0.119 A 
ATOM     50  C   LIG    1       -6.988  -0.999  -0.405  0.00  0.00    +0.155 A 
ATOM     51  C   LIG    1       -6.296  -1.037   0.827  0.00  0.00    +0.155 A 
ATOM     52  C   LIG    1      -10.527  -0.576   0.794  0.00  0.00    +0.038 A 
ATOM     53  C   LIG    1       -7.031  -0.951   2.020  0.00  0.00    +0.148 A 
BRANCH  47  54
ATOM     54  N   LIG    1       -8.649  -0.853  -2.958  0.00  0.00    -0.357 N 
ATOM     55  H   LIG    1       -7.652  -0.985  -3.058  0.00  0.00    +0.142 HD
ATOM     56  H   LIG    1       -9.255  -0.820  -3.764  0.00  0.00    +0.142 HD
ENDBRANCH  47  54
BRANCH  49  57
ATOM     57  S   LIG    1      -13.020  -0.299  -0.374  0.00  0.00    +0.110 S 
ATOM     58  O   LIG    1      -13.495  -0.371   1.013  0.00  0.00    -0.142 OA
ATOM     59  O   LIG    1      -13.595  -1.131  -1.437  0.00  0.00    -0.142 OA
BRANCH  57  60
ATOM     60  O   LIG    1      -13.064   1.286  -0.866  0.00  0.00    -0.250 OA
ATOM     61  H   LIG    1      -12.884   1.356  -1.823  0.00  0.00    +0.245 HD
ENDBRANCH  57  60
ENDBRANCH  49  57
BRANCH  53  62
ATOM     62  S   LIG    1       -6.225  -1.030   3.633  0.00  0.00    +0.112 S 
ATOM     63  O   LIG    1       -5.432  -2.263   3.688  0.00  0.00    -0.142 OA
ATOM     64  O   LIG    1       -7.200  -0.694   4.677  0.00  0.00    -0.142 OA
BRANCH  62  65
ATOM     65  O   LIG    1       -5.189   0.258   3.460  0.00  0.00    -0.250 OA
ATOM     66  H   LIG    1       -5.671   1.103   3.542  0.00  0.00    +0.245 HD
ENDBRANCH  62  65
ENDBRANCH  53  62
BRANCH  50  67
ATOM     67  O   LIG    1       -6.256  -1.142  -1.563  0.00  0.00    -0.504 OA
ATOM     68  H   LIG    1       -5.318  -1.252  -1.391  0.00  0.00    +0.292 HD
ENDBRANCH  50  67
ENDBRANCH  42  51
ENDBRANCH   1  43
TORSDOF 17
