REMARK  Name = DB09378
REMARK                            x       y       z     vdW  Elec       q    Type
REMARK                         _______ _______ _______ _____ _____    ______ ____
ROOT
ATOM      1  C   LIG    1       -3.465  -2.396   4.266  0.00  0.00    +0.016 C 
ATOM      2  C   LIG    1       -2.813  -3.762   4.621  0.00  0.00    +0.020 C 
ATOM      3  C   LIG    1       -3.653  -1.643   5.593  0.00  0.00    -0.012 C 
ATOM      4  C   LIG    1       -4.835  -1.306   6.144  0.00  0.00    +0.047 C 
ATOM      5  C   LIG    1       -6.128  -1.611   5.542  0.00  0.00    +0.179 C 
ATOM      6  O   LIG    1       -7.200  -1.306   6.061  0.00  0.00    -0.288 OA
ATOM      7  C   LIG    1       -6.027  -2.307   4.260  0.00  0.00    +0.053 C 
ATOM      8  C   LIG    1       -2.658  -1.521   3.224  0.00  0.00    +0.035 C 
ATOM      9  C   LIG    1       -1.254  -0.997   3.709  0.00  0.00    +0.120 C 
ATOM     10  C   LIG    1       -0.532  -0.165   2.610  0.00  0.00    +0.041 C 
ATOM     11  C   LIG    1       -0.421  -0.895   1.234  0.00  0.00    +0.009 C 
ATOM     12  C   LIG    1       -1.872  -1.235   0.810  0.00  0.00    +0.002 C 
ATOM     13  C   LIG    1       -1.784  -1.596  -0.680  0.00  0.00    +0.008 C 
ATOM     14  C   LIG    1       -0.591  -0.774  -1.215  0.00  0.00    +0.043 C 
ATOM     15  C   LIG    1        0.488  -2.171   1.343  0.00  0.00    +0.015 C 
ATOM     16  C   LIG    1       -0.008   0.007   0.006  0.00  0.00    +0.131 C 
ATOM     17  C   LIG    1       -2.605  -2.183   1.801  0.00  0.00    +0.002 C 
ATOM     18  C   LIG    1       -4.038  -2.488   1.307  0.00  0.00    +0.045 C 
ATOM     19  C   LIG    1       -4.823  -3.375   2.285  0.00  0.00    +0.193 C 
ATOM     20  F   LIG    1       -6.058  -3.560   1.812  0.00  0.00    -0.241 F 
ATOM     21  C   LIG    1       -4.870  -2.674   3.652  0.00  0.00    -0.023 C 
ENDROOT
BRANCH   9  22
ATOM     22  O   LIG    1       -0.394  -1.995   4.221  0.00  0.00    -0.391 OA
ATOM     23  H   LIG    1       -0.836  -2.431   4.952  0.00  0.00    +0.210 HD
ENDBRANCH   9  22
BRANCH  16  24
ATOM     24  O   LIG    1       -0.584   1.310   0.043  0.00  0.00    -0.380 OA
ATOM     25  H   LIG    1       -1.540   1.220   0.037  0.00  0.00    +0.211 HD
ENDBRANCH  16  24
BRANCH  16  26
ATOM     26  C   LIG    1        1.537   0.228  -0.098  0.00  0.00    +0.190 C 
ATOM     27  O   LIG    1        2.242  -0.543  -0.757  0.00  0.00    -0.292 OA
BRANCH  26  28
ATOM     28  C   LIG    1        2.156   1.432   0.647  0.00  0.00    +0.233 C 
BRANCH  28  29
ATOM     29  O   LIG    1        3.565   1.446   0.504  0.00  0.00    -0.387 OA
ATOM     30  H   LIG    1        3.910   2.228   0.942  0.00  0.00    +0.210 HD
ENDBRANCH  28  29
ENDBRANCH  26  28
ENDBRANCH  16  26
TORSDOF 5
