REMARK  Name = DB09135
REMARK                            x       y       z     vdW  Elec       q    Type
REMARK                         _______ _______ _______ _____ _____    ______ ____
ROOT
ATOM      1  C   LIG    1       -2.682   0.165  -0.307  0.00  0.00    +0.040 A 
ATOM      2  I   LIG    1       -4.775   0.241  -0.641  0.00  0.00    -0.042 I 
ATOM      3  C   LIG    1       -1.938   1.358  -0.207  0.00  0.00    +0.065 A 
ATOM      4  C   LIG    1       -0.547   1.311   0.009  0.00  0.00    +0.049 A 
ATOM      5  I   LIG    1        0.550   3.111   0.219  0.00  0.00    -0.041 I 
ATOM      6  C   LIG    1        0.101   0.063   0.110  0.00  0.00    +0.064 A 
ATOM      7  C   LIG    1       -0.642  -1.130   0.033  0.00  0.00    +0.049 A 
ATOM      8  I   LIG    1        0.341  -2.992   0.257  0.00  0.00    -0.041 I 
ATOM      9  C   LIG    1       -2.032  -1.078  -0.180  0.00  0.00    +0.065 A 
ENDROOT
BRANCH   3  10
ATOM     10  C   LIG    1       -2.635   2.686  -0.326  0.00  0.00    +0.246 C 
ATOM     11  O   LIG    1       -3.093   3.248   0.669  0.00  0.00    -0.270 OA
ATOM     12  N   LIG    1       -2.701   3.172  -1.578  0.00  0.00    -0.309 N 
ATOM     13  H   LIG    1       -2.289   2.635  -2.327  0.00  0.00    +0.149 HD
BRANCH  12  14
ATOM     14  C   LIG    1       -3.330   4.440  -1.955  0.00  0.00    +0.132 C 
BRANCH  14  15
ATOM     15  C   LIG    1       -4.872   4.436  -1.917  0.00  0.00    +0.174 C 
BRANCH  15  16
ATOM     16  O   LIG    1       -5.398   3.410  -2.736  0.00  0.00    -0.393 OA
ATOM     17  H   LIG    1       -5.192   2.564  -2.332  0.00  0.00    +0.209 HD
ENDBRANCH  15  16
ENDBRANCH  14  15
ENDBRANCH  12  14
ENDBRANCH   3  10
BRANCH   6  18
ATOM     18  N   LIG    1        1.502  -0.026   0.281  0.00  0.00    -0.267 N 
ATOM     19  C   LIG    1        2.094   0.180   1.493  0.00  0.00    +0.217 C 
ATOM     20  O   LIG    1        3.315   0.260   1.635  0.00  0.00    -0.276 OA
ATOM     21  C   LIG    1        1.224   0.283   2.754  0.00  0.00    +0.109 C 
BRANCH  18  22
ATOM     22  C   LIG    1        2.318  -0.272  -0.929  0.00  0.00    +0.147 C 
BRANCH  22  23
ATOM     23  C   LIG    1        2.548   0.934  -1.867  0.00  0.00    +0.157 C 
BRANCH  23  24
ATOM     24  O   LIG    1        3.429   1.862  -1.261  0.00  0.00    -0.388 OA
ATOM     25  H   LIG    1        3.119   2.039  -0.370  0.00  0.00    +0.210 HD
ENDBRANCH  23  24
BRANCH  23  26
ATOM     26  C   LIG    1        3.074   0.538  -3.264  0.00  0.00    +0.188 C 
BRANCH  26  27
ATOM     27  O   LIG    1        4.272  -0.214  -3.196  0.00  0.00    -0.392 OA
ATOM     28  H   LIG    1        4.564  -0.408  -4.089  0.00  0.00    +0.210 HD
ENDBRANCH  26  27
ENDBRANCH  23  26
ENDBRANCH  22  23
ENDBRANCH  18  22
ENDBRANCH   6  18
BRANCH   9  29
ATOM     29  C   LIG    1       -2.824  -2.353  -0.269  0.00  0.00    +0.246 C 
ATOM     30  O   LIG    1       -3.334  -2.850   0.736  0.00  0.00    -0.270 OA
ATOM     31  N   LIG    1       -2.910  -2.871  -1.505  0.00  0.00    -0.309 N 
ATOM     32  H   LIG    1       -2.437  -2.404  -2.265  0.00  0.00    +0.149 HD
BRANCH  31  33
ATOM     33  C   LIG    1       -3.622  -4.104  -1.838  0.00  0.00    +0.138 C 
BRANCH  33  34
ATOM     34  C   LIG    1       -3.672  -4.380  -3.359  0.00  0.00    +0.157 C 
BRANCH  34  35
ATOM     35  O   LIG    1       -2.352  -4.545  -3.849  0.00  0.00    -0.388 OA
ATOM     36  H   LIG    1       -1.960  -5.310  -3.422  0.00  0.00    +0.210 HD
ENDBRANCH  34  35
BRANCH  34  37
ATOM     37  C   LIG    1       -4.488  -5.638  -3.723  0.00  0.00    +0.188 C 
BRANCH  37  38
ATOM     38  O   LIG    1       -5.865  -5.451  -3.466  0.00  0.00    -0.392 OA
ATOM     39  H   LIG    1       -6.337  -6.246  -3.727  0.00  0.00    +0.210 HD
ENDBRANCH  37  38
ENDBRANCH  34  37
ENDBRANCH  33  34
ENDBRANCH  31  33
ENDBRANCH   9  29
TORSDOF 16
