REMARK  Name = DB09160
REMARK                            x       y       z     vdW  Elec       q    Type
REMARK                         _______ _______ _______ _____ _____    ______ ____
ROOT
ATOM      1  C   LIG    1       -0.391   0.084   1.192  0.00  0.00    +0.035 C 
ENDROOT
BRANCH   1   2
ATOM      2  P   LIG    1       -0.893   1.739   0.432  0.00  0.00    -0.101 P 
BRANCH   2   3
ATOM      3  C   LIG    1       -2.707   1.354   0.070  0.00  0.00    +0.058 C 
BRANCH   3   4
ATOM      4  C   LIG    1       -3.470   2.583  -0.456  0.00  0.00    +0.164 C 
BRANCH   4   5
ATOM      5  O   LIG    1       -4.802   2.276  -0.855  0.00  0.00    -0.380 OA
BRANCH   5   7
ATOM      6  C   LIG    1       -7.106   1.797  -0.380  0.00  0.00    +0.034 C 
ATOM      7  C   LIG    1       -5.704   1.985   0.206  0.00  0.00    +0.156 C 
ENDBRANCH   5   7
ENDBRANCH   4   5
ENDBRANCH   3   4
ENDBRANCH   2   3
BRANCH   2   8
ATOM      8  C   LIG    1       -1.107   2.806   1.986  0.00  0.00    +0.058 C 
BRANCH   8   9
ATOM      9  C   LIG    1        0.132   2.984   2.874  0.00  0.00    +0.164 C 
BRANCH   9  10
ATOM     10  O   LIG    1        1.232   3.431   2.093  0.00  0.00    -0.380 OA
BRANCH  10  11
ATOM     11  C   LIG    1        2.434   3.575   2.836  0.00  0.00    +0.156 C 
ATOM     12  C   LIG    1        3.566   3.957   1.878  0.00  0.00    +0.034 C 
ENDBRANCH  10  11
ENDBRANCH   9  10
ENDBRANCH   8   9
ENDBRANCH   2   8
ENDBRANCH   1   2
BRANCH   1  13
ATOM     13  C   LIG    1        1.130  -0.076   1.312  0.00  0.00    +0.035 C 
BRANCH  13  14
ATOM     14  P   LIG    1        1.676  -1.488   2.442  0.00  0.00    -0.101 P 
BRANCH  14  15
ATOM     15  C   LIG    1        3.541  -1.426   2.130  0.00  0.00    +0.058 C 
BRANCH  15  16
ATOM     16  C   LIG    1        4.201  -0.161   2.691  0.00  0.00    +0.164 C 
BRANCH  16  17
ATOM     17  O   LIG    1        5.597  -0.219   2.434  0.00  0.00    -0.380 OA
BRANCH  17  18
ATOM     18  C   LIG    1        6.307   0.922   2.893  0.00  0.00    +0.156 C 
ATOM     19  C   LIG    1        7.790   0.751   2.551  0.00  0.00    +0.034 C 
ENDBRANCH  17  18
ENDBRANCH  16  17
ENDBRANCH  15  16
ENDBRANCH  14  15
BRANCH  14  20
ATOM     20  C   LIG    1        1.203  -2.950   1.339  0.00  0.00    +0.058 C 
BRANCH  20  21
ATOM     21  C   LIG    1        1.448  -4.350   1.934  0.00  0.00    +0.164 C 
BRANCH  21  22
ATOM     22  O   LIG    1        2.816  -4.616   2.223  0.00  0.00    -0.380 OA
BRANCH  22  23
ATOM     23  C   LIG    1        3.636  -4.845   1.083  0.00  0.00    +0.156 C 
ATOM     24  C   LIG    1        5.064  -5.137   1.556  0.00  0.00    +0.034 C 
ENDBRANCH  22  23
ENDBRANCH  21  22
ENDBRANCH  20  21
ENDBRANCH  14  20
ENDBRANCH  13  14
ENDBRANCH   1  13
TORSDOF 19
