REMARK  Name = DB09047
REMARK                            x       y       z     vdW  Elec       q    Type
REMARK                         _______ _______ _______ _____ _____    ______ ____
ROOT
ATOM      1  C   LIG    1       -0.514   1.200   0.010  0.00  0.00    +0.073 A 
ATOM      2  C   LIG    1       -1.883   1.133   0.369  0.00  0.00    +0.050 A 
ATOM      3  C   LIG    1       -2.537   2.309   0.746  0.00  0.00    +0.054 A 
ATOM      4  C   LIG    1       -1.891   3.536   0.732  0.00  0.00    +0.146 A 
ATOM      5  F   LIG    1       -2.615   4.631   1.065  0.00  0.00    -0.203 F 
ATOM      6  C   LIG    1       -0.551   3.640   0.330  0.00  0.00    +0.085 A 
ATOM      7  C   LIG    1       -2.678  -0.158   0.346  0.00  0.00    +0.203 A 
ATOM      8  C   LIG    1       -1.964  -1.298  -0.298  0.00  0.00    +0.122 A 
ATOM      9  C   LIG    1       -0.638  -1.155  -0.564  0.00  0.00    +0.105 A 
ATOM     10  O   LIG    1       -3.833  -0.199   0.778  0.00  0.00    -0.286 OA
ATOM     11  C   LIG    1        0.129   2.466  -0.084  0.00  0.00    +0.100 A 
ATOM     12  N   LIG    1        0.126  -0.052  -0.233  0.00  0.00    -0.342 N 
ENDROOT
BRANCH   6  13
ATOM     13  N   LIG    1        0.057   4.909   0.244  0.00  0.00    -0.323 N 
ATOM     14  C   LIG    1        0.031   5.896   1.346  0.00  0.00    +0.126 C 
ATOM     15  C   LIG    1       -0.087   7.273   0.685  0.00  0.00    +0.101 C 
ATOM     16  N   LIG    1       -0.769   8.363   1.381  0.00  0.00    -0.307 NA
ATOM     17  H   LIG    1       -0.258   8.620   2.213  0.00  0.00    +0.122 HD
ATOM     18  C   LIG    1       -0.899   9.530   0.495  0.00  0.00    +0.109 C 
ATOM     19  C   LIG    1       -1.419   9.172  -0.930  0.00  0.00    +0.175 C 
ATOM     20  O   LIG    1       -0.705   8.056  -1.475  0.00  0.00    -0.372 OA
ATOM     21  C   LIG    1       -0.819   6.947  -0.596  0.00  0.00    +0.154 C 
ATOM     22  C   LIG    1       -0.077   5.685  -0.997  0.00  0.00    +0.138 C 
ENDBRANCH   6  13
BRANCH  12  23
ATOM     23  C   LIG    1        1.516  -0.348   0.142  0.00  0.00    +0.087 C 
ATOM     24  C   LIG    1        2.028   0.169   1.483  0.00  0.00    +0.027 C 
ATOM     25  C   LIG    1        1.745  -1.290   1.318  0.00  0.00    +0.027 C 
ENDBRANCH  12  23
BRANCH   8  26
ATOM     26  C   LIG    1       -2.667  -2.533  -0.657  0.00  0.00    +0.342 C 
ATOM     27  O   LIG    1       -3.876  -2.712  -0.509  0.00  0.00    -0.245 OA
BRANCH  26  28
ATOM     28  O   LIG    1       -1.865  -3.506  -1.187  0.00  0.00    -0.477 OA
ATOM     29  H   LIG    1       -2.358  -4.298  -1.411  0.00  0.00    +0.295 HD
ENDBRANCH  26  28
ENDBRANCH   8  26
BRANCH  11  30
ATOM     30  C   LIG    1        1.481   2.583  -0.652  0.00  0.00    +0.103 C 
ATOM     31  N   LIG    1        2.544   2.676  -1.100  0.00  0.00    -0.191 NA
ENDBRANCH  11  30
TORSDOF 5
