REMARK  Name = DB09571
REMARK                            x       y       z     vdW  Elec       q    Type
REMARK                         _______ _______ _______ _____ _____    ______ ____
ROOT
ATOM      1  C   LIG    1        1.402   0.340   0.089  0.00  0.00    +0.053 C 
ENDROOT
BRANCH   1   2
ATOM      2  C   LIG    1        1.949   0.886  -1.227  0.00  0.00    -0.046 A 
ATOM      3  C   LIG    1        2.509   2.166  -1.273  0.00  0.00    +0.004 A 
ATOM      4  C   LIG    1        3.014   2.663  -2.472  0.00  0.00    +0.000 A 
ATOM      5  C   LIG    1        2.961   1.877  -3.621  0.00  0.00    +0.000 A 
ATOM      6  C   LIG    1        2.412   0.597  -3.582  0.00  0.00    +0.000 A 
ATOM      7  C   LIG    1        1.908   0.100  -2.383  0.00  0.00    +0.004 A 
ENDBRANCH   1   2
BRANCH   1   9
ATOM      8  C   LIG    1       -0.417  -0.936   1.317  0.00  0.00    +0.024 C 
ATOM      9  C   LIG    1       -0.091  -0.092   0.070  0.00  0.00    +0.055 C 
BRANCH   9  10
ATOM     10  N   LIG    1       -1.022   1.037   0.106  0.00  0.00    -0.316 NA
ATOM     11  H   LIG    1       -1.936   0.737   0.415  0.00  0.00    +0.122 HD
ATOM     12  C   LIG    1       -1.122   1.787  -1.137  0.00  0.00    +0.101 C 
ENDBRANCH   9  10
ENDBRANCH   1   9
TORSDOF 3
