REMARK  Name = DB09009
REMARK                            x       y       z     vdW  Elec       q    Type
REMARK                         _______ _______ _______ _____ _____    ______ ____
ROOT
ATOM      1  N   LIG    1       -0.768   1.305  -0.822  0.00  0.00    -0.283 N 
ATOM      2  H   LIG    1       -0.433   1.901  -1.565  0.00  0.00    +0.155 HD
ATOM      3  C   LIG    1        0.090   0.443  -0.238  0.00  0.00    +0.234 C 
ATOM      4  O   LIG    1       -0.190  -0.287   0.719  0.00  0.00    -0.274 OA
ENDROOT
BRANCH   1  10
ATOM      5  C   LIG    1       -2.456   2.751   0.220  0.00  0.00    +0.118 A 
ATOM      6  S   LIG    1       -4.147   2.688   0.655  0.00  0.00    -0.088 S 
ATOM      7  C   LIG    1       -4.283   1.081   0.042  0.00  0.00    +0.051 A 
ATOM      8  C   LIG    1       -3.092   0.567  -0.453  0.00  0.00    -0.021 A 
ATOM      9  C   LIG    1       -2.982  -0.797  -1.106  0.00  0.00    +0.046 C 
ATOM     10  C   LIG    1       -2.054   1.528  -0.355  0.00  0.00    +0.058 A 
BRANCH   5  11
ATOM     11  C   LIG    1       -1.655   3.967   0.469  0.00  0.00    +0.347 C 
ATOM     12  O   LIG    1       -0.460   4.056   0.174  0.00  0.00    -0.244 OA
BRANCH  11  13
ATOM     13  O   LIG    1       -2.373   4.962   1.050  0.00  0.00    -0.464 OA
ATOM     14  C   LIG    1       -1.767   6.207   1.366  0.00  0.00    +0.280 C 
ENDBRANCH  11  13
ENDBRANCH   5  11
ENDBRANCH   1  10
BRANCH   3  15
ATOM     15  C   LIG    1        1.518   0.431  -0.831  0.00  0.00    +0.138 C 
ATOM     16  C   LIG    1        2.453   1.258   0.082  0.00  0.00    +0.034 C 
BRANCH  15  17
ATOM     17  N   LIG    1        1.896  -0.990  -1.025  0.00  0.00    -0.306 NA
ATOM     18  H   LIG    1        1.262  -1.379  -1.708  0.00  0.00    +0.123 HD
BRANCH  17  19
ATOM     19  C   LIG    1        3.220  -1.168  -1.609  0.00  0.00    +0.081 C 
BRANCH  19  20
ATOM     20  C   LIG    1        3.557  -2.664  -1.756  0.00  0.00    +0.012 C 
ATOM     21  C   LIG    1        3.643  -3.429  -0.425  0.00  0.00    +0.005 C 
ENDBRANCH  19  20
ENDBRANCH  17  19
ENDBRANCH  15  17
ENDBRANCH   3  15
TORSDOF 7
