REMARK  Name = DB09091
REMARK                            x       y       z     vdW  Elec       q    Type
REMARK                         _______ _______ _______ _____ _____    ______ ____
ROOT
ATOM      1  C   LIG    1       -4.691  -0.675   5.760  0.00  0.00    +0.080 C 
ATOM      2  C   LIG    1       -3.587  -1.746   5.671  0.00  0.00    +0.019 C 
ATOM      3  C   LIG    1       -3.424  -2.437   4.273  0.00  0.00    -0.005 C 
ATOM      4  C   LIG    1       -2.765  -3.825   4.537  0.00  0.00    +0.016 C 
ATOM      5  C   LIG    1       -2.640  -1.542   3.227  0.00  0.00    +0.031 C 
ATOM      6  C   LIG    1       -1.231  -1.009   3.688  0.00  0.00    +0.119 C 
ATOM      7  C   LIG    1       -0.534  -0.166   2.581  0.00  0.00    +0.041 C 
ATOM      8  C   LIG    1       -0.445  -0.881   1.197  0.00  0.00    +0.009 C 
ATOM      9  C   LIG    1        0.484  -2.144   1.275  0.00  0.00    +0.015 C 
ATOM     10  C   LIG    1       -0.070   0.037  -0.031  0.00  0.00    +0.130 C 
ATOM     11  C   LIG    1       -0.661  -0.743  -1.247  0.00  0.00    +0.043 C 
ATOM     12  C   LIG    1       -1.835  -1.582  -0.698  0.00  0.00    +0.008 C 
ATOM     13  C   LIG    1       -1.900  -1.234   0.797  0.00  0.00    +0.002 C 
ATOM     14  C   LIG    1       -2.597  -2.200   1.796  0.00  0.00    -0.001 C 
ATOM     15  C   LIG    1       -4.021  -2.571   1.309  0.00  0.00    +0.008 C 
ATOM     16  C   LIG    1       -4.811  -3.419   2.322  0.00  0.00    +0.032 C 
ATOM     17  C   LIG    1       -4.829  -2.661   3.647  0.00  0.00    -0.060 C 
ATOM     18  C   LIG    1       -5.970  -2.124   4.140  0.00  0.00    +0.046 C 
ATOM     19  C   LIG    1       -6.034  -1.251   5.301  0.00  0.00    +0.156 C 
ATOM     20  O   LIG    1       -7.104  -0.905   5.796  0.00  0.00    -0.293 OA
ENDROOT
BRANCH   6  21
ATOM     21  O   LIG    1       -0.362  -2.007   4.183  0.00  0.00    -0.391 OA
ATOM     22  H   LIG    1       -0.793  -2.447   4.919  0.00  0.00    +0.210 HD
ENDBRANCH   6  21
BRANCH  10  23
ATOM     23  O   LIG    1       -0.664   1.331   0.027  0.00  0.00    -0.380 OA
ATOM     24  H   LIG    1       -1.619   1.227   0.031  0.00  0.00    +0.211 HD
ENDBRANCH  10  23
BRANCH  10  25
ATOM     25  C   LIG    1        1.468   0.284  -0.159  0.00  0.00    +0.175 C 
ATOM     26  O   LIG    1        2.183  -0.441  -0.852  0.00  0.00    -0.293 OA
BRANCH  25  27
ATOM     27  C   LIG    1        2.112   1.444   0.612  0.00  0.00    +0.143 C 
BRANCH  27  28
ATOM     28  S   LIG    1        2.341   2.897  -0.448  0.00  0.00    -0.171 S 
ATOM     29  H   LIG    1        2.924   3.660   0.481  0.00  0.00    +0.102 HD
ENDBRANCH  27  28
ENDBRANCH  25  27
ENDBRANCH  10  25
TORSDOF 5
