REMARK  Name = DB09049
REMARK                            x       y       z     vdW  Elec       q    Type
REMARK                         _______ _______ _______ _____ _____    ______ ____
ROOT
ATOM      1  C   LIG    1        8.067   1.393   7.034  0.00  0.00    +0.160 C 
ATOM      2  C   LIG    1        9.047   0.311   7.625  0.00  0.00    +0.216 C 
ATOM      3  O   LIG    1        9.843  -0.239   6.544  0.00  0.00    -0.481 OA
ATOM      4  C   LIG    1        9.169  -1.360   6.108  0.00  0.00    +0.166 A 
ATOM      5  C   LIG    1        8.183  -1.713   6.993  0.00  0.00    +0.014 A 
ATOM      6  C   LIG    1        7.219  -2.680   6.712  0.00  0.00    -0.038 A 
ATOM      7  C   LIG    1        7.368  -3.378   5.503  0.00  0.00    +0.008 A 
ATOM      8  C   LIG    1        8.425  -3.084   4.621  0.00  0.00    +0.049 A 
ATOM      9  C   LIG    1        6.068  -2.876   7.705  0.00  0.00    +0.057 C 
ATOM     10  C   LIG    1        6.369  -2.223   9.097  0.00  0.00    +0.094 C 
ATOM     11  N   LIG    1        7.239  -3.124   9.906  0.00  0.00    -0.293 NA
ATOM     12  C   LIG    1        8.677  -3.130   9.553  0.00  0.00    +0.086 C 
ATOM     13  C   LIG    1        9.263  -1.732   9.237  0.00  0.00    +0.033 C 
ATOM     14  C   LIG    1        6.960  -0.761   8.949  0.00  0.00    +0.095 C 
ATOM     15  C   LIG    1        6.072   0.259   8.181  0.00  0.00    +0.040 C 
ATOM     16  C   LIG    1        9.333  -2.057   4.915  0.00  0.00    +0.159 A 
ATOM     17  C   LIG    1        8.351  -0.926   8.261  0.00  0.00    +0.070 C 
ATOM     18  C   LIG    1        6.805   1.595   7.894  0.00  0.00    +0.038 C 
ENDROOT
BRANCH  14  19
ATOM     19  O   LIG    1        7.159  -0.136  10.214  0.00  0.00    -0.386 OA
ATOM     20  H   LIG    1        6.307  -0.054  10.650  0.00  0.00    +0.210 HD
ENDBRANCH  14  19
BRANCH  16  21
ATOM     21  O   LIG    1       10.328  -1.716   4.038  0.00  0.00    -0.503 OA
ATOM     22  H   LIG    1       10.872  -0.993   4.361  0.00  0.00    +0.292 HD
ENDBRANCH  16  21
BRANCH   1  23
ATOM     23  O   LIG    1        7.598   0.991   5.745  0.00  0.00    -0.371 OA
BRANCH  23  24
ATOM     24  C   LIG    1        8.208   1.627   4.628  0.00  0.00    +0.188 C 
BRANCH  24  25
ATOM     25  C   LIG    1        7.631   1.019   3.343  0.00  0.00    +0.188 C 
BRANCH  25  26
ATOM     26  O   LIG    1        6.222   1.199   3.338  0.00  0.00    -0.375 OA
BRANCH  26  27
ATOM     27  C   LIG    1        5.569   0.628   2.214  0.00  0.00    +0.188 C 
BRANCH  27  28
ATOM     28  C   LIG    1        4.061   0.866   2.358  0.00  0.00    +0.188 C 
BRANCH  28  29
ATOM     29  O   LIG    1        3.388   0.356   1.215  0.00  0.00    -0.375 OA
BRANCH  29  30
ATOM     30  C   LIG    1        1.979   0.536   1.264  0.00  0.00    +0.188 C 
BRANCH  30  31
ATOM     31  C   LIG    1        1.352  -0.003  -0.035  0.00  0.00    +0.188 C 
BRANCH  31  32
ATOM     32  O   LIG    1       -0.073  -0.026   0.001  0.00  0.00    -0.375 OA
BRANCH  32  33
ATOM     33  C   LIG    1       -0.706   1.249  -0.002  0.00  0.00    +0.188 C 
BRANCH  33  34
ATOM     34  C   LIG    1       -2.223   1.060  -0.106  0.00  0.00    +0.188 C 
BRANCH  34  35
ATOM     35  O   LIG    1       -2.845   2.338  -0.082  0.00  0.00    -0.375 OA
BRANCH  35  36
ATOM     36  C   LIG    1       -4.263   2.289  -0.163  0.00  0.00    +0.188 C 
BRANCH  36  37
ATOM     37  C   LIG    1       -4.824   3.715  -0.085  0.00  0.00    +0.188 C 
BRANCH  37  38
ATOM     38  O   LIG    1       -4.444   4.305   1.152  0.00  0.00    -0.375 OA
BRANCH  38  39
ATOM     39  C   LIG    1       -4.901   5.640   1.315  0.00  0.00    +0.188 C 
BRANCH  39  40
ATOM     40  C   LIG    1       -4.419   6.171   2.670  0.00  0.00    +0.188 C 
BRANCH  40  41
ATOM     41  O   LIG    1       -4.860   7.513   2.825  0.00  0.00    -0.375 OA
BRANCH  41  42
ATOM     42  C   LIG    1       -4.461   8.108   4.053  0.00  0.00    +0.188 C 
BRANCH  42  43
ATOM     43  C   LIG    1       -4.986   9.548   4.121  0.00  0.00    +0.187 C 
BRANCH  43  45
ATOM     44  C   LIG    1       -6.979  10.841   4.106  0.00  0.00    +0.194 C 
ATOM     45  O   LIG    1       -6.406   9.543   4.058  0.00  0.00    -0.381 OA
ENDBRANCH  43  45
ENDBRANCH  42  43
ENDBRANCH  41  42
ENDBRANCH  40  41
ENDBRANCH  39  40
ENDBRANCH  38  39
ENDBRANCH  37  38
ENDBRANCH  36  37
ENDBRANCH  35  36
ENDBRANCH  34  35
ENDBRANCH  33  34
ENDBRANCH  32  33
ENDBRANCH  31  32
ENDBRANCH  30  31
ENDBRANCH  29  30
ENDBRANCH  28  29
ENDBRANCH  27  28
ENDBRANCH  26  27
ENDBRANCH  25  26
ENDBRANCH  24  25
ENDBRANCH  23  24
ENDBRANCH   1  23
BRANCH  11  46
ATOM     46  C   LIG    1        7.019  -3.018  11.352  0.00  0.00    +0.111 C 
BRANCH  46  47
ATOM     47  C   LIG    1        7.356  -4.278  12.126  0.00  0.00    -0.019 C 
ATOM     48  C   LIG    1        8.217  -4.331  13.154  0.00  0.00    +0.005 C 
ENDBRANCH  46  47
ENDBRANCH  11  46
TORSDOF 26
