REMARK  Name = DB09220
REMARK                            x       y       z     vdW  Elec       q    Type
REMARK                         _______ _______ _______ _____ _____    ______ ____
ROOT
ATOM      1  C   LIG    1       -0.619   2.193   0.974  0.00  0.00    +0.246 C 
ATOM      2  O   LIG    1       -0.218   1.931   2.110  0.00  0.00    -0.270 OA
ATOM      3  N   LIG    1       -0.553   1.311  -0.042  0.00  0.00    -0.308 N 
ATOM      4  H   LIG    1       -0.907   1.589  -0.946  0.00  0.00    +0.149 HD
ENDROOT
BRANCH   1   8
ATOM      5  C   LIG    1       -2.243   6.075   0.187  0.00  0.00    +0.111 A 
ATOM      6  N   LIG    1       -1.678   5.824   1.393  0.00  0.00    -0.263 NA
ATOM      7  C   LIG    1       -1.173   4.582   1.610  0.00  0.00    +0.123 A 
ATOM      8  C   LIG    1       -1.205   3.552   0.656  0.00  0.00    +0.055 A 
ATOM      9  C   LIG    1       -1.799   3.848  -0.585  0.00  0.00    +0.016 A 
ATOM     10  C   LIG    1       -2.323   5.120  -0.826  0.00  0.00    +0.020 A 
ENDBRANCH   1   8
BRANCH   3  11
ATOM     11  C   LIG    1        0.004  -0.039   0.046  0.00  0.00    +0.148 C 
BRANCH  11  12
ATOM     12  C   LIG    1        1.542  -0.072   0.074  0.00  0.00    +0.286 C 
BRANCH  12  13
ATOM     13  O   LIG    1        2.047   0.518  -1.129  0.00  0.00    -0.353 OA
BRANCH  13  14
ATOM     14  N   LIG    1        3.475   0.573  -1.212  0.00  0.00    +0.171 N 
ATOM     15  O   LIG    1        3.856   1.088  -2.235  0.00  0.00    -0.094 OA
BRANCH  14  16
ATOM     16  O   LIG    1        4.115   0.114  -0.291  0.00  0.00    -0.370 OA
ATOM     17  H   LIG    1        3.673  -0.258   0.446  0.00  0.00    +0.332 HD
ENDBRANCH  14  16
ENDBRANCH  13  14
ENDBRANCH  12  13
ENDBRANCH  11  12
ENDBRANCH   3  11
TORSDOF 6
