REMARK  Name = DB09270
REMARK                            x       y       z     vdW  Elec       q    Type
REMARK                         _______ _______ _______ _____ _____    ______ ____
ROOT
ATOM      1  C   LIG    1       -1.135   3.755  -0.034  0.00  0.00    -0.028 C 
ATOM      2  C   LIG    1       -1.740   2.547  -0.074  0.00  0.00    -0.076 C 
ATOM      3  C   LIG    1       -2.677   2.021   1.008  0.00  0.00    +0.039 C 
ENDROOT
BRANCH   1   4
ATOM      4  C   LIG    1       -1.284   4.832   1.031  0.00  0.00    +0.031 C 
BRANCH   4   5
ATOM      5  C   LIG    1       -0.152   4.884   2.075  0.00  0.00    +0.034 C 
BRANCH   5   7
ATOM      6  C   LIG    1        1.483   6.718   1.609  0.00  0.00    -0.028 C 
ATOM      7  C   LIG    1        1.187   5.402   1.558  0.00  0.00    -0.076 C 
ATOM      8  C   LIG    1        2.128   4.332   1.020  0.00  0.00    +0.039 C 
BRANCH   6   9
ATOM      9  C   LIG    1        2.772   7.404   1.188  0.00  0.00    +0.031 C 
BRANCH   9  10
ATOM     10  C   LIG    1        2.690   8.062  -0.205  0.00  0.00    +0.034 C 
BRANCH  10  12
ATOM     11  C   LIG    1        5.039   8.994   0.038  0.00  0.00    -0.028 C 
ATOM     12  C   LIG    1        3.884   8.902  -0.665  0.00  0.00    -0.076 C 
ATOM     13  C   LIG    1        3.619   9.623  -1.982  0.00  0.00    +0.039 C 
BRANCH  11  14
ATOM     14  C   LIG    1        6.277   9.835  -0.264  0.00  0.00    +0.031 C 
BRANCH  14  15
ATOM     15  C   LIG    1        6.651  10.801   0.886  0.00  0.00    +0.034 C 
BRANCH  15  17
ATOM     16  C   LIG    1        4.569  12.191   0.543  0.00  0.00    -0.023 C 
ATOM     17  C   LIG    1        5.573  11.785   1.353  0.00  0.00    -0.076 C 
ATOM     18  C   LIG    1        5.739  12.225   2.803  0.00  0.00    +0.039 C 
BRANCH  16  19
ATOM     19  C   LIG    1        3.370  13.068   0.870  0.00  0.00    +0.066 C 
BRANCH  19  28
ATOM     20  C   LIG    1        1.695  11.409   1.789  0.00  0.00    +0.228 C 
ATOM     21  O   LIG    1        2.383  11.251   2.801  0.00  0.00    -0.284 OA
ATOM     22  C   LIG    1        0.434  10.677   1.564  0.00  0.00    +0.213 C 
ATOM     23  C   LIG    1       -0.352  10.827   0.462  0.00  0.00    +0.213 C 
ATOM     24  C   LIG    1       -0.048  11.771  -0.629  0.00  0.00    +0.227 C 
ATOM     25  O   LIG    1       -0.797  11.931  -1.596  0.00  0.00    -0.284 OA
ATOM     26  C   LIG    1        1.240  12.493  -0.434  0.00  0.00    +0.007 C 
ATOM     27  C   LIG    1        1.627  13.361  -1.639  0.00  0.00    +0.048 C 
ATOM     28  C   LIG    1        2.037  12.329   0.666  0.00  0.00    +0.013 C 
BRANCH  22  29
ATOM     29  O   LIG    1        0.111   9.838   2.579  0.00  0.00    -0.488 OA
ATOM     30  C   LIG    1       -0.816  10.369   3.520  0.00  0.00    +0.277 C 
ENDBRANCH  22  29
BRANCH  23  31
ATOM     31  O   LIG    1       -1.503  10.133   0.228  0.00  0.00    -0.488 OA
ATOM     32  C   LIG    1       -1.502   8.727   0.468  0.00  0.00    +0.277 C 
ENDBRANCH  23  31
ENDBRANCH  19  28
ENDBRANCH  16  19
ENDBRANCH  15  17
ENDBRANCH  14  15
ENDBRANCH  11  14
ENDBRANCH  10  12
ENDBRANCH   9  10
ENDBRANCH   6   9
ENDBRANCH   5   7
ENDBRANCH   4   5
ENDBRANCH   1   4
BRANCH   2  33
ATOM     33  C   LIG    1       -1.533   1.601  -1.254  0.00  0.00    +0.034 C 
BRANCH  33  34
ATOM     34  C   LIG    1       -0.673   0.356  -0.960  0.00  0.00    +0.031 C 
BRANCH  34  35
ATOM     35  C   LIG    1        0.814   0.642  -0.810  0.00  0.00    -0.028 C 
ATOM     36  C   LIG    1        1.553   0.640   0.320  0.00  0.00    -0.076 C 
ATOM     37  C   LIG    1        0.993   0.409   1.718  0.00  0.00    +0.039 C 
BRANCH  36  38
ATOM     38  C   LIG    1        3.052   0.911   0.275  0.00  0.00    +0.034 C 
BRANCH  38  39
ATOM     39  C   LIG    1        3.918  -0.353   0.413  0.00  0.00    +0.031 C 
BRANCH  39  40
ATOM     40  C   LIG    1        5.410  -0.065   0.331  0.00  0.00    -0.028 C 
ATOM     41  C   LIG    1        6.378  -0.349   1.231  0.00  0.00    -0.076 C 
ATOM     42  C   LIG    1        6.154  -1.032   2.575  0.00  0.00    +0.039 C 
BRANCH  41  43
ATOM     43  C   LIG    1        7.835   0.016   0.947  0.00  0.00    +0.034 C 
BRANCH  43  44
ATOM     44  C   LIG    1        8.699  -1.154   0.434  0.00  0.00    +0.031 C 
BRANCH  44  45
ATOM     45  C   LIG    1        8.116  -1.823  -0.802  0.00  0.00    -0.028 C 
ATOM     46  C   LIG    1        8.439  -1.613  -2.099  0.00  0.00    -0.076 C 
ATOM     47  C   LIG    1        9.516  -0.637  -2.556  0.00  0.00    +0.039 C 
BRANCH  46  48
ATOM     48  C   LIG    1        7.722  -2.310  -3.259  0.00  0.00    +0.034 C 
BRANCH  48  49
ATOM     49  C   LIG    1        6.490  -3.171  -2.906  0.00  0.00    +0.031 C 
BRANCH  49  50
ATOM     50  C   LIG    1        5.628  -3.536  -4.101  0.00  0.00    -0.028 C 
ATOM     51  C   LIG    1        5.481  -4.744  -4.693  0.00  0.00    -0.076 C 
ATOM     52  C   LIG    1        6.265  -5.985  -4.287  0.00  0.00    +0.039 C 
BRANCH  51  53
ATOM     53  C   LIG    1        4.500  -4.994  -5.845  0.00  0.00    +0.034 C 
BRANCH  53  54
ATOM     54  C   LIG    1        3.455  -3.899  -6.166  0.00  0.00    +0.031 C 
BRANCH  54  55
ATOM     55  C   LIG    1        2.499  -3.605  -5.014  0.00  0.00    -0.028 C 
ATOM     56  C   LIG    1        2.183  -2.406  -4.467  0.00  0.00    -0.076 C 
ATOM     57  C   LIG    1        2.713  -1.068  -4.970  0.00  0.00    +0.039 C 
BRANCH  56  58
ATOM     58  C   LIG    1        1.249  -2.252  -3.264  0.00  0.00    +0.034 C 
BRANCH  58  59
ATOM     59  C   LIG    1        0.762  -3.537  -2.566  0.00  0.00    +0.031 C 
BRANCH  59  60
ATOM     60  C   LIG    1       -0.131  -3.270  -1.365  0.00  0.00    -0.028 C 
ATOM     61  C   LIG    1        0.221  -3.278  -0.061  0.00  0.00    -0.080 C 
ATOM     62  C   LIG    1        1.636  -3.514   0.449  0.00  0.00    +0.038 C 
ATOM     63  C   LIG    1       -0.802  -3.027   1.033  0.00  0.00    +0.038 C 
ENDBRANCH  59  60
ENDBRANCH  58  59
ENDBRANCH  56  58
ENDBRANCH  54  55
ENDBRANCH  53  54
ENDBRANCH  51  53
ENDBRANCH  49  50
ENDBRANCH  48  49
ENDBRANCH  46  48
ENDBRANCH  44  45
ENDBRANCH  43  44
ENDBRANCH  41  43
ENDBRANCH  39  40
ENDBRANCH  38  39
ENDBRANCH  36  38
ENDBRANCH  34  35
ENDBRANCH  33  34
ENDBRANCH   2  33
TORSDOF 31
