REMARK  Name = DB09050
REMARK                            x       y       z     vdW  Elec       q    Type
REMARK                         _______ _______ _______ _____ _____    ______ ____
ROOT
ATOM      1  CA  LIG    1        1.480   0.173   0.519  0.00  0.00    +0.191 C 
ATOM      2  C   LIG    1        2.095  -0.104  -0.897  0.00  0.00    +0.244 C 
ATOM      3  O   LIG    1        2.124   0.494  -1.972  0.00  0.00    -0.273 OA
ATOM      4  N   LIG    1        2.557  -1.348  -0.465  0.00  0.00    -0.249 N 
ATOM      5  CA  LIG    1        3.075  -2.493  -1.002  0.00  0.00    +0.123 C 
ATOM      6  C   LIG    1        3.159  -3.668  -0.307  0.00  0.00    -0.016 C 
ATOM      7  C   LIG    1        2.627  -3.801   1.133  0.00  0.00    +0.105 C 
ATOM      8  S   LIG    1        1.297  -2.607   1.536  0.00  0.00    -0.131 S 
ATOM      9  C   LIG    1        2.198  -1.139   0.952  0.00  0.00    +0.169 C 
ENDROOT
BRANCH   1  11
ATOM     10  C   LIG    1       -0.965  -0.247  -0.164  0.00  0.00    +0.270 C 
ATOM     11  N   LIG    1        0.008   0.203   0.658  0.00  0.00    -0.296 N 
ATOM     12  H   LIG    1       -0.309   0.603   1.530  0.00  0.00    +0.150 HD
ATOM     13  O   LIG    1       -0.786  -0.802  -1.248  0.00  0.00    -0.268 OA
BRANCH  10  15
ATOM     14  N   LIG    1       -2.954   1.065   0.060  0.00  0.00    -0.075 NA
ATOM     15  C   LIG    1       -2.313  -0.012   0.369  0.00  0.00    +0.208 C 
BRANCH  15  16
ATOM     16  C   LIG    1       -2.920  -1.023   1.278  0.00  0.00    +0.197 A 
ATOM     17  N   LIG    1       -2.275  -2.144   1.585  0.00  0.00    -0.185 NA
ATOM     18  S   LIG    1       -3.282  -3.037   2.641  0.00  0.00    +0.049 S 
ATOM     19  C   LIG    1       -4.475  -1.799   2.554  0.00  0.00    +0.176 A 
ATOM     20  N   LIG    1       -4.126  -0.805   1.790  0.00  0.00    -0.202 NA
BRANCH  19  21
ATOM     21  N   LIG    1       -5.651  -1.902   3.237  0.00  0.00    -0.336 N 
ATOM     22  H   LIG    1       -5.862  -2.702   3.815  0.00  0.00    +0.144 HD
ATOM     23  H   LIG    1       -6.353  -1.177   3.188  0.00  0.00    +0.144 HD
ENDBRANCH  19  21
ENDBRANCH  15  16
BRANCH  14  24
ATOM     24  O   LIG    1       -2.268   1.963  -0.812  0.00  0.00    -0.376 OA
BRANCH  24  26
ATOM     25  C   LIG    1       -4.332   3.027  -1.612  0.00  0.00    +0.070 C 
ATOM     26  C   LIG    1       -2.939   3.230  -0.955  0.00  0.00    +0.228 C 
ATOM     27  C   LIG    1       -2.019   3.999  -1.929  0.00  0.00    +0.070 C 
BRANCH  26  28
ATOM     28  C   LIG    1       -3.002   4.005   0.393  0.00  0.00    +0.351 C 
ATOM     29  O   LIG    1       -2.349   3.691   1.389  0.00  0.00    -0.246 OA
BRANCH  28  30
ATOM     30  O   LIG    1       -3.838   5.083   0.337  0.00  0.00    -0.478 OA
ATOM     31  H   LIG    1       -3.869   5.564   1.167  0.00  0.00    +0.295 HD
ENDBRANCH  28  30
ENDBRANCH  26  28
ENDBRANCH  24  26
ENDBRANCH  14  24
ENDBRANCH  10  15
ENDBRANCH   1  11
BRANCH   5  32
ATOM     32  C   LIG    1        3.613  -2.403  -2.464  0.00  0.00    +0.351 C 
ATOM     33  O   LIG    1        2.810  -2.786  -3.346  0.00  0.00    -0.244 OA
BRANCH  32  34
ATOM     34  OXT LIG    1        4.788  -1.980  -2.565  0.00  0.00    -0.476 OA
ATOM     35  HXT LIG    1        5.263  -1.729  -1.797  0.00  0.00    +0.295 HD
ENDBRANCH  32  34
ENDBRANCH   5  32
BRANCH   6  36
ATOM     36  C   LIG    1        3.766  -4.955  -0.882  0.00  0.00    +0.136 C 
BRANCH  36  37
ATOM     37  N   LIG    1        5.231  -4.923  -0.960  0.00  0.00    -0.228 NA
ATOM     38  N   LIG    1        5.968  -5.430  -1.984  0.00  0.00    -0.218 NA
ATOM     39  C   LIG    1        5.374  -6.069  -3.160  0.00  0.00    +0.126 C 
ATOM     40  C   LIG    1        7.310  -5.172  -1.724  0.00  0.00    +0.144 C 
ATOM     41  C   LIG    1        7.426  -4.514  -0.493  0.00  0.00    +0.116 C 
ATOM     42  C   LIG    1        6.109  -4.389  -0.040  0.00  0.00    +0.123 C 
BRANCH  41  43
ATOM     43  N   LIG    1        8.614  -4.084   0.082  0.00  0.00    -0.287 N 
ATOM     44  H   LIG    1        9.440  -4.170  -0.491  0.00  0.00    +0.151 HD
ATOM     45  C   LIG    1        8.745  -3.508   1.294  0.00  0.00    +0.300 C 
ATOM     46  N   LIG    1       10.003  -3.076   1.486  0.00  0.00    -0.298 N 
ATOM     47  H   LIG    1       10.713  -3.350   0.823  0.00  0.00    +0.150 HD
ATOM     48  O   LIG    1        7.839  -3.354   2.115  0.00  0.00    -0.253 OA
BRANCH  46  49
ATOM     49  C   LIG    1       10.454  -2.245   2.606  0.00  0.00    +0.120 C 
BRANCH  49  50
ATOM     50  C   LIG    1       10.343  -0.726   2.361  0.00  0.00    +0.096 C 
BRANCH  50  51
ATOM     51  N   LIG    1        8.965  -0.285   2.237  0.00  0.00    -0.329 NA
ATOM     52  H   LIG    1        8.451  -0.541   3.068  0.00  0.00    +0.118 HD
ATOM     53  H   LIG    1        8.521  -0.767   1.468  0.00  0.00    +0.118 HD
ENDBRANCH  50  51
ENDBRANCH  49  50
ENDBRANCH  46  49
ENDBRANCH  41  43
BRANCH  40  54
ATOM     54  N   LIG    1        8.285  -5.544  -2.611  0.00  0.00    -0.307 NA
ATOM     55  H   LIG    1        8.062  -6.001  -3.484  0.00  0.00    +0.120 HD
ATOM     56  H   LIG    1        9.261  -5.355  -2.437  0.00  0.00    +0.120 HD
ENDBRANCH  40  54
ENDBRANCH  36  37
ENDBRANCH   6  36
TORSDOF 17
