REMARK  Name = DB09241
REMARK                            x       y       z     vdW  Elec       q    Type
REMARK                         _______ _______ _______ _____ _____    ______ ____
ROOT
ATOM      1  C   LIG    1       -1.935  -1.245   0.000  0.00  0.00    +0.040 A 
ATOM      2  C   LIG    1       -0.530  -1.080   0.000  0.00  0.00    +0.040 A 
ATOM      3  C   LIG    1        0.031   0.202   0.000  0.00  0.00    +0.030 A 
ATOM      4  C   LIG    1       -0.803   1.319   0.000  0.00  0.00    +0.025 A 
ATOM      5  C   LIG    1       -2.189   1.178   0.000  0.00  0.00    +0.031 A 
ATOM      6  S   LIG    1       -2.590  -2.886   0.000  0.00  0.00    -0.085 S 
ATOM      7  C   LIG    1       -4.334  -2.610   0.000  0.00  0.00    +0.040 A 
ATOM      8  C   LIG    1       -4.878  -1.300   0.000  0.00  0.00    +0.078 A 
ATOM      9  C   LIG    1       -6.288  -1.154   0.000  0.00  0.00    +0.031 A 
ATOM     10  C   LIG    1       -7.117  -2.273   0.000  0.00  0.00    +0.025 A 
ATOM     11  C   LIG    1       -6.583  -3.561   0.000  0.00  0.00    +0.030 A 
ATOM     12  N   LIG    1       -4.137  -0.165   0.000  0.00  0.00    -0.246 NA
ATOM     13  C   LIG    1       -5.194  -3.733   0.000  0.00  0.00    +0.040 A 
ATOM     14  C   LIG    1       -2.783  -0.108   0.000  0.00  0.00    +0.078 A 
ENDROOT
BRANCH   3  15
ATOM     15  N   LIG    1        1.424   0.400   0.000  0.00  0.00    -0.336 N 
ATOM     16  C   LIG    1        2.072  -0.048   1.229  0.00  0.00    +0.129 C 
ATOM     17  C   LIG    1        2.072  -0.047  -1.229  0.00  0.00    +0.129 C 
ENDBRANCH   3  15
BRANCH  11  18
ATOM     18  N   LIG    1       -7.464  -4.657   0.000  0.00  0.00    -0.336 N 
ATOM     19  C   LIG    1       -7.410  -5.443  -1.229  0.00  0.00    +0.129 C 
ATOM     20  C   LIG    1       -7.410  -5.443   1.229  0.00  0.00    +0.129 C 
ENDBRANCH  11  18
TORSDOF 2
