REMARK  Name = DB09292
REMARK                            x       y       z     vdW  Elec       q    Type
REMARK                         _______ _______ _______ _____ _____    ______ ____
ROOT
ATOM      1  C   LIG    1        1.240   0.071  -0.017  0.00  0.00    +0.078 C 
ENDROOT
BRANCH   1   2
ATOM      2  N   LIG    1        1.830   0.792  -1.150  0.00  0.00    -0.312 N 
ATOM      3  H   LIG    1        1.236   0.908  -1.957  0.00  0.00    +0.149 HD
ATOM      4  C   LIG    1        3.061   1.333  -1.179  0.00  0.00    +0.214 C 
ATOM      5  O   LIG    1        3.848   1.278  -0.233  0.00  0.00    -0.276 OA
BRANCH   4   6
ATOM      6  C   LIG    1        3.473   2.039  -2.479  0.00  0.00    +0.107 C 
BRANCH   6   7
ATOM      7  C   LIG    1        3.884   3.507  -2.227  0.00  0.00    +0.129 C 
BRANCH   7   8
ATOM      8  C   LIG    1        4.321   4.200  -3.522  0.00  0.00    +0.305 C 
ATOM      9  O   LIG    1        5.490   4.480  -3.775  0.00  0.00    -0.251 OA
BRANCH   8  10
ATOM     10  O   LIG    1        3.261   4.463  -4.340  0.00  0.00    -0.481 OA
ATOM     11  H   LIG    1        3.529   4.897  -5.153  0.00  0.00    +0.295 HD
ENDBRANCH   8  10
ENDBRANCH   7   8
ENDBRANCH   6   7
ENDBRANCH   4   6
ENDBRANCH   1   2
BRANCH   1  12
ATOM     12  C   LIG    1       -0.308   0.207  -0.018  0.00  0.00    +0.037 C 
BRANCH  12  13
ATOM     13  C   LIG    1       -0.877   1.650  -0.114  0.00  0.00    +0.096 C 
ATOM     14  C   LIG    1       -2.415   1.635  -0.243  0.00  0.00    +0.019 C 
BRANCH  13  15
ATOM     15  C   LIG    1       -0.411   2.538   1.058  0.00  0.00    +0.310 C 
ATOM     16  O   LIG    1       -1.018   2.575   2.131  0.00  0.00    -0.251 OA
BRANCH  15  17
ATOM     17  O   LIG    1        0.700   3.244   0.754  0.00  0.00    -0.465 OA
BRANCH  17  19
ATOM     18  C   LIG    1        2.565   4.727   1.120  0.00  0.00    +0.048 C 
ATOM     19  C   LIG    1        1.294   4.110   1.711  0.00  0.00    +0.229 C 
ENDBRANCH  17  19
ENDBRANCH  15  17
ENDBRANCH  13  15
ENDBRANCH  12  13
ENDBRANCH   1  12
BRANCH   1  20
ATOM     20  C   LIG    1        1.705  -1.408  -0.002  0.00  0.00    +0.057 C 
BRANCH  20  21
ATOM     21  C   LIG    1        1.310  -2.171   1.256  0.00  0.00    -0.046 A 
ATOM     22  C   LIG    1        2.031  -1.991   2.436  0.00  0.00    +0.004 A 
ATOM     23  C   LIG    1        1.668  -2.687   3.585  0.00  0.00    +0.009 A 
ATOM     24  C   LIG    1        0.581  -3.572   3.577  0.00  0.00    -0.018 A 
ATOM     25  C   LIG    1       -0.133  -3.742   2.382  0.00  0.00    +0.009 A 
ATOM     26  C   LIG    1        0.227  -3.050   1.230  0.00  0.00    +0.004 A 
BRANCH  24  27
ATOM     27  C   LIG    1        0.191  -4.318   4.814  0.00  0.00    -0.018 A 
ATOM     28  C   LIG    1       -1.155  -4.613   5.078  0.00  0.00    +0.008 A 
ATOM     29  C   LIG    1       -1.521  -5.306   6.229  0.00  0.00    +0.001 A 
ATOM     30  C   LIG    1       -0.541  -5.714   7.129  0.00  0.00    +0.000 A 
ATOM     31  C   LIG    1        0.799  -5.432   6.887  0.00  0.00    +0.001 A 
ATOM     32  C   LIG    1        1.162  -4.737   5.736  0.00  0.00    +0.008 A 
ENDBRANCH  24  27
ENDBRANCH  20  21
ENDBRANCH   1  20
TORSDOF 13
