REMARK  Name = DB09184
REMARK                            x       y       z     vdW  Elec       q    Type
REMARK                         _______ _______ _______ _____ _____    ______ ____
ROOT
ATOM      1  C   LIG    1       -0.018  -0.130   0.080  0.00  0.00    +0.097 C 
ENDROOT
BRANCH   1   2
ATOM      2  C   LIG    1       -0.362  -1.117   1.252  0.00  0.00    +0.133 C 
ATOM      3  C   LIG    1        0.199  -2.553   1.072  0.00  0.00    -0.048 C 
ATOM      4  N   LIG    1       -0.165  -3.391   2.310  0.00  0.00    +0.382 N 
ATOM      5  H   LIG    1        0.321  -3.012   3.111  0.00  0.00    -0.086 HD
ATOM      6  H   LIG    1        0.155  -4.342   2.189  0.00  0.00    -0.086 HD
ATOM      7  C   LIG    1       -1.678  -3.381   2.589  0.00  0.00    -0.054 C 
ATOM      8  C   LIG    1       -2.193  -1.927   2.585  0.00  0.00    +0.141 C 
ATOM      9  O   LIG    1       -1.782  -1.248   1.400  0.00  0.00    -0.377 OA
ENDBRANCH   1   2
BRANCH   1  10
ATOM     10  C   LIG    1       -0.572  -0.598  -1.328  0.00  0.00    +0.028 C 
ATOM     11  C   LIG    1       -0.991   0.551  -2.292  0.00  0.00    +0.034 C 
ATOM     12  C   LIG    1       -1.564   0.009  -3.617  0.00  0.00    +0.160 C 
ATOM     13  O   LIG    1       -0.617  -0.853  -4.244  0.00  0.00    -0.380 OA
ATOM     14  C   LIG    1       -0.262  -1.989  -3.458  0.00  0.00    +0.160 C 
ATOM     15  C   LIG    1        0.384  -1.522  -2.139  0.00  0.00    +0.034 C 
ENDBRANCH   1  10
BRANCH   1  16
ATOM     16  O   LIG    1       -0.703   1.062   0.454  0.00  0.00    -0.385 OA
ATOM     17  H   LIG    1       -0.553   1.724  -0.225  0.00  0.00    +0.210 HD
ENDBRANCH   1  16
BRANCH   1  18
ATOM     18  C   LIG    1        1.503   0.252   0.030  0.00  0.00    +0.076 C 
BRANCH  18  24
ATOM     19  F   LIG    1        2.480   4.527   2.220  0.00  0.00    -0.205 F 
ATOM     20  C   LIG    1        2.534   3.177   2.258  0.00  0.00    +0.124 A 
ATOM     21  C   LIG    1        3.093   2.533   3.358  0.00  0.00    +0.042 A 
ATOM     22  C   LIG    1        3.152   1.141   3.394  0.00  0.00    +0.049 A 
ATOM     23  C   LIG    1        2.649   0.370   2.330  0.00  0.00    +0.124 A 
ATOM     24  C   LIG    1        2.074   1.028   1.227  0.00  0.00    -0.000 A 
ATOM     25  C   LIG    1        2.032   2.427   1.198  0.00  0.00    +0.045 A 
BRANCH  23  26
ATOM     26  O   LIG    1        2.697  -1.013   2.307  0.00  0.00    -0.495 OA
ATOM     27  C   LIG    1        3.265  -1.716   3.406  0.00  0.00    +0.277 C 
ENDBRANCH  23  26
ENDBRANCH  18  24
ENDBRANCH   1  18
TORSDOF 6
