REMARK  Name = DB09056
REMARK                            x       y       z     vdW  Elec       q    Type
REMARK                         _______ _______ _______ _____ _____    ______ ____
ROOT
ATOM      1  C   LIG    1        0.157   0.060   0.547  0.00  0.00    +0.039 C 
ENDROOT
BRANCH   1   5
ATOM      2  C   LIG    1       -1.504   4.008  -0.112  0.00  0.00    -0.042 A 
ATOM      3  C   LIG    1       -0.826   3.701   1.078  0.00  0.00    +0.004 A 
ATOM      4  C   LIG    1       -0.301   2.431   1.294  0.00  0.00    +0.004 A 
ATOM      5  C   LIG    1       -0.447   1.442   0.322  0.00  0.00    -0.047 A 
ATOM      6  C   LIG    1       -1.131   1.726  -0.860  0.00  0.00    +0.004 A 
ATOM      7  C   LIG    1       -1.653   2.998  -1.076  0.00  0.00    +0.004 A 
BRANCH   2   8
ATOM      8  C   LIG    1       -2.047   5.447  -0.328  0.00  0.00    -0.010 C 
ATOM      9  C   LIG    1       -2.724   5.644  -1.714  0.00  0.00    +0.016 C 
ATOM     10  C   LIG    1       -3.126   5.742   0.746  0.00  0.00    +0.016 C 
BRANCH   8  12
ATOM     11  C   LIG    1        0.302   6.321  -1.130  0.00  0.00    +0.005 C 
ATOM     12  C   LIG    1       -0.900   6.497  -0.181  0.00  0.00    +0.007 C 
ENDBRANCH   8  12
ENDBRANCH   2   8
ENDBRANCH   1   5
BRANCH   1  13
ATOM     13  C   LIG    1        1.685  -0.001   0.301  0.00  0.00    +0.004 C 
ATOM     14  C   LIG    1        2.242  -1.380   0.713  0.00  0.00    +0.009 C 
BRANCH  13  15
ATOM     15  C   LIG    1        2.042   0.371  -1.166  0.00  0.00    +0.088 C 
BRANCH  15  16
ATOM     16  N   LIG    1        3.477   0.341  -1.475  0.00  0.00    -0.297 NA
ATOM     17  C   LIG    1        3.711   0.458  -2.914  0.00  0.00    +0.115 C 
ATOM     18  C   LIG    1        5.216   0.261  -3.164  0.00  0.00    +0.130 C 
ATOM     19  O   LIG    1        5.920   1.373  -2.628  0.00  0.00    -0.371 OA
ATOM     20  C   LIG    1        5.660   1.678  -1.255  0.00  0.00    +0.130 C 
ATOM     21  C   LIG    1        6.198   3.053  -0.840  0.00  0.00    +0.039 C 
ATOM     22  C   LIG    1        5.549   0.178  -4.659  0.00  0.00    +0.039 C 
ATOM     23  C   LIG    1        4.252   1.318  -0.692  0.00  0.00    +0.115 C 
ENDBRANCH  15  16
ENDBRANCH  13  15
ENDBRANCH   1  13
TORSDOF 6
