REMARK  Name = DB09403
REMARK                            x       y       z     vdW  Elec       q    Type
REMARK                         _______ _______ _______ _____ _____    ______ ____
ROOT
ATOM      1  C   LIG    1       -0.557   1.090   0.090  0.00  0.00    +0.064 A 
ATOM      2  C   LIG    1       -1.062   1.351  -1.199  0.00  0.00    +0.037 A 
ATOM      3  I   LIG    1       -1.224  -0.111  -2.699  0.00  0.00    -0.042 I 
ATOM      4  C   LIG    1       -1.497   2.632  -1.525  0.00  0.00    +0.032 A 
ATOM      5  C   LIG    1       -1.448   3.663  -0.591  0.00  0.00    +0.036 A 
ATOM      6  I   LIG    1       -2.128   5.558  -1.183  0.00  0.00    -0.042 I 
ATOM      7  C   LIG    1       -0.961   3.414   0.699  0.00  0.00    +0.053 A 
ATOM      8  C   LIG    1       -0.517   2.127   1.046  0.00  0.00    +0.057 A 
ATOM      9  I   LIG    1        0.183   1.755   3.001  0.00  0.00    -0.040 I 
ENDROOT
BRANCH   1  10
ATOM     10  N   LIG    1       -0.096  -0.196   0.450  0.00  0.00    -0.269 N 
ATOM     11  C   LIG    1       -0.961  -1.214   0.723  0.00  0.00    +0.217 C 
ATOM     12  C   LIG    1       -2.456  -0.915   0.904  0.00  0.00    +0.109 C 
ATOM     13  O   LIG    1       -0.594  -2.382   0.867  0.00  0.00    -0.276 OA
BRANCH  10  14
ATOM     14  C   LIG    1        1.362  -0.444   0.420  0.00  0.00    +0.128 C 
BRANCH  14  15
ATOM     15  C   LIG    1        1.981  -0.783  -0.964  0.00  0.00    +0.112 C 
ATOM     16  C   LIG    1        2.384   0.475  -1.763  0.00  0.00    +0.021 C 
BRANCH  15  17
ATOM     17  C   LIG    1        3.166  -1.761  -0.845  0.00  0.00    +0.309 C 
ATOM     18  O   LIG    1        3.860  -1.880   0.164  0.00  0.00    -0.251 OA
BRANCH  17  19
ATOM     19  O   LIG    1        3.361  -2.460  -2.001  0.00  0.00    -0.480 OA
ATOM     20  H   LIG    1        4.100  -3.069  -1.939  0.00  0.00    +0.295 HD
ENDBRANCH  17  19
ENDBRANCH  15  17
ENDBRANCH  14  15
ENDBRANCH  10  14
ENDBRANCH   1  10
BRANCH   7  21
ATOM     21  N   LIG    1       -0.925   4.451   1.635  0.00  0.00    -0.356 N 
ATOM     22  H   LIG    1       -0.780   4.169   2.594  0.00  0.00    +0.142 HD
ATOM     23  H   LIG    1       -1.552   5.222   1.457  0.00  0.00    +0.142 HD
ENDBRANCH   7  21
TORSDOF 6
