REMARK  Name = DB09124
REMARK                            x       y       z     vdW  Elec       q    Type
REMARK                         _______ _______ _______ _____ _____    ______ ____
ROOT
ATOM      1  C   LIG    1        0.454   2.325   1.063  0.00  0.00    +0.012 C 
ATOM      2  C   LIG    1       -0.462   1.505   0.079  0.00  0.00    -0.017 C 
ATOM      3  C   LIG    1       -0.598   2.279  -1.266  0.00  0.00    +0.008 C 
ATOM      4  C   LIG    1       -1.292   3.654  -1.075  0.00  0.00    +0.005 C 
ATOM      5  C   LIG    1       -2.692   3.512  -0.400  0.00  0.00    +0.006 C 
ATOM      6  C   LIG    1       -3.520   4.833  -0.233  0.00  0.00    -0.003 C 
ATOM      7  C   LIG    1       -3.638   5.593  -1.593  0.00  0.00    +0.019 C 
ATOM      8  C   LIG    1       -4.715   6.694  -1.615  0.00  0.00    +0.080 C 
ATOM      9  C   LIG    1       -6.073   6.157  -1.156  0.00  0.00    +0.156 C 
ATOM     10  O   LIG    1       -7.130   6.665  -1.524  0.00  0.00    -0.293 OA
ATOM     11  C   LIG    1       -6.050   5.071  -0.183  0.00  0.00    +0.050 C 
ATOM     12  C   LIG    1       -4.939   4.421   0.258  0.00  0.00    -0.035 C 
ATOM     13  C   LIG    1       -5.065   3.318   1.233  0.00  0.00    -0.050 C 
ATOM     14  C   LIG    1       -6.381   3.029   1.951  0.00  0.00    +0.044 C 
ATOM     15  C   LIG    1       -3.997   2.547   1.539  0.00  0.00    -0.019 C 
ATOM     16  C   LIG    1       -2.887   5.775   0.830  0.00  0.00    +0.016 C 
ATOM     17  C   LIG    1       -2.608   2.677   0.924  0.00  0.00    +0.020 C 
ATOM     18  C   LIG    1       -0.018  -0.015  -0.004  0.00  0.00    +0.032 C 
ATOM     19  C   LIG    1       -0.546  -0.577   1.356  0.00  0.00    +0.015 C 
ATOM     20  C   LIG    1       -1.759   0.288   1.761  0.00  0.00    +0.005 C 
ATOM     21  C   LIG    1       -0.632  -0.817  -1.195  0.00  0.00    +0.019 C 
ATOM     22  C   LIG    1       -1.904   1.324   0.637  0.00  0.00    +0.003 C 
ENDROOT
BRANCH  18  23
ATOM     23  C   LIG    1        1.522  -0.219  -0.155  0.00  0.00    +0.137 C 
ATOM     24  O   LIG    1        2.218   0.573  -0.790  0.00  0.00    -0.297 OA
ATOM     25  C   LIG    1        2.174  -1.448   0.482  0.00  0.00    +0.086 C 
ENDBRANCH  18  23
TORSDOF 1
