REMARK  Name = DB09372
REMARK                            x       y       z     vdW  Elec       q    Type
REMARK                         _______ _______ _______ _____ _____    ______ ____
ROOT
ATOM      1  C   LIG    1       -2.367   1.063  -2.017  0.00  0.00    +0.289 C 
ATOM      2  C   LIG    1       -1.909  -0.422  -2.074  0.00  0.00    +0.266 C 
ATOM      3  C   LIG    1       -0.383  -0.595  -1.830  0.00  0.00    +0.253 C 
ATOM      4  C   LIG    1        0.048   0.221  -0.591  0.00  0.00    +0.204 C 
ATOM      5  O   LIG    1       -0.309   1.591  -0.822  0.00  0.00    -0.328 OA
ATOM      6  C   LIG    1       -1.700   1.820  -0.846  0.00  0.00    +0.356 C 
ENDROOT
BRANCH   6   7
ATOM      7  O   LIG    1       -2.325   1.450   0.364  0.00  0.00    -0.428 OA
BRANCH   7   8
ATOM      8  C   LIG    1       -2.027   2.178   1.482  0.00  0.00    +0.342 C 
ATOM      9  O   LIG    1       -1.343   3.207   1.490  0.00  0.00    -0.245 OA
BRANCH   8  10
ATOM     10  C   LIG    1       -2.474   1.486   2.727  0.00  0.00    +0.066 A 
ATOM     11  C   LIG    1       -3.542   0.577   2.738  0.00  0.00    +0.064 A 
ATOM     12  C   LIG    1       -3.893  -0.093   3.911  0.00  0.00    +0.163 A 
ATOM     13  C   LIG    1       -3.176   0.134   5.094  0.00  0.00    +0.202 A 
ATOM     14  C   LIG    1       -2.100   1.032   5.090  0.00  0.00    +0.178 A 
ATOM     15  C   LIG    1       -1.782   1.724   3.919  0.00  0.00    +0.065 A 
BRANCH  12  16
ATOM     16  O   LIG    1       -4.933  -0.987   3.879  0.00  0.00    -0.503 OA
ATOM     17  H   LIG    1       -5.098  -1.390   4.735  0.00  0.00    +0.292 HD
ENDBRANCH  12  16
BRANCH  13  18
ATOM     18  O   LIG    1       -3.515  -0.532   6.247  0.00  0.00    -0.501 OA
ATOM     19  H   LIG    1       -2.955  -0.299   6.991  0.00  0.00    +0.292 HD
ENDBRANCH  13  18
BRANCH  14  20
ATOM     20  O   LIG    1       -1.336   1.243   6.220  0.00  0.00    -0.418 OA
BRANCH  20  21
ATOM     21  C   LIG    1       -0.117   0.619   6.330  0.00  0.00    +0.345 C 
ATOM     22  O   LIG    1        0.294  -0.236   5.537  0.00  0.00    -0.245 OA
BRANCH  21  23
ATOM     23  C   LIG    1        0.672   1.067   7.524  0.00  0.00    +0.067 A 
ATOM     24  C   LIG    1        0.269   2.148   8.325  0.00  0.00    +0.064 A 
ATOM     25  C   LIG    1        1.044   2.565   9.409  0.00  0.00    +0.163 A 
ATOM     26  C   LIG    1        2.240   1.901   9.712  0.00  0.00    +0.201 A 
ATOM     27  C   LIG    1        2.648   0.819   8.924  0.00  0.00    +0.163 A 
ATOM     28  C   LIG    1        1.871   0.412   7.840  0.00  0.00    +0.064 A 
BRANCH  25  29
ATOM     29  O   LIG    1        0.619   3.631  10.161  0.00  0.00    -0.503 OA
ATOM     30  H   LIG    1       -0.215   3.999   9.861  0.00  0.00    +0.292 HD
ENDBRANCH  25  29
BRANCH  26  31
ATOM     31  O   LIG    1        3.011   2.307  10.775  0.00  0.00    -0.501 OA
ATOM     32  H   LIG    1        3.804   1.777  10.878  0.00  0.00    +0.292 HD
ENDBRANCH  26  31
BRANCH  27  33
ATOM     33  O   LIG    1        3.811   0.143   9.199  0.00  0.00    -0.503 OA
ATOM     34  H   LIG    1        3.972  -0.581   8.590  0.00  0.00    +0.292 HD
ENDBRANCH  27  33
ENDBRANCH  21  23
ENDBRANCH  20  21
ENDBRANCH  14  20
ENDBRANCH   8  10
ENDBRANCH   7   8
ENDBRANCH   6   7
BRANCH   3  35
ATOM     35  O   LIG    1        0.048  -1.964  -1.829  0.00  0.00    -0.451 OA
BRANCH  35  36
ATOM     36  C   LIG    1       -0.373  -2.903  -0.928  0.00  0.00    +0.340 C 
ATOM     37  O   LIG    1       -1.151  -2.662  -0.002  0.00  0.00    -0.245 OA
BRANCH  36  38
ATOM     38  C   LIG    1        0.202  -4.265  -1.184  0.00  0.00    +0.066 A 
ATOM     39  C   LIG    1       -0.161  -5.334  -0.352  0.00  0.00    +0.064 A 
ATOM     40  C   LIG    1        0.347  -6.615  -0.566  0.00  0.00    +0.163 A 
ATOM     41  C   LIG    1        1.237  -6.849  -1.620  0.00  0.00    +0.202 A 
ATOM     42  C   LIG    1        1.623  -5.790  -2.453  0.00  0.00    +0.178 A 
ATOM     43  C   LIG    1        1.096  -4.512  -2.238  0.00  0.00    +0.065 A 
BRANCH  40  44
ATOM     44  O   LIG    1       -0.041  -7.634   0.269  0.00  0.00    -0.503 OA
ATOM     45  H   LIG    1       -0.649  -7.347   0.954  0.00  0.00    +0.292 HD
ENDBRANCH  40  44
BRANCH  41  46
ATOM     46  O   LIG    1        1.732  -8.113  -1.838  0.00  0.00    -0.501 OA
ATOM     47  H   LIG    1        1.397  -8.753  -1.205  0.00  0.00    +0.292 HD
ENDBRANCH  41  46
BRANCH  42  48
ATOM     48  O   LIG    1        2.486  -6.002  -3.506  0.00  0.00    -0.418 OA
BRANCH  48  49
ATOM     49  C   LIG    1        3.827  -5.770  -3.346  0.00  0.00    +0.345 C 
ATOM     50  O   LIG    1        4.333  -5.330  -2.308  0.00  0.00    -0.245 OA
BRANCH  49  51
ATOM     51  C   LIG    1        4.627  -6.098  -4.573  0.00  0.00    +0.067 A 
ATOM     52  C   LIG    1        6.008  -5.861  -4.581  0.00  0.00    +0.064 A 
ATOM     53  C   LIG    1        6.784  -6.159  -5.702  0.00  0.00    +0.163 A 
ATOM     54  C   LIG    1        6.185  -6.706  -6.844  0.00  0.00    +0.201 A 
ATOM     55  C   LIG    1        4.805  -6.949  -6.849  0.00  0.00    +0.163 A 
ATOM     56  C   LIG    1        4.037  -6.647  -5.724  0.00  0.00    +0.064 A 
BRANCH  53  57
ATOM     57  O   LIG    1        8.133  -5.906  -5.657  0.00  0.00    -0.503 OA
ATOM     58  H   LIG    1        8.593  -6.141  -6.466  0.00  0.00    +0.292 HD
ENDBRANCH  53  57
BRANCH  54  59
ATOM     59  O   LIG    1        6.942  -7.004  -7.953  0.00  0.00    -0.501 OA
ATOM     60  H   LIG    1        7.873  -6.798  -7.848  0.00  0.00    +0.292 HD
ENDBRANCH  54  59
BRANCH  55  61
ATOM     61  O   LIG    1        4.185  -7.486  -7.950  0.00  0.00    -0.503 OA
ATOM     62  H   LIG    1        3.240  -7.604  -7.828  0.00  0.00    +0.292 HD
ENDBRANCH  55  61
ENDBRANCH  49  51
ENDBRANCH  48  49
ENDBRANCH  42  48
ENDBRANCH  36  38
ENDBRANCH  35  36
ENDBRANCH   3  35
BRANCH   2  63
ATOM     63  O   LIG    1       -2.385  -1.134  -3.224  0.00  0.00    -0.450 OA
BRANCH  63  64
ATOM     64  C   LIG    1       -1.992  -0.868  -4.504  0.00  0.00    +0.340 C 
ATOM     65  O   LIG    1       -1.201   0.031  -4.802  0.00  0.00    -0.245 OA
BRANCH  64  66
ATOM     66  C   LIG    1       -2.631  -1.771  -5.516  0.00  0.00    +0.066 A 
ATOM     67  C   LIG    1       -3.510  -2.803  -5.148  0.00  0.00    +0.064 A 
ATOM     68  C   LIG    1       -4.087  -3.630  -6.112  0.00  0.00    +0.163 A 
ATOM     69  C   LIG    1       -3.790  -3.442  -7.467  0.00  0.00    +0.202 A 
ATOM     70  C   LIG    1       -2.907  -2.423  -7.850  0.00  0.00    +0.178 A 
ATOM     71  C   LIG    1       -2.346  -1.591  -6.876  0.00  0.00    +0.065 A 
BRANCH  68  72
ATOM     72  O   LIG    1       -4.942  -4.625  -5.710  0.00  0.00    -0.503 OA
ATOM     73  H   LIG    1       -5.277  -5.143  -6.445  0.00  0.00    +0.292 HD
ENDBRANCH  68  72
BRANCH  69  74
ATOM     74  O   LIG    1       -4.358  -4.255  -8.419  0.00  0.00    -0.501 OA
ATOM     75  H   LIG    1       -4.072  -4.042  -9.311  0.00  0.00    +0.292 HD
ENDBRANCH  69  74
BRANCH  70  76
ATOM     76  O   LIG    1       -2.611  -2.208  -9.180  0.00  0.00    -0.418 OA
BRANCH  76  77
ATOM     77  C   LIG    1       -1.452  -2.712  -9.710  0.00  0.00    +0.345 C 
ATOM     78  O   LIG    1       -0.637  -3.385  -9.070  0.00  0.00    -0.245 OA
BRANCH  77  79
ATOM     79  C   LIG    1       -1.265  -2.357 -11.156  0.00  0.00    +0.067 A 
ATOM     80  C   LIG    1       -0.111  -2.789 -11.828  0.00  0.00    +0.064 A 
ATOM     81  C   LIG    1        0.097  -2.477 -13.172  0.00  0.00    +0.163 A 
ATOM     82  C   LIG    1       -0.853  -1.723 -13.872  0.00  0.00    +0.201 A 
ATOM     83  C   LIG    1       -2.009  -1.286 -13.214  0.00  0.00    +0.163 A 
ATOM     84  C   LIG    1       -2.210  -1.601 -11.870  0.00  0.00    +0.064 A 
BRANCH  81  85
ATOM     85  O   LIG    1        1.240  -2.918 -13.789  0.00  0.00    -0.503 OA
ATOM     86  H   LIG    1        1.289  -2.648 -14.709  0.00  0.00    +0.292 HD
ENDBRANCH  81  85
BRANCH  82  87
ATOM     87  O   LIG    1       -0.652  -1.415 -15.196  0.00  0.00    -0.501 OA
ATOM     88  H   LIG    1       -1.372  -0.897 -15.566  0.00  0.00    +0.292 HD
ENDBRANCH  82  87
BRANCH  83  89
ATOM     89  O   LIG    1       -2.957  -0.544 -13.874  0.00  0.00    -0.503 OA
ATOM     90  H   LIG    1       -3.699  -0.301 -13.315  0.00  0.00    +0.292 HD
ENDBRANCH  83  89
ENDBRANCH  77  79
ENDBRANCH  76  77
ENDBRANCH  70  76
ENDBRANCH  64  66
ENDBRANCH  63  64
ENDBRANCH   2  63
BRANCH   1  91
ATOM     91  O   LIG    1       -3.780   1.164  -1.848  0.00  0.00    -0.448 OA
BRANCH  91  92
ATOM     92  C   LIG    1       -4.673   1.315  -2.854  0.00  0.00    +0.340 C 
ATOM     93  O   LIG    1       -4.369   1.354  -4.048  0.00  0.00    -0.245 OA
BRANCH  92  94
ATOM     94  C   LIG    1       -6.078   1.418  -2.338  0.00  0.00    +0.066 A 
ATOM     95  C   LIG    1       -7.157   1.500  -3.229  0.00  0.00    +0.064 A 
ATOM     96  C   LIG    1       -8.468   1.609  -2.759  0.00  0.00    +0.163 A 
ATOM     97  C   LIG    1       -8.723   1.637  -1.381  0.00  0.00    +0.202 A 
ATOM     98  C   LIG    1       -7.655   1.544  -0.478  0.00  0.00    +0.178 A 
ATOM     99  C   LIG    1       -6.350   1.447  -0.961  0.00  0.00    +0.065 A 
BRANCH  96 100
ATOM    100  O   LIG    1       -9.495   1.690  -3.667  0.00  0.00    -0.503 OA
ATOM    101  H   LIG    1       -9.194   1.658  -4.578  0.00  0.00    +0.292 HD
ENDBRANCH  96 100
BRANCH  97 102
ATOM    102  O   LIG    1      -10.010   1.754  -0.916  0.00  0.00    -0.501 OA
ATOM    103  H   LIG    1      -10.655   1.796  -1.627  0.00  0.00    +0.292 HD
ENDBRANCH  97 102
BRANCH  98 104
ATOM    104  O   LIG    1       -7.840   1.588   0.887  0.00  0.00    -0.418 OA
BRANCH 104 105
ATOM    105  C   LIG    1       -8.011   0.422   1.583  0.00  0.00    +0.345 C 
ATOM    106  O   LIG    1       -8.309  -0.657   1.060  0.00  0.00    -0.245 OA
BRANCH 105 107
ATOM    107  C   LIG    1       -7.830   0.594   3.061  0.00  0.00    +0.067 A 
ATOM    108  C   LIG    1       -7.217   1.734   3.605  0.00  0.00    +0.064 A 
ATOM    109  C   LIG    1       -6.998   1.844   4.979  0.00  0.00    +0.163 A 
ATOM    110  C   LIG    1       -7.397   0.812   5.837  0.00  0.00    +0.201 A 
ATOM    111  C   LIG    1       -8.015  -0.327   5.307  0.00  0.00    +0.163 A 
ATOM    112  C   LIG    1       -8.225  -0.432   3.931  0.00  0.00    +0.064 A 
BRANCH 109 113
ATOM    113  O   LIG    1       -6.378   2.969   5.465  0.00  0.00    -0.503 OA
ATOM    114  H   LIG    1       -6.159   3.604   4.780  0.00  0.00    +0.292 HD
ENDBRANCH 109 113
BRANCH 110 115
ATOM    115  O   LIG    1       -7.181   0.910   7.191  0.00  0.00    -0.501 OA
ATOM    116  H   LIG    1       -7.503   0.143   7.671  0.00  0.00    +0.292 HD
ENDBRANCH 110 115
BRANCH 111 117
ATOM    117  O   LIG    1       -8.411  -1.358   6.121  0.00  0.00    -0.503 OA
ATOM    118  H   LIG    1       -8.812  -2.084   5.638  0.00  0.00    +0.292 HD
ENDBRANCH 111 117
ENDBRANCH 105 107
ENDBRANCH 104 105
ENDBRANCH  98 104
ENDBRANCH  92  94
ENDBRANCH  91  92
ENDBRANCH   1  91
BRANCH   4 119
ATOM    119  C   LIG    1        1.552   0.150  -0.277  0.00  0.00    +0.268 C 
BRANCH 119 120
ATOM    120  O   LIG    1        1.775   0.839   0.952  0.00  0.00    -0.458 OA
BRANCH 120 121
ATOM    121  C   LIG    1        2.881   0.621   1.706  0.00  0.00    +0.340 C 
ATOM    122  O   LIG    1        3.773  -0.172   1.392  0.00  0.00    -0.245 OA
BRANCH 121 123
ATOM    123  C   LIG    1        2.887   1.407   2.986  0.00  0.00    +0.066 A 
ATOM    124  C   LIG    1        1.925   2.392   3.263  0.00  0.00    +0.064 A 
ATOM    125  C   LIG    1        1.956   3.112   4.458  0.00  0.00    +0.163 A 
ATOM    126  C   LIG    1        2.957   2.858   5.403  0.00  0.00    +0.202 A 
ATOM    127  C   LIG    1        3.932   1.885   5.137  0.00  0.00    +0.178 A 
ATOM    128  C   LIG    1        3.885   1.165   3.940  0.00  0.00    +0.065 A 
BRANCH 125 129
ATOM    129  O   LIG    1        0.993   4.064   4.684  0.00  0.00    -0.503 OA
ATOM    130  H   LIG    1        1.101   4.531   5.515  0.00  0.00    +0.292 HD
ENDBRANCH 125 129
BRANCH 126 131
ATOM    131  O   LIG    1        2.991   3.557   6.588  0.00  0.00    -0.501 OA
ATOM    132  H   LIG    1        2.300   4.217   6.666  0.00  0.00    +0.292 HD
ENDBRANCH 126 131
BRANCH 127 133
ATOM    133  O   LIG    1        4.926   1.600   6.050  0.00  0.00    -0.418 OA
BRANCH 133 134
ATOM    134  C   LIG    1        6.062   2.365   6.078  0.00  0.00    +0.345 C 
ATOM    135  O   LIG    1        6.268   3.326   5.328  0.00  0.00    -0.245 OA
BRANCH 134 136
ATOM    136  C   LIG    1        7.018   1.955   7.159  0.00  0.00    +0.067 A 
ATOM    137  C   LIG    1        8.111   2.779   7.465  0.00  0.00    +0.064 A 
ATOM    138  C   LIG    1        9.016   2.430   8.467  0.00  0.00    +0.163 A 
ATOM    139  C   LIG    1        8.843   1.240   9.184  0.00  0.00    +0.201 A 
ATOM    140  C   LIG    1        7.762   0.403   8.883  0.00  0.00    +0.163 A 
ATOM    141  C   LIG    1        6.862   0.758   7.877  0.00  0.00    +0.064 A 
BRANCH 138 142
ATOM    142  O   LIG    1       10.070   3.267   8.735  0.00  0.00    -0.503 OA
ATOM    143  H   LIG    1       10.635   2.934   9.437  0.00  0.00    +0.292 HD
ENDBRANCH 138 142
BRANCH 139 144
ATOM    144  O   LIG    1        9.731   0.893  10.175  0.00  0.00    -0.501 OA
ATOM    145  H   LIG    1        9.505   0.059  10.595  0.00  0.00    +0.292 HD
ENDBRANCH 139 144
BRANCH 140 146
ATOM    146  O   LIG    1        7.570  -0.773   9.566  0.00  0.00    -0.503 OA
ATOM    147  H   LIG    1        6.795  -1.257   9.273  0.00  0.00    +0.292 HD
ENDBRANCH 140 146
ENDBRANCH 134 136
ENDBRANCH 133 134
ENDBRANCH 127 133
ENDBRANCH 121 123
ENDBRANCH 120 121
ENDBRANCH 119 120
ENDBRANCH   4 119
TORSDOF 56
