REMARK  Name = DB09296
REMARK                            x       y       z     vdW  Elec       q    Type
REMARK                         _______ _______ _______ _____ _____    ______ ____
ROOT
ATOM      1  N   LIG    1       -0.397  -0.046   1.070  0.00  0.00    -0.316 N 
ATOM      2  C   LIG    1       -1.717   0.141   0.437  0.00  0.00    +0.104 C 
ATOM      3  C   LIG    1       -1.842  -0.869  -0.707  0.00  0.00    +0.029 C 
ATOM      4  C   LIG    1       -0.409  -1.071  -1.139  0.00  0.00    +0.029 C 
ATOM      5  C   LIG    1        0.370  -0.933   0.172  0.00  0.00    +0.104 C 
ENDROOT
BRANCH   1  10
ATOM      6  C   LIG    1       -0.115   2.218   4.010  0.00  0.00    +0.006 A 
ATOM      7  C   LIG    1        0.923   1.621   4.739  0.00  0.00    -0.042 A 
ATOM      8  C   LIG    1        1.515   0.462   4.220  0.00  0.00    +0.006 A 
ATOM      9  C   LIG    1        1.083  -0.083   3.015  0.00  0.00    +0.023 A 
ATOM     10  C   LIG    1        0.045   0.511   2.288  0.00  0.00    +0.031 A 
ATOM     11  C   LIG    1       -0.544   1.671   2.805  0.00  0.00    +0.023 A 
BRANCH   7  12
ATOM     12  C   LIG    1        1.429   2.196   6.087  0.00  0.00    -0.013 C 
ATOM     13  C   LIG    1        2.931   2.558   5.970  0.00  0.00    +0.015 C 
ATOM     14  C   LIG    1        0.676   3.479   6.530  0.00  0.00    +0.015 C 
ATOM     15  C   LIG    1        1.243   1.141   7.207  0.00  0.00    +0.015 C 
ENDBRANCH   7  12
ENDBRANCH   1  10
BRANCH   2  16
ATOM     16  C   LIG    1       -2.918   0.144   1.386  0.00  0.00    -0.027 A 
ATOM     17  C   LIG    1       -3.095  -0.892   2.307  0.00  0.00    +0.007 A 
ATOM     18  C   LIG    1       -4.191  -0.884   3.164  0.00  0.00    +0.023 A 
ATOM     19  C   LIG    1       -5.117   0.160   3.112  0.00  0.00    +0.033 A 
ATOM     20  C   LIG    1       -4.950   1.190   2.174  0.00  0.00    +0.023 A 
ATOM     21  C   LIG    1       -3.854   1.177   1.315  0.00  0.00    +0.007 A 
BRANCH  19  22
ATOM     22  N   LIG    1       -6.193   0.072   4.012  0.00  0.00    -0.284 N 
ATOM     23  H   LIG    1       -6.294  -0.831   4.452  0.00  0.00    +0.155 HD
ATOM     24  C   LIG    1       -7.093   1.014   4.369  0.00  0.00    +0.238 C 
ATOM     25  O   LIG    1       -7.102   2.187   3.996  0.00  0.00    -0.273 OA
BRANCH  24  26
ATOM     26  C   LIG    1       -8.203   0.561   5.344  0.00  0.00    +0.162 C 
ATOM     27  N   LIG    1       -8.563  -0.875   5.306  0.00  0.00    -0.288 N 
ATOM     28  C   LIG    1       -8.990  -1.504   4.182  0.00  0.00    +0.237 C 
ATOM     29  O   LIG    1       -9.244  -0.912   3.131  0.00  0.00    -0.274 OA
ATOM     30  C   LIG    1       -8.445  -1.474   6.638  0.00  0.00    +0.109 C 
ATOM     31  C   LIG    1       -8.462  -0.291   7.596  0.00  0.00    +0.021 C 
ATOM     32  C   LIG    1       -7.776   0.804   6.803  0.00  0.00    +0.033 C 
BRANCH  28  33
ATOM     33  C   LIG    1       -9.113  -3.054   4.209  0.00  0.00    +0.165 C 
BRANCH  33  34
ATOM     34  N   LIG    1      -10.101  -3.585   3.249  0.00  0.00    -0.270 N 
ATOM     35  H   LIG    1       -9.749  -4.133   2.478  0.00  0.00    +0.153 HD
ATOM     36  C   LIG    1      -11.482  -3.390   3.351  0.00  0.00    +0.401 C 
ATOM     37  O   LIG    1      -12.292  -3.816   2.527  0.00  0.00    -0.226 OA
BRANCH  36  38
ATOM     38  O   LIG    1      -11.825  -2.693   4.465  0.00  0.00    -0.454 OA
ATOM     39  C   LIG    1      -13.181  -2.368   4.732  0.00  0.00    +0.282 C 
ENDBRANCH  36  38
ENDBRANCH  33  34
BRANCH  33  40
ATOM     40  C   LIG    1       -7.697  -3.633   3.908  0.00  0.00    +0.012 C 
ATOM     41  C   LIG    1       -7.643  -5.150   4.158  0.00  0.00    +0.009 C 
ATOM     42  C   LIG    1       -7.129  -3.290   2.513  0.00  0.00    +0.009 C 
ENDBRANCH  33  40
ENDBRANCH  28  33
ENDBRANCH  24  26
ENDBRANCH  19  22
ENDBRANCH   2  16
BRANCH   5  43
ATOM     43  C   LIG    1        1.842  -0.562  -0.025  0.00  0.00    -0.027 A 
ATOM     44  C   LIG    1        2.198   0.737  -0.400  0.00  0.00    +0.007 A 
ATOM     45  C   LIG    1        3.536   1.072  -0.581  0.00  0.00    +0.023 A 
ATOM     46  C   LIG    1        4.533   0.102  -0.395  0.00  0.00    +0.033 A 
ATOM     47  C   LIG    1        4.174  -1.194  -0.017  0.00  0.00    +0.023 A 
ATOM     48  C   LIG    1        2.834  -1.528   0.158  0.00  0.00    +0.007 A 
BRANCH  46  49
ATOM     49  N   LIG    1        5.910   0.354  -0.530  0.00  0.00    -0.284 N 
ATOM     50  H   LIG    1        6.511  -0.317  -0.075  0.00  0.00    +0.155 HD
ATOM     51  C   LIG    1        6.518   1.338  -1.225  0.00  0.00    +0.238 C 
ATOM     52  O   LIG    1        5.960   2.186  -1.924  0.00  0.00    -0.273 OA
BRANCH  51  53
ATOM     53  C   LIG    1        8.059   1.339  -1.142  0.00  0.00    +0.162 C 
ATOM     54  N   LIG    1        8.726   1.102  -2.441  0.00  0.00    -0.288 N 
ATOM     55  C   LIG    1        8.514  -0.013  -3.188  0.00  0.00    +0.237 C 
ATOM     56  O   LIG    1        7.837  -0.970  -2.805  0.00  0.00    -0.274 OA
ATOM     57  C   LIG    1        9.625   2.211  -2.767  0.00  0.00    +0.109 C 
ATOM     58  C   LIG    1        9.914   2.877  -1.431  0.00  0.00    +0.021 C 
ATOM     59  C   LIG    1        8.608   2.704  -0.678  0.00  0.00    +0.033 C 
BRANCH  55  60
ATOM     60  C   LIG    1        9.164  -0.102  -4.597  0.00  0.00    +0.165 C 
BRANCH  60  61
ATOM     61  N   LIG    1        9.989  -1.319  -4.737  0.00  0.00    -0.270 N 
ATOM     62  H   LIG    1        9.644  -2.038  -5.356  0.00  0.00    +0.153 HD
ATOM     63  C   LIG    1       11.204  -1.538  -4.082  0.00  0.00    +0.401 C 
ATOM     64  O   LIG    1       11.859  -2.575  -4.191  0.00  0.00    -0.226 OA
BRANCH  63  65
ATOM     65  O   LIG    1       11.583  -0.477  -3.327  0.00  0.00    -0.454 OA
ATOM     66  C   LIG    1       12.790  -0.506  -2.578  0.00  0.00    +0.282 C 
ENDBRANCH  63  65
ENDBRANCH  60  61
BRANCH  60  67
ATOM     67  C   LIG    1        8.006  -0.153  -5.644  0.00  0.00    +0.012 C 
ATOM     68  C   LIG    1        6.955   0.971  -5.496  0.00  0.00    +0.009 C 
ATOM     69  C   LIG    1        8.556  -0.137  -7.084  0.00  0.00    +0.009 C 
ENDBRANCH  60  67
ENDBRANCH  55  60
ENDBRANCH  51  53
ENDBRANCH  46  49
ENDBRANCH   5  43
TORSDOF 16
