REMARK  Name = DB09488
REMARK                            x       y       z     vdW  Elec       q    Type
REMARK                         _______ _______ _______ _____ _____    ______ ____
ROOT
ATOM      1  C   LIG    1        0.036   0.104  -0.267  0.00  0.00    +0.005 C 
ATOM      2  C   LIG    1       -0.639   1.251  -0.526  0.00  0.00    -0.001 C 
ENDROOT
BRANCH   1   7
ATOM      3  C   LIG    1       -2.660  -4.925   0.783  0.00  0.00    +0.044 C 
ATOM      4  C   LIG    1       -1.952  -3.610   0.509  0.00  0.00    -0.050 A 
ATOM      5  C   LIG    1       -2.254  -2.486   1.279  0.00  0.00    +0.004 A 
ATOM      6  C   LIG    1       -1.611  -1.278   1.026  0.00  0.00    +0.009 A 
ATOM      7  C   LIG    1       -0.667  -1.181  -0.003  0.00  0.00    -0.016 A 
ATOM      8  C   LIG    1       -0.371  -2.313  -0.771  0.00  0.00    +0.009 A 
ATOM      9  C   LIG    1       -1.012  -3.522  -0.519  0.00  0.00    +0.004 A 
ENDBRANCH   1   7
BRANCH   1  10
ATOM     10  C   LIG    1        1.529   0.079  -0.220  0.00  0.00    +0.072 A 
ATOM     11  N   LIG    1        2.112  -0.808   0.637  0.00  0.00    -0.247 NA
ATOM     12  C   LIG    1        3.469  -0.859   0.739  0.00  0.00    +0.065 A 
ATOM     13  C   LIG    1        4.290  -0.005  -0.003  0.00  0.00    +0.028 A 
ATOM     14  C   LIG    1        3.700   0.915  -0.869  0.00  0.00    +0.004 A 
ATOM     15  C   LIG    1        2.310   0.963  -0.980  0.00  0.00    +0.028 A 
BRANCH  12  16
ATOM     16  C   LIG    1        4.074  -1.851   1.652  0.00  0.00    +0.035 C 
ATOM     17  C   LIG    1        3.402  -2.763   2.390  0.00  0.00    +0.093 C 
BRANCH  17  18
ATOM     18  C   LIG    1        4.067  -3.705   3.257  0.00  0.00    +0.330 C 
ATOM     19  O   LIG    1        5.285  -3.782   3.420  0.00  0.00    -0.246 OA
BRANCH  18  20
ATOM     20  O   LIG    1        3.172  -4.520   3.887  0.00  0.00    -0.478 OA
ATOM     21  H   LIG    1        3.603  -5.152   4.466  0.00  0.00    +0.295 HD
ENDBRANCH  18  20
ENDBRANCH  17  18
ENDBRANCH  12  16
ENDBRANCH   1  10
BRANCH   2  22
ATOM     22  C   LIG    1       -2.148   1.430  -0.643  0.00  0.00    +0.112 C 
BRANCH  22  23
ATOM     23  N   LIG    1       -2.744   2.286   0.382  0.00  0.00    -0.299 NA
ATOM     24  C   LIG    1       -4.192   2.382   0.262  0.00  0.00    +0.085 C 
ATOM     25  C   LIG    1       -4.591   3.562   1.151  0.00  0.00    +0.017 C 
ATOM     26  C   LIG    1       -3.337   4.439   1.194  0.00  0.00    +0.017 C 
ATOM     27  C   LIG    1       -2.316   3.679   0.343  0.00  0.00    +0.085 C 
ENDBRANCH  22  23
ENDBRANCH   2  22
TORSDOF 7
