REMARK  Name = DB09570
REMARK                            x       y       z     vdW  Elec       q    Type
REMARK                         _______ _______ _______ _____ _____    ______ ____
ROOT
ATOM      1  C   LIG    1       -0.485  -0.237   1.010  0.00  0.00    +0.000 C 
ATOM      2  O   LIG    1       -0.199   0.753   1.688  0.00  0.00    +0.000 OA
ATOM      3  N   LIG    1        0.417  -0.930   0.289  0.00  0.00    +0.000 N 
ATOM      4  H   LIG    1        0.090  -1.787  -0.133  0.00  0.00    +0.000 HD
ENDROOT
BRANCH   1   5
ATOM      5  C   LIG    1       -1.932  -0.761   0.919  0.00  0.00    +0.000 C 
BRANCH   5   8
ATOM      6  C   LIG    1       -2.900  -0.424   3.196  0.00  0.00    +0.000 C 
ATOM      7  O   LIG    1       -2.256  -1.333   3.723  0.00  0.00    +0.000 OA
ATOM      8  N   LIG    1       -2.816  -0.107   1.890  0.00  0.00    +0.000 N 
ATOM      9  H   LIG    1       -3.380   0.653   1.539  0.00  0.00    +0.000 HD
BRANCH   6  10
ATOM     10  C   LIG    1       -3.855   0.419   4.004  0.00  0.00    +0.000 A 
ATOM     11  C   LIG    1       -4.821  -0.155   4.857  0.00  0.00    +0.000 A 
ATOM     12 CL   LIG    1       -5.006  -1.870   5.043  0.00  0.00    +0.000 Cl
ATOM     13  C   LIG    1       -5.688   0.667   5.580  0.00  0.00    +0.000 A 
ATOM     14  C   LIG    1       -5.614   2.053   5.463  0.00  0.00    +0.000 A 
ATOM     15  C   LIG    1       -4.673   2.629   4.615  0.00  0.00    +0.000 A 
ATOM     16 CL   LIG    1       -4.582   4.346   4.463  0.00  0.00    +0.000 Cl
ATOM     17  C   LIG    1       -3.802   1.818   3.888  0.00  0.00    +0.000 A 
ENDBRANCH   6  10
ENDBRANCH   5   8
ENDBRANCH   1   5
BRANCH   3  18
ATOM     18  C   LIG    1        1.869  -0.716   0.194  0.00  0.00    +0.000 C 
BRANCH  18  19
ATOM     19  B   LIG    1        2.318   0.807   0.255  0.00  0.00    +0.000 B 
BRANCH  19  20
ATOM     20  O   LIG    1        3.233   1.199   1.187  0.00  0.00    +0.000 OA
ATOM     21  H   LIG    1        3.440   2.133   1.113  0.00  0.00    +0.000 HD
ENDBRANCH  19  20
BRANCH  19  22
ATOM     22  O   LIG    1        1.847   1.694  -0.669  0.00  0.00    +0.000 OA
ATOM     23  H   LIG    1        2.207   2.573  -0.537  0.00  0.00    +0.000 HD
ENDBRANCH  19  22
ENDBRANCH  18  19
BRANCH  18  24
ATOM     24  C   LIG    1        2.467  -1.444  -1.035  0.00  0.00    +0.000 C 
BRANCH  24  25
ATOM     25  C   LIG    1        4.011  -1.593  -1.051  0.00  0.00    +0.000 C 
ATOM     26  C   LIG    1        4.547  -2.475   0.095  0.00  0.00    +0.000 C 
ATOM     27  C   LIG    1        4.496  -2.123  -2.413  0.00  0.00    +0.000 C 
ENDBRANCH  24  25
ENDBRANCH  18  24
ENDBRANCH   3  18
TORSDOF 9
