REMARK  Name = DB09421
REMARK                            x       y       z     vdW  Elec       q    Type
REMARK                         _______ _______ _______ _____ _____    ______ ____
ROOT
ATOM      1  C   LIG    1        1.633   0.200  -0.802  0.00  0.00    +0.165 C 
ENDROOT
BRANCH   1   4
ATOM      2  C   LIG    1       -2.002   1.420  -0.192  0.00  0.00    +0.162 C 
ATOM      3  N   LIG    1       -0.546   1.186  -0.117  0.00  0.00    -0.288 N 
ATOM      4  C   LIG    1        0.108   0.367  -0.979  0.00  0.00    +0.237 C 
ATOM      5  O   LIG    1       -0.457  -0.270  -1.868  0.00  0.00    -0.274 OA
ATOM      6  C   LIG    1        0.050   1.917   1.008  0.00  0.00    +0.109 C 
ATOM      7  C   LIG    1       -1.042   2.853   1.511  0.00  0.00    +0.021 C 
ATOM      8  C   LIG    1       -2.320   2.115   1.146  0.00  0.00    +0.033 C 
BRANCH   2  12
ATOM      9  N   LIG    1       -2.986   1.600  -2.437  0.00  0.00    -0.328 N 
ATOM     10  H   LIG    1       -3.265   2.096  -3.270  0.00  0.00    +0.145 HD
ATOM     11  H   LIG    1       -3.133   0.603  -2.379  0.00  0.00    +0.145 HD
ATOM     12  C   LIG    1       -2.410   2.257  -1.427  0.00  0.00    +0.231 C 
ATOM     13  O   LIG    1       -2.188   3.467  -1.462  0.00  0.00    -0.274 OA
ENDBRANCH   2  12
ENDBRANCH   1   4
BRANCH   1  14
ATOM     14  N   LIG    1        1.911  -0.644   0.362  0.00  0.00    -0.302 N 
ATOM     15  H   LIG    1        1.429  -1.531   0.379  0.00  0.00    +0.150 HD
ATOM     16  C   LIG    1        2.807  -0.369   1.329  0.00  0.00    +0.234 C 
ATOM     17  O   LIG    1        3.367   0.725   1.413  0.00  0.00    -0.274 OA
BRANCH  16  18
ATOM     18  C   LIG    1        3.013  -1.440   2.431  0.00  0.00    +0.159 C 
ATOM     19  N   LIG    1        3.006  -2.798   1.877  0.00  0.00    -0.304 N 
ATOM     20  H   LIG    1        2.155  -3.219   1.533  0.00  0.00    +0.149 HD
ATOM     21  C   LIG    1        4.203  -3.407   1.781  0.00  0.00    +0.214 C 
ATOM     22  O   LIG    1        4.451  -4.498   1.273  0.00  0.00    -0.276 OA
ATOM     23  C   LIG    1        5.210  -2.465   2.437  0.00  0.00    +0.098 C 
ATOM     24  C   LIG    1        4.385  -1.381   3.111  0.00  0.00    +0.041 C 
ENDBRANCH  16  18
ENDBRANCH   1  14
BRANCH   1  25
ATOM     25  C   LIG    1        2.320  -0.398  -2.054  0.00  0.00    +0.086 C 
BRANCH  25  26
ATOM     26  C   LIG    1        3.819  -0.548  -1.944  0.00  0.00    +0.038 A 
ATOM     27  N   LIG    1        4.426  -1.710  -1.496  0.00  0.00    -0.348 N 
ATOM     28  H   LIG    1        3.961  -2.557  -1.200  0.00  0.00    +0.166 HD
ATOM     29  C   LIG    1        5.744  -1.499  -1.516  0.00  0.00    +0.196 A 
ATOM     30  N   LIG    1        6.075  -0.290  -1.953  0.00  0.00    -0.244 NA
ATOM     31  C   LIG    1        4.849   0.319  -2.234  0.00  0.00    +0.133 A 
ENDBRANCH  25  26
ENDBRANCH   1  25
TORSDOF 6
