REMARK  Name = DB09095
REMARK                            x       y       z     vdW  Elec       q    Type
REMARK                         _______ _______ _______ _____ _____    ______ ____
ROOT
ATOM      1  C   LIG    1       -2.633  -1.557   3.251  0.00  0.00    +0.153 C 
ATOM      2  F   LIG    1       -3.334  -0.417   3.149  0.00  0.00    -0.238 F 
ATOM      3  C   LIG    1       -1.208  -1.063   3.717  0.00  0.00    +0.153 C 
ATOM      4  C   LIG    1       -0.464  -0.249   2.618  0.00  0.00    +0.042 C 
ATOM      5  C   LIG    1       -0.393  -0.979   1.246  0.00  0.00    -0.017 C 
ATOM      6  C   LIG    1        0.490  -2.270   1.312  0.00  0.00    +0.012 C 
ATOM      7  C   LIG    1        0.006  -0.069   0.045  0.00  0.00    +0.067 C 
ATOM      8  C   LIG    1       -0.584  -0.777  -1.211  0.00  0.00    -0.003 C 
ATOM      9  C   LIG    1       -0.940   0.197  -2.348  0.00  0.00    +0.008 C 
ATOM     10  C   LIG    1       -1.793  -1.584  -0.678  0.00  0.00    +0.008 C 
ATOM     11  C   LIG    1       -1.855  -1.245   0.820  0.00  0.00    +0.002 C 
ATOM     12  C   LIG    1       -3.441  -2.457   4.279  0.00  0.00    +0.047 C 
ATOM     13  C   LIG    1       -2.791  -3.836   4.587  0.00  0.00    +0.023 C 
ATOM     14  C   LIG    1       -3.611  -1.751   5.636  0.00  0.00    -0.009 C 
ATOM     15  C   LIG    1       -4.786  -1.439   6.215  0.00  0.00    +0.047 C 
ATOM     16  C   LIG    1       -6.087  -1.728   5.621  0.00  0.00    +0.179 C 
ATOM     17  O   LIG    1       -7.152  -1.448   6.167  0.00  0.00    -0.288 OA
ATOM     18  C   LIG    1       -6.003  -2.380   4.314  0.00  0.00    +0.054 C 
ATOM     19  C   LIG    1       -4.855  -2.723   3.676  0.00  0.00    -0.020 C 
ATOM     20  C   LIG    1       -4.827  -3.387   2.290  0.00  0.00    +0.194 C 
ATOM     21  F   LIG    1       -6.069  -3.561   1.830  0.00  0.00    -0.241 F 
ATOM     22  C   LIG    1       -4.051  -2.486   1.316  0.00  0.00    +0.048 C 
ATOM     23  C   LIG    1       -2.617  -2.177   1.804  0.00  0.00    +0.036 C 
ENDROOT
BRANCH   3  24
ATOM     24  O   LIG    1       -0.370  -2.082   4.224  0.00  0.00    -0.389 OA
ATOM     25  H   LIG    1       -0.810  -2.496   4.970  0.00  0.00    +0.210 HD
ENDBRANCH   3  24
BRANCH   7  26
ATOM     26  C   LIG    1        1.515   0.253  -0.059  0.00  0.00    +0.162 C 
ATOM     27  O   LIG    1        2.283  -0.460  -0.710  0.00  0.00    -0.295 OA
BRANCH  26  28
ATOM     28  C   LIG    1        1.981   1.537   0.648  0.00  0.00    +0.230 C 
BRANCH  28  29
ATOM     29  O   LIG    1        3.372   1.735   0.466  0.00  0.00    -0.388 OA
ATOM     30  H   LIG    1        3.629   2.542   0.918  0.00  0.00    +0.210 HD
ENDBRANCH  28  29
ENDBRANCH  26  28
ENDBRANCH   7  26
TORSDOF 4
