REMARK  Name = DB09219
REMARK                            x       y       z     vdW  Elec       q    Type
REMARK                         _______ _______ _______ _____ _____    ______ ____
ROOT
ATOM      1  O   LIG    1       -0.595   1.232  -0.130  0.00  0.00    -0.465 OA
ATOM      2  C   LIG    1       -0.618   1.744  -1.411  0.00  0.00    +0.144 A 
ATOM      3  C   LIG    1       -0.571   3.124  -1.600  0.00  0.00    +0.047 A 
ATOM      4  C   LIG    1       -0.634   3.635  -2.898  0.00  0.00    +0.004 A 
ATOM      5  C   LIG    1       -0.755   2.770  -3.990  0.00  0.00    +0.002 A 
ATOM      6  C   LIG    1       -0.813   1.388  -3.790  0.00  0.00    +0.027 A 
ATOM      7  C   LIG    1       -0.742   0.876  -2.494  0.00  0.00    +0.076 A 
ATOM      8  N   LIG    1       -0.794  -0.488  -2.241  0.00  0.00    -0.279 N 
ATOM      9  H   LIG    1       -1.043  -1.111  -2.996  0.00  0.00    +0.155 HD
ATOM     10  C   LIG    1       -0.490  -1.099  -1.078  0.00  0.00    +0.270 C 
ATOM     11  O   LIG    1       -0.562  -2.322  -0.951  0.00  0.00    -0.270 OA
ATOM     12  C   LIG    1        0.010  -0.085   0.036  0.00  0.00    +0.236 C 
ENDROOT
BRANCH  12  13
ATOM     13  C   LIG    1       -0.466  -0.682   1.383  0.00  0.00    +0.009 A 
ATOM     14  C   LIG    1        0.325  -1.603   2.088  0.00  0.00    +0.012 A 
ATOM     15  C   LIG    1       -0.118  -2.139   3.295  0.00  0.00    +0.046 A 
ATOM     16  C   LIG    1       -1.357  -1.762   3.805  0.00  0.00    +0.117 A 
ATOM     17  C   LIG    1       -2.158  -0.856   3.115  0.00  0.00    +0.046 A 
ATOM     18  C   LIG    1       -1.715  -0.321   1.909  0.00  0.00    +0.012 A 
BRANCH  16  19
ATOM     19  O   LIG    1       -1.794  -2.289   4.991  0.00  0.00    -0.507 OA
ATOM     20  H   LIG    1       -1.170  -2.908   5.377  0.00  0.00    +0.292 HD
ENDBRANCH  16  19
ENDBRANCH  12  13
BRANCH  12  21
ATOM     21  C   LIG    1        1.560   0.093  -0.014  0.00  0.00    +0.009 A 
ATOM     22  C   LIG    1        2.118   1.094   0.794  0.00  0.00    +0.012 A 
ATOM     23  C   LIG    1        3.490   1.324   0.808  0.00  0.00    +0.046 A 
ATOM     24  C   LIG    1        4.327   0.550   0.010  0.00  0.00    +0.117 A 
ATOM     25  C   LIG    1        3.798  -0.451  -0.799  0.00  0.00    +0.046 A 
ATOM     26  C   LIG    1        2.425  -0.680  -0.812  0.00  0.00    +0.012 A 
BRANCH  24  27
ATOM     27  O   LIG    1        5.678   0.773   0.021  0.00  0.00    -0.507 OA
ATOM     28  H   LIG    1        5.934   1.488   0.607  0.00  0.00    +0.292 HD
ENDBRANCH  24  27
ENDBRANCH  12  21
TORSDOF 4
