REMARK  Name = DB09040
REMARK                            x       y       z     vdW  Elec       q    Type
REMARK                         _______ _______ _______ _____ _____    ______ ____
ROOT
ATOM      1  C   LIG    1        0.018   0.200  -0.185  0.00  0.00    +0.128 C 
ENDROOT
BRANCH   1   3
ATOM      2  C   LIG    1       -0.550  -2.130  -1.047  0.00  0.00    +0.012 A 
ATOM      3  C   LIG    1       -0.546  -0.744  -1.286  0.00  0.00    +0.022 A 
ATOM      4  C   LIG    1       -1.044  -0.287  -2.525  0.00  0.00    +0.132 A 
ATOM      5  F   LIG    1       -1.050   1.026  -2.851  0.00  0.00    -0.205 F 
ATOM      6  C   LIG    1       -1.540  -1.190  -3.467  0.00  0.00    +0.077 A 
ATOM      7  C   LIG    1       -1.544  -2.556  -3.201  0.00  0.00    +0.126 A 
ATOM      8  F   LIG    1       -2.026  -3.424  -4.120  0.00  0.00    -0.205 F 
ATOM      9  C   LIG    1       -1.046  -3.027  -1.991  0.00  0.00    +0.039 A 
ENDBRANCH   1   3
BRANCH   1  10
ATOM     10  O   LIG    1       -0.241   1.572  -0.454  0.00  0.00    -0.380 OA
ATOM     11  H   LIG    1        0.113   2.094   0.270  0.00  0.00    +0.211 HD
ENDBRANCH   1  10
BRANCH   1  12
ATOM     12  C   LIG    1        1.585   0.010  -0.113  0.00  0.00    +0.092 C 
ATOM     13  C   LIG    1        2.349   0.520  -1.367  0.00  0.00    +0.027 C 
BRANCH  12  14
ATOM     14  N   LIG    1        2.202   0.451   1.160  0.00  0.00    -0.296 NA
ATOM     15  C   LIG    1        2.378   1.904   1.320  0.00  0.00    +0.089 C 
ATOM     16  C   LIG    1        2.860   2.299   2.734  0.00  0.00    +0.045 C 
ATOM     17  C   LIG    1        4.118   1.523   3.095  0.00  0.00    -0.074 C 
ATOM     18  C   LIG    1        5.263   2.102   3.494  0.00  0.00    +0.008 C 
ATOM     19  C   LIG    1        3.948   0.021   2.914  0.00  0.00    +0.045 C 
ATOM     20  C   LIG    1        3.436  -0.281   1.489  0.00  0.00    +0.089 C 
ENDBRANCH  12  14
ENDBRANCH   1  12
BRANCH   1  21
ATOM     21  C   LIG    1       -0.676  -0.079   1.198  0.00  0.00    +0.186 C 
BRANCH  21  22
ATOM     22  N   LIG    1       -2.140  -0.134   1.139  0.00  0.00    -0.249 N 
ATOM     23  N   LIG    1       -2.876   0.955   0.896  0.00  0.00    -0.158 NA
ATOM     24  C   LIG    1       -4.093   0.454   0.913  0.00  0.00    +0.244 A 
ATOM     25  N   LIG    1       -4.217  -0.845   1.143  0.00  0.00    -0.223 NA
ATOM     26  C   LIG    1       -2.970  -1.211   1.287  0.00  0.00    +0.219 A 
ENDBRANCH  21  22
ENDBRANCH   1  21
TORSDOF 6
