REMARK  Name = DB09083
REMARK                            x       y       z     vdW  Elec       q    Type
REMARK                         _______ _______ _______ _____ _____    ______ ____
ROOT
ATOM      1  C   LIG    1        1.830  -0.977  -0.930  0.00  0.00    +0.034 C 
ENDROOT
BRANCH   1   2
ATOM      2  C   LIG    1        1.278  -0.578   0.456  0.00  0.00    +0.085 C 
BRANCH   2   3
ATOM      3  N   LIG    1       -0.016   0.106   0.365  0.00  0.00    -0.305 NA
ATOM      4  C   LIG    1       -0.655   0.133   1.679  0.00  0.00    +0.104 C 
BRANCH   3   5
ATOM      5  C   LIG    1        0.121   1.469  -0.177  0.00  0.00    +0.092 C 
BRANCH   5  10
ATOM      6  C   LIG    1       -2.256   5.407  -2.787  0.00  0.00    +0.162 A 
ATOM      7  C   LIG    1       -2.935   4.412  -2.053  0.00  0.00    +0.053 A 
ATOM      8  C   LIG    1       -2.255   3.256  -1.689  0.00  0.00    -0.040 A 
ATOM      9  C   LIG    1       -2.343   1.913  -0.974  0.00  0.00    +0.045 C 
ATOM     10  C   LIG    1       -0.839   1.705  -1.363  0.00  0.00    +0.038 C 
ATOM     11  C   LIG    1       -0.927   3.068  -2.043  0.00  0.00    -0.036 A 
ATOM     12  C   LIG    1       -0.236   4.036  -2.760  0.00  0.00    +0.053 A 
ATOM     13  C   LIG    1       -0.902   5.220  -3.139  0.00  0.00    +0.162 A 
BRANCH   6  14
ATOM     14  O   LIG    1       -2.848   6.591  -3.192  0.00  0.00    -0.491 OA
ATOM     15  C   LIG    1       -4.212   6.840  -2.869  0.00  0.00    +0.277 C 
ENDBRANCH   6  14
BRANCH  13  16
ATOM     16  O   LIG    1       -0.295   6.239  -3.852  0.00  0.00    -0.491 OA
ATOM     17  C   LIG    1        1.075   6.121  -4.218  0.00  0.00    +0.277 C 
ENDBRANCH  13  16
ENDBRANCH   5  10
ENDBRANCH   3   5
ENDBRANCH   2   3
ENDBRANCH   1   2
BRANCH   1  18
ATOM     18  C   LIG    1        3.352  -1.214  -0.920  0.00  0.00    +0.109 C 
BRANCH  18  19
ATOM     19  N   LIG    1        3.887  -1.663  -2.217  0.00  0.00    -0.301 N 
ATOM     20  C   LIG    1        4.287  -3.087  -2.289  0.00  0.00    +0.112 C 
ATOM     21  C   LIG    1        4.278  -3.922  -3.598  0.00  0.00    +0.054 C 
ATOM     22  C   LIG    1        3.453  -3.426  -4.780  0.00  0.00    -0.039 A 
ATOM     23  C   LIG    1        2.531  -4.255  -5.422  0.00  0.00    +0.053 A 
ATOM     24  C   LIG    1        1.759  -3.797  -6.502  0.00  0.00    +0.162 A 
ATOM     25  C   LIG    1        1.915  -2.476  -6.941  0.00  0.00    +0.162 A 
ATOM     26  C   LIG    1        2.848  -1.647  -6.298  0.00  0.00    +0.053 A 
ATOM     27  C   LIG    1        3.621  -2.110  -5.230  0.00  0.00    -0.032 A 
ATOM     28  C   LIG    1        4.625  -1.212  -4.517  0.00  0.00    +0.131 C 
ATOM     29  C   LIG    1        4.081  -0.705  -3.174  0.00  0.00    +0.220 C 
ATOM     30  O   LIG    1        3.842   0.496  -3.027  0.00  0.00    -0.275 OA
BRANCH  24  31
ATOM     31  O   LIG    1        0.834  -4.580  -7.172  0.00  0.00    -0.491 OA
ATOM     32  C   LIG    1        0.638  -5.932  -6.771  0.00  0.00    +0.277 C 
ENDBRANCH  24  31
BRANCH  25  33
ATOM     33  O   LIG    1        1.122  -2.066  -7.999  0.00  0.00    -0.491 OA
ATOM     34  C   LIG    1        1.208  -0.722  -8.460  0.00  0.00    +0.277 C 
ENDBRANCH  25  33
ENDBRANCH  18  19
ENDBRANCH   1  18
TORSDOF 10
