REMARK  Name = DB09477
REMARK                            x       y       z     vdW  Elec       q    Type
REMARK                         _______ _______ _______ _____ _____    ______ ____
ROOT
ATOM      1  N   UNK A  1        0.973  -0.387   0.148  0.00  0.00    -0.294 NA
ATOM      2  H   UNK A  1        1.242   0.101   0.991  0.00  0.00    +0.123 HD
ENDROOT
BRANCH   1   4
ATOM      3  C   UNK A  1        1.917  -2.096  -1.474  0.00  0.00    +0.034 C 
ATOM      4  C   UNK A  1        1.510  -1.760  -0.026  0.00  0.00    +0.138 C 
BRANCH   4   5
ATOM      5  C   UNK A  1        2.733  -1.904   0.922  0.00  0.00    +0.233 C 
ATOM      6  O   UNK A  1        3.539  -0.973   1.016  0.00  0.00    -0.274 OA
ATOM      7  N   PRO A  2        2.875  -3.068   1.606  0.00  0.00    -0.287 N 
ATOM      8  CA  PRO A  2        3.997  -3.311   2.536  0.00  0.00    +0.184 C 
ATOM      9  CB  PRO A  2        3.549  -4.570   3.297  0.00  0.00    +0.035 C 
ATOM     10  CG  PRO A  2        2.705  -5.339   2.294  0.00  0.00    +0.021 C 
ATOM     11  CD  PRO A  2        1.981  -4.229   1.541  0.00  0.00    +0.109 C 
BRANCH   8  12
ATOM     12  C   PRO A  2        5.352  -3.516   1.823  0.00  0.00    +0.325 C 
ATOM     13  O   PRO A  2        5.477  -3.802   0.649  0.00  0.00    -0.249 OA
BRANCH  12  14
ATOM     14  OXT PRO A  2        6.364  -3.365   2.726  0.00  0.00    -0.479 OA
ATOM     15  HXT PRO A  2        7.228  -3.492   2.329  0.00  0.00    +0.295 HD
ENDBRANCH  12  14
ENDBRANCH   8  12
ENDBRANCH   4   5
ENDBRANCH   1   4
BRANCH   1  16
ATOM     16  C   UNK A  1       -0.386  -0.066  -0.361  0.00  0.00    +0.164 C 
BRANCH  16  17
ATOM     17  C   UNK A  1       -1.468  -0.903   0.368  0.00  0.00    +0.322 C 
ATOM     18  O   UNK A  1       -2.476  -1.295  -0.217  0.00  0.00    -0.249 OA
BRANCH  17  19
ATOM     19  O   UNK A  1       -1.211  -1.095   1.698  0.00  0.00    -0.480 OA
ATOM     20  H   UNK A  1       -1.905  -1.593   2.135  0.00  0.00    +0.295 HD
ENDBRANCH  17  19
ENDBRANCH  16  17
BRANCH  16  21
ATOM     21  C   UNK A  1       -0.715   1.439  -0.233  0.00  0.00    +0.035 C 
BRANCH  21  22
ATOM     22  C   UNK A  1        0.175   2.344  -1.108  0.00  0.00    +0.037 C 
BRANCH  22  23
ATOM     23  C   UNK A  1       -0.219   3.812  -1.022  0.00  0.00    -0.047 A 
ATOM     24  C   UNK A  1        0.354   4.633  -0.047  0.00  0.00    +0.003 A 
ATOM     25  C   UNK A  1       -0.014   5.973   0.037  0.00  0.00    +0.000 A 
ATOM     26  C   UNK A  1       -0.955   6.487  -0.853  0.00  0.00    +0.000 A 
ATOM     27  C   UNK A  1       -1.530   5.673  -1.827  0.00  0.00    +0.000 A 
ATOM     28  C   UNK A  1       -1.161   4.333  -1.912  0.00  0.00    +0.003 A 
ENDBRANCH  22  23
ENDBRANCH  21  22
ENDBRANCH  16  21
ENDBRANCH   1  16
TORSDOF 10
