REMARK  Name = DB09148
REMARK                            x       y       z     vdW  Elec       q    Type
REMARK                         _______ _______ _______ _____ _____    ______ ____
ROOT
ATOM      1  C   LIG    1       -4.586   1.557   0.192  0.00  0.00    -0.025 A 
ATOM      2  C   LIG    1       -4.036   0.273   0.297  0.00  0.00    +0.011 A 
ATOM      3  C   LIG    1       -2.658   0.087   0.219  0.00  0.00    +0.046 A 
ATOM      4  C   LIG    1       -1.804   1.184   0.034  0.00  0.00    +0.121 A 
ATOM      5  C   LIG    1       -2.355   2.460  -0.076  0.00  0.00    +0.046 A 
ATOM      6  C   LIG    1       -3.732   2.647   0.004  0.00  0.00    +0.011 A 
ENDROOT
BRANCH   1   8
ATOM      7  C   LIG    1       -7.014   0.902   0.503  0.00  0.00    +0.008 C 
ATOM      8  C   LIG    1       -6.042   1.813   0.279  0.00  0.00    +0.008 C 
BRANCH   7  12
ATOM      9  C   LIG    1      -11.244   1.543   0.783  0.00  0.00    +0.027 A 
ATOM     10  C   LIG    1      -10.702   0.254   0.849  0.00  0.00    +0.023 A 
ATOM     11  C   LIG    1       -9.326   0.068   0.756  0.00  0.00    +0.010 A 
ATOM     12  C   LIG    1       -8.468   1.160   0.596  0.00  0.00    -0.025 A 
ATOM     13  C   LIG    1       -9.015   2.449   0.530  0.00  0.00    +0.010 A 
ATOM     14  C   LIG    1      -10.392   2.636   0.623  0.00  0.00    +0.023 A 
BRANCH   9  15
ATOM     15  N   LIG    1      -12.623   1.798   0.873  0.00  0.00    -0.347 N 
ATOM     16  H   LIG    1      -12.957   2.727   0.659  0.00  0.00    +0.146 HD
ATOM     17  C   LIG    1      -13.599   0.720   0.944  0.00  0.00    +0.125 C 
ENDBRANCH   9  15
ENDBRANCH   7  12
ENDBRANCH   1   8
BRANCH   4  18
ATOM     18  O   LIG    1       -0.428   1.097  -0.048  0.00  0.00    -0.490 OA
BRANCH  18  19
ATOM     19  C   LIG    1        0.205  -0.169   0.124  0.00  0.00    +0.257 C 
BRANCH  19  20
ATOM     20  C   LIG    1        1.727   0.013   0.058  0.00  0.00    +0.201 C 
BRANCH  20  21
ATOM     21  O   LIG    1        2.091   0.508  -1.224  0.00  0.00    -0.374 OA
BRANCH  21  22
ATOM     22  C   LIG    1        3.484   0.751  -1.368  0.00  0.00    +0.188 C 
BRANCH  22  23
ATOM     23  C   LIG    1        3.779   1.200  -2.805  0.00  0.00    +0.188 C 
BRANCH  23  24
ATOM     24  O   LIG    1        3.407   0.166  -3.707  0.00  0.00    -0.375 OA
BRANCH  24  25
ATOM     25  C   LIG    1        3.648   0.482  -5.072  0.00  0.00    +0.193 C 
BRANCH  25  26
ATOM     26  C   LIG    1        3.215  -0.701  -5.946  0.00  0.00    +0.241 C 
ATOM     27  F   LIG    1        3.945  -1.799  -5.749  0.00  0.00    -0.247 F 
ENDBRANCH  25  26
ENDBRANCH  24  25
ENDBRANCH  23  24
ENDBRANCH  22  23
ENDBRANCH  21  22
ENDBRANCH  20  21
ENDBRANCH  19  20
ENDBRANCH  18  19
ENDBRANCH   4  18
TORSDOF 12
