REMARK  Name = DB09535
REMARK                            x       y       z     vdW  Elec       q    Type
REMARK                         _______ _______ _______ _____ _____    ______ ____
ROOT
ATOM      1  C   LIG    1       -3.847   2.818   0.115  0.00  0.00    +0.014 C 
ATOM      2  C   LIG    1       -2.550   2.473   0.380  0.00  0.00    +0.144 C 
ENDROOT
BRANCH   1   3
ATOM      3  C   LIG    1       -4.303   4.235   0.170  0.00  0.00    -0.016 A 
ATOM      4  C   LIG    1       -4.959   4.807  -0.927  0.00  0.00    +0.008 A 
ATOM      5  C   LIG    1       -5.399   6.127  -0.876  0.00  0.00    +0.001 A 
ATOM      6  C   LIG    1       -5.187   6.881   0.275  0.00  0.00    +0.000 A 
ATOM      7  C   LIG    1       -4.540   6.325   1.376  0.00  0.00    +0.001 A 
ATOM      8  C   LIG    1       -4.100   5.005   1.323  0.00  0.00    +0.008 A 
ENDBRANCH   1   3
BRANCH   1   9
ATOM      9  C   LIG    1       -4.931   1.867  -0.261  0.00  0.00    -0.016 A 
ATOM     10  C   LIG    1       -6.079   1.764   0.533  0.00  0.00    +0.008 A 
ATOM     11  C   LIG    1       -7.103   0.891   0.175  0.00  0.00    +0.001 A 
ATOM     12  C   LIG    1       -6.983   0.124  -0.981  0.00  0.00    +0.000 A 
ATOM     13  C   LIG    1       -5.849   0.223  -1.784  0.00  0.00    +0.001 A 
ATOM     14  C   LIG    1       -4.826   1.096  -1.425  0.00  0.00    +0.008 A 
ENDBRANCH   1   9
BRANCH   2  15
ATOM     15  C   LIG    1       -1.552   3.470   0.643  0.00  0.00    +0.107 C 
ATOM     16  N   LIG    1       -0.733   4.264   0.843  0.00  0.00    -0.191 NA
ENDBRANCH   2  15
BRANCH   2  17
ATOM     17  C   LIG    1       -2.062   1.077   0.436  0.00  0.00    +0.350 C 
ATOM     18  O   LIG    1       -2.790   0.107   0.663  0.00  0.00    -0.244 OA
BRANCH  17  19
ATOM     19  O   LIG    1       -0.723   0.974   0.243  0.00  0.00    -0.460 OA
BRANCH  19  20
ATOM     20  C   LIG    1       -0.066  -0.288   0.293  0.00  0.00    +0.236 C 
BRANCH  20  21
ATOM     21  C   LIG    1        1.459  -0.130   0.081  0.00  0.00    +0.026 C 
BRANCH  21  22
ATOM     22  C   LIG    1        1.814   0.401  -1.331  0.00  0.00    +0.003 C 
ATOM     23  C   LIG    1        1.343  -0.492  -2.490  0.00  0.00    +0.004 C 
ENDBRANCH  21  22
BRANCH  21  24
ATOM     24  C   LIG    1        2.132   0.739   1.176  0.00  0.00    +0.007 C 
BRANCH  24  25
ATOM     25  C   LIG    1        1.951   0.219   2.616  0.00  0.00    +0.000 C 
BRANCH  25  26
ATOM     26  C   LIG    1        2.733   1.043   3.653  0.00  0.00    -0.003 C 
ATOM     27  C   LIG    1        2.532   0.541   5.090  0.00  0.00    +0.004 C 
ENDBRANCH  25  26
ENDBRANCH  24  25
ENDBRANCH  21  24
ENDBRANCH  20  21
ENDBRANCH  19  20
ENDBRANCH  17  19
ENDBRANCH   2  17
TORSDOF 11
