REMARK  Name = DB09137
REMARK                            x       y       z     vdW  Elec       q    Type
REMARK                         _______ _______ _______ _____ _____    ______ ____
ROOT
ATOM      1  N   LIG    1       -0.679  -0.805   0.313  0.00  0.00    -0.284 N 
ATOM      2  H   LIG    1       -0.084  -1.246   1.000  0.00  0.00    +0.155 HD
ATOM      3  C   LIG    1       -0.205   0.287  -0.328  0.00  0.00    +0.231 C 
ATOM      4  O   LIG    1       -0.870   0.932  -1.141  0.00  0.00    -0.274 OA
ENDROOT
BRANCH   1   7
ATOM      5  C   LIG    1       -1.513  -1.986  -2.281  0.00  0.00    +0.045 C 
ATOM      6  C   LIG    1       -2.417  -1.874  -1.056  0.00  0.00    -0.029 A 
ATOM      7  C   LIG    1       -1.976  -1.336   0.171  0.00  0.00    +0.040 A 
ATOM      8  C   LIG    1       -2.829  -1.348   1.295  0.00  0.00    -0.015 A 
ATOM      9  C   LIG    1       -2.333  -0.804   2.639  0.00  0.00    +0.047 C 
ATOM     10  C   LIG    1       -4.137  -1.854   1.169  0.00  0.00    +0.025 A 
ATOM     11 BR   LIG    1       -5.347  -1.842   2.655  0.00  0.00    -0.050 Br
ATOM     12  C   LIG    1       -4.577  -2.364  -0.061  0.00  0.00    -0.036 A 
ATOM     13  C   LIG    1       -5.985  -2.918  -0.227  0.00  0.00    +0.045 C 
ATOM     14  C   LIG    1       -3.714  -2.376  -1.155  0.00  0.00    +0.009 A 
ENDBRANCH   1   7
BRANCH   3  15
ATOM     15  C   LIG    1        1.272   0.692  -0.110  0.00  0.00    +0.181 C 
BRANCH  15  16
ATOM     16  N   LIG    1        1.846   0.170   1.137  0.00  0.00    -0.274 NA
BRANCH  16  17
ATOM     17  C   LIG    1        1.378   0.903   2.330  0.00  0.00    +0.206 C 
BRANCH  17  18
ATOM     18  C   LIG    1        1.530   0.076   3.624  0.00  0.00    +0.319 C 
ATOM     19  O   LIG    1        1.812   0.595   4.702  0.00  0.00    -0.250 OA
BRANCH  18  20
ATOM     20  O   LIG    1        1.273  -1.256   3.456  0.00  0.00    -0.480 OA
ATOM     21  H   LIG    1        1.356  -1.751   4.274  0.00  0.00    +0.295 HD
ENDBRANCH  18  20
ENDBRANCH  17  18
ENDBRANCH  16  17
BRANCH  16  22
ATOM     22  C   LIG    1        3.320   0.091   1.092  0.00  0.00    +0.206 C 
BRANCH  22  23
ATOM     23  C   LIG    1        3.794  -1.153   0.316  0.00  0.00    +0.319 C 
ATOM     24  O   LIG    1        3.060  -2.054  -0.090  0.00  0.00    -0.250 OA
BRANCH  23  25
ATOM     25  O   LIG    1        5.149  -1.132   0.161  0.00  0.00    -0.480 OA
ATOM     26  H   LIG    1        5.474  -1.902  -0.312  0.00  0.00    +0.295 HD
ENDBRANCH  23  25
ENDBRANCH  22  23
ENDBRANCH  16  22
ENDBRANCH  15  16
ENDBRANCH   3  15
TORSDOF 9
