REMARK  Name = DB09267
REMARK                            x       y       z     vdW  Elec       q    Type
REMARK                         _______ _______ _______ _____ _____    ______ ____
ROOT
ATOM      1  C   LIG    1        1.608  -0.232  -0.086  0.00  0.00    +0.088 A 
ATOM      2  S   LIG    1        2.541  -0.671  -1.468  0.00  0.00    -0.066 S 
ATOM      3  C   LIG    1        4.061  -0.433  -0.626  0.00  0.00    +0.103 A 
ATOM      4  C   LIG    1        3.822  -0.006   0.711  0.00  0.00    +0.004 A 
ATOM      5  C   LIG    1        2.430   0.095   1.000  0.00  0.00    +0.085 A 
ENDROOT
BRANCH   3   6
ATOM      6  C   LIG    1        5.338  -0.698  -1.369  0.00  0.00    +0.344 C 
ATOM      7  O   LIG    1        6.418  -0.581  -0.749  0.00  0.00    -0.245 OA
BRANCH   6   8
ATOM      8  O   LIG    1        5.293  -1.028  -2.580  0.00  0.00    -0.477 OA
ATOM      9  H   LIG    1        4.466  -1.107  -3.014  0.00  0.00    +0.295 HD
ENDBRANCH   6   8
ENDBRANCH   3   6
BRANCH   5  10
ATOM     10  C   LIG    1        1.911   0.478   2.312  0.00  0.00    +0.102 C 
ATOM     11  N   LIG    1        1.502   0.781   3.352  0.00  0.00    -0.191 NA
ENDBRANCH   5  10
BRANCH   1  12
ATOM     12  N   LIG    1        0.224  -0.231  -0.190  0.00  0.00    -0.302 N 
BRANCH  12  13
ATOM     13  C   LIG    1       -0.514  -1.437  -0.601  0.00  0.00    +0.226 C 
BRANCH  13  15
ATOM     14  O   LIG    1       -1.577  -2.701  -2.314  0.00  0.00    -0.249 OA
ATOM     15  C   LIG    1       -1.038  -1.604  -2.044  0.00  0.00    +0.322 C 
BRANCH  15  16
ATOM     16  O   LIG    1       -0.920  -0.658  -2.857  0.00  0.00    -0.480 OA
ATOM     17  H   LIG    1       -0.505   0.139  -2.591  0.00  0.00    +0.295 HD
ENDBRANCH  15  16
ENDBRANCH  13  15
ENDBRANCH  12  13
BRANCH  12  18
ATOM     18  C   LIG    1       -0.637   0.868   0.286  0.00  0.00    +0.226 C 
BRANCH  18  19
ATOM     19  C   LIG    1       -0.382   2.337  -0.120  0.00  0.00    +0.322 C 
ATOM     20  O   LIG    1       -1.009   3.207   0.525  0.00  0.00    -0.249 OA
BRANCH  19  21
ATOM     21  O   LIG    1        0.397   2.590  -1.068  0.00  0.00    -0.480 OA
ATOM     22  H   LIG    1        0.837   1.892  -1.511  0.00  0.00    +0.295 HD
ENDBRANCH  19  21
ENDBRANCH  18  19
ENDBRANCH  12  18
ENDBRANCH   1  12
BRANCH   4  23
ATOM     23  C   LIG    1        4.914   0.328   1.749  0.00  0.00    +0.158 C 
BRANCH  23  24
ATOM     24  C   LIG    1        5.423  -0.871   2.590  0.00  0.00    +0.309 C 
ATOM     25  O   LIG    1        4.861  -1.989   2.500  0.00  0.00    -0.251 OA
BRANCH  24  26
ATOM     26  O   LIG    1        6.389  -0.640   3.352  0.00  0.00    -0.480 OA
ATOM     27  H   LIG    1        6.771   0.216   3.378  0.00  0.00    +0.295 HD
ENDBRANCH  24  26
ENDBRANCH  23  24
ENDBRANCH   4  23
TORSDOF 13
