REMARK  Name = DB09063
REMARK                            x       y       z     vdW  Elec       q    Type
REMARK                         _______ _______ _______ _____ _____    ______ ____
ROOT
ATOM      1  N   LIG    1       -0.736  -1.349  -0.441  0.00  0.00    -0.221 NA
ATOM      2  C   LIG    1       -2.059  -1.083  -0.577  0.00  0.00    +0.137 A 
ATOM      3  C   LIG    1       -2.570   0.215  -0.544  0.00  0.00    +0.099 A 
ATOM      4 CL   LIG    1       -4.271   0.479  -0.735  0.00  0.00    -0.078 Cl
ATOM      5  C   LIG    1       -1.654   1.263  -0.357  0.00  0.00    +0.147 A 
ATOM      6  N   LIG    1       -0.322   1.014  -0.223  0.00  0.00    -0.198 NA
ATOM      7  C   LIG    1        0.089  -0.278  -0.282  0.00  0.00    +0.221 A 
ENDROOT
BRANCH   5   8
ATOM      8  N   LIG    1       -2.122   2.588  -0.321  0.00  0.00    -0.297 N 
ATOM      9  H   LIG    1       -3.091   2.665  -0.598  0.00  0.00    +0.154 HD
BRANCH   8  10
ATOM     10  C   LIG    1       -1.583   3.817   0.109  0.00  0.00    +0.058 A 
ATOM     11  C   LIG    1       -0.380   3.892   0.829  0.00  0.00    +0.025 A 
ATOM     12  C   LIG    1        0.134   5.120   1.240  0.00  0.00    +0.002 A 
ATOM     13  C   LIG    1       -0.548   6.295   0.942  0.00  0.00    +0.002 A 
ATOM     14  C   LIG    1       -1.747   6.241   0.237  0.00  0.00    +0.029 A 
ATOM     15  C   LIG    1       -2.275   5.013  -0.181  0.00  0.00    +0.110 A 
BRANCH  15  16
ATOM     16  S   LIG    1       -3.829   5.024  -1.105  0.00  0.00    +0.001 S 
ATOM     17  O   LIG    1       -4.303   6.411  -1.175  0.00  0.00    -0.169 OA
ATOM     18  O   LIG    1       -4.691   3.994  -0.513  0.00  0.00    -0.169 OA
BRANCH  16  19
ATOM     19  C   LIG    1       -3.341   4.472  -2.860  0.00  0.00    +0.130 C 
ATOM     20  C   LIG    1       -4.610   4.372  -3.721  0.00  0.00    +0.032 C 
ATOM     21  C   LIG    1       -2.307   5.449  -3.445  0.00  0.00    +0.032 C 
ENDBRANCH  16  19
ENDBRANCH  15  16
ENDBRANCH   8  10
ENDBRANCH   5   8
BRANCH   7  22
ATOM     22  N   LIG    1        1.469  -0.485  -0.144  0.00  0.00    -0.281 N 
ATOM     23  H   LIG    1        2.002   0.342   0.085  0.00  0.00    +0.155 HD
BRANCH  22  24
ATOM     24  C   LIG    1        2.235  -1.632  -0.417  0.00  0.00    +0.076 A 
ATOM     25  C   LIG    1        2.092  -2.370  -1.605  0.00  0.00    +0.142 A 
ATOM     26  C   LIG    1        2.898  -3.504  -1.792  0.00  0.00    +0.051 A 
ATOM     27  C   LIG    1        3.837  -3.910  -0.834  0.00  0.00    -0.038 A 
ATOM     28  C   LIG    1        3.981  -3.148   0.342  0.00  0.00    -0.045 A 
ATOM     29  C   LIG    1        4.982  -3.511   1.432  0.00  0.00    +0.044 C 
ATOM     30  C   LIG    1        3.184  -2.017   0.530  0.00  0.00    +0.030 A 
BRANCH  27  31
ATOM     31  C   LIG    1        4.674  -5.170  -1.119  0.00  0.00    +0.022 C 
ATOM     32  C   LIG    1        3.815  -6.449  -1.230  0.00  0.00    +0.023 C 
ATOM     33  C   LIG    1        4.666  -7.688  -1.582  0.00  0.00    +0.081 C 
ATOM     34  N   LIG    1        5.475  -7.474  -2.781  0.00  0.00    -0.316 NA
ATOM     35  H   LIG    1        6.019  -8.302  -2.977  0.00  0.00    +0.122 HD
ATOM     36  C   LIG    1        6.363  -6.317  -2.664  0.00  0.00    +0.081 C 
ATOM     37  C   LIG    1        5.586  -5.020  -2.356  0.00  0.00    +0.023 C 
ENDBRANCH  27  31
BRANCH  25  38
ATOM     38  O   LIG    1        1.192  -1.908  -2.553  0.00  0.00    -0.488 OA
BRANCH  38  39
ATOM     39  C   LIG    1        0.793  -2.710  -3.666  0.00  0.00    +0.167 C 
ATOM     40  C   LIG    1       -0.077  -3.899  -3.213  0.00  0.00    +0.051 C 
ATOM     41  C   LIG    1        0.024  -1.781  -4.616  0.00  0.00    +0.051 C 
ENDBRANCH  38  39
ENDBRANCH  25  38
ENDBRANCH  22  24
ENDBRANCH   7  22
TORSDOF 9
