REMARK  Name = DB09134
REMARK                            x       y       z     vdW  Elec       q    Type
REMARK                         _______ _______ _______ _____ _____    ______ ____
ROOT
ATOM      1  C   LIG    1        1.416   0.070   0.094  0.00  0.00    +0.065 A 
ATOM      2  C   LIG    1        2.114   0.091  -1.129  0.00  0.00    +0.049 A 
ATOM      3  C   LIG    1        3.521   0.112  -1.132  0.00  0.00    +0.064 A 
ATOM      4  C   LIG    1        4.233   0.108   0.084  0.00  0.00    +0.049 A 
ATOM      5  I   LIG    1        6.351   0.123   0.072  0.00  0.00    -0.041 I 
ATOM      6  C   LIG    1        3.531   0.084   1.304  0.00  0.00    +0.065 A 
ATOM      7  I   LIG    1        1.055   0.070  -2.961  0.00  0.00    -0.041 I 
ATOM      8  C   LIG    1        2.123   0.068   1.312  0.00  0.00    +0.040 A 
ATOM      9  I   LIG    1        1.069   0.039   3.152  0.00  0.00    -0.042 I 
ENDROOT
BRANCH   1  10
ATOM     10  C   LIG    1       -0.087   0.039   0.096  0.00  0.00    +0.246 C 
ATOM     11  O   LIG    1       -0.694  -1.033   0.107  0.00  0.00    -0.270 OA
ATOM     12  N   LIG    1       -0.673   1.249   0.077  0.00  0.00    -0.309 N 
ATOM     13  H   LIG    1       -0.087   2.071   0.079  0.00  0.00    +0.149 HD
BRANCH  12  14
ATOM     14  C   LIG    1       -2.118   1.476   0.029  0.00  0.00    +0.138 C 
BRANCH  14  15
ATOM     15  C   LIG    1       -2.756   1.235  -1.363  0.00  0.00    +0.157 C 
BRANCH  15  16
ATOM     16  O   LIG    1       -2.208   2.123  -2.321  0.00  0.00    -0.388 OA
ATOM     17  H   LIG    1       -2.486   3.015  -2.100  0.00  0.00    +0.210 HD
ENDBRANCH  15  16
BRANCH  15  18
ATOM     18  C   LIG    1       -4.296   1.353  -1.370  0.00  0.00    +0.188 C 
BRANCH  18  19
ATOM     19  O   LIG    1       -4.739   2.620  -0.920  0.00  0.00    -0.392 OA
ATOM     20  H   LIG    1       -5.699   2.633  -0.941  0.00  0.00    +0.210 HD
ENDBRANCH  18  19
ENDBRANCH  15  18
ENDBRANCH  14  15
ENDBRANCH  12  14
ENDBRANCH   1  10
BRANCH   6  21
ATOM     21  C   LIG    1        4.290   0.075   2.602  0.00  0.00    +0.246 C 
ATOM     22  O   LIG    1        4.599   1.129   3.159  0.00  0.00    -0.270 OA
ATOM     23  N   LIG    1        4.598  -1.151   3.060  0.00  0.00    -0.309 N 
ATOM     24  H   LIG    1        4.268  -1.956   2.547  0.00  0.00    +0.149 HD
BRANCH  23  25
ATOM     25  C   LIG    1        5.386  -1.420   4.263  0.00  0.00    +0.138 C 
BRANCH  25  26
ATOM     26  C   LIG    1        6.905  -1.158   4.103  0.00  0.00    +0.157 C 
BRANCH  26  27
ATOM     27  O   LIG    1        7.420  -2.001   3.088  0.00  0.00    -0.388 OA
ATOM     28  H   LIG    1        6.938  -1.827   2.276  0.00  0.00    +0.210 HD
ENDBRANCH  26  27
BRANCH  26  29
ATOM     29  C   LIG    1        7.705  -1.411   5.398  0.00  0.00    +0.188 C 
BRANCH  29  30
ATOM     30  O   LIG    1        7.401  -0.448   6.387  0.00  0.00    -0.392 OA
ATOM     31  H   LIG    1        7.940  -0.626   7.162  0.00  0.00    +0.210 HD
ENDBRANCH  29  30
ENDBRANCH  26  29
ENDBRANCH  25  26
ENDBRANCH  23  25
ENDBRANCH   6  21
BRANCH   3  32
ATOM     32  N   LIG    1        4.220   0.150  -2.361  0.00  0.00    -0.265 N 
ATOM     33  C   LIG    1        4.690  -1.006  -2.922  0.00  0.00    +0.245 C 
ATOM     34  O   LIG    1        5.586  -1.002  -3.772  0.00  0.00    -0.273 OA
BRANCH  33  35
ATOM     35  C   LIG    1        4.063  -2.355  -2.484  0.00  0.00    +0.252 C 
BRANCH  35  36
ATOM     36  O   LIG    1        4.613  -3.441  -3.211  0.00  0.00    -0.386 OA
ATOM     37  H   LIG    1        4.055  -4.211  -3.080  0.00  0.00    +0.210 HD
ENDBRANCH  35  36
ENDBRANCH  33  35
BRANCH  32  38
ATOM     38  C   LIG    1        4.736   1.480  -2.765  0.00  0.00    +0.141 C 
BRANCH  38  39
ATOM     39  C   LIG    1        4.644   1.887  -4.255  0.00  0.00    +0.175 C 
BRANCH  39  40
ATOM     40  O   LIG    1        3.339   1.726  -4.762  0.00  0.00    -0.393 OA
ATOM     41  H   LIG    1        3.131   0.789  -4.773  0.00  0.00    +0.209 HD
ENDBRANCH  39  40
ENDBRANCH  38  39
ENDBRANCH  32  38
ENDBRANCH   3  32
TORSDOF 18
