REMARK  Name = DB09238
REMARK                            x       y       z     vdW  Elec       q    Type
REMARK                         _______ _______ _______ _____ _____    ______ ____
ROOT
ATOM      1  C   LIG    1        1.587   0.091   0.219  0.00  0.00    +0.338 C 
ATOM      2  O   LIG    1        2.093   1.145   0.614  0.00  0.00    -0.245 OA
ENDROOT
BRANCH   1   8
ATOM      3  C   LIG    1       -4.058   0.012  -1.223  0.00  0.00    +0.061 C 
ATOM      4  C   LIG    1       -2.562  -0.216  -1.008  0.00  0.00    +0.016 C 
ATOM      5  N   LIG    1       -1.868   0.972  -0.961  0.00  0.00    -0.321 N 
ATOM      6  H   LIG    1       -2.355   1.805  -1.255  0.00  0.00    +0.152 HD
ATOM      7  C   LIG    1       -0.549   1.107  -0.591  0.00  0.00    +0.016 C 
ATOM      8  C   LIG    1        0.207  -0.003  -0.345  0.00  0.00    +0.065 C 
ATOM      9  C   LIG    1       -0.359  -1.434  -0.612  0.00  0.00    +0.096 C 
ATOM     10  C   LIG    1       -0.128   2.574  -0.531  0.00  0.00    +0.061 C 
ATOM     11  C   LIG    1       -1.912  -1.391  -0.763  0.00  0.00    +0.065 C 
BRANCH   9  12
ATOM     12  C   LIG    1        0.289  -2.094  -1.846  0.00  0.00    -0.033 A 
ATOM     13  C   LIG    1        0.813  -3.393  -1.777  0.00  0.00    +0.037 A 
ATOM     14  C   LIG    1        1.378  -4.012  -2.902  0.00  0.00    +0.122 A 
ATOM     15  C   LIG    1        1.409  -3.302  -4.111  0.00  0.00    +0.032 A 
ATOM     16  C   LIG    1        0.905  -2.006  -4.190  0.00  0.00    +0.003 A 
ATOM     17  C   LIG    1        0.349  -1.406  -3.064  0.00  0.00    +0.005 A 
BRANCH  14  18
ATOM     18  N   LIG    1        1.942  -5.381  -2.814  0.00  0.00    +0.006 N 
ATOM     19  O   LIG    1        1.853  -5.986  -1.750  0.00  0.00    -0.130 OA
BRANCH  18  20
ATOM     20  O   LIG    1        2.483  -5.859  -3.808  0.00  0.00    -0.396 OA
ATOM     21  H   LIG    1        2.529  -5.363  -4.601  0.00  0.00    +0.329 HD
ENDBRANCH  18  20
ENDBRANCH  14  18
ENDBRANCH   9  12
BRANCH  11  22
ATOM     22  C   LIG    1       -2.616  -2.705  -0.802  0.00  0.00    +0.337 C 
ATOM     23  O   LIG    1       -3.721  -2.877  -1.323  0.00  0.00    -0.245 OA
BRANCH  22  24
ATOM     24  O   LIG    1       -1.912  -3.710  -0.225  0.00  0.00    -0.465 OA
ATOM     25  C   LIG    1       -2.416  -5.038  -0.193  0.00  0.00    +0.280 C 
ENDBRANCH  22  24
ENDBRANCH  11  22
ENDBRANCH   1   8
BRANCH   1  26
ATOM     26  O   LIG    1        2.236  -1.104   0.314  0.00  0.00    -0.460 OA
BRANCH  26  27
ATOM     27  C   LIG    1        3.520  -1.216   0.936  0.00  0.00    +0.248 C 
BRANCH  27  28
ATOM     28  C   LIG    1        4.692  -0.693   0.070  0.00  0.00    +0.125 C 
BRANCH  28  29
ATOM     29  N   LIG    1        5.224  -1.681  -0.874  0.00  0.00    -0.297 NA
ATOM     30  C   LIG    1        6.403  -1.129  -1.555  0.00  0.00    +0.100 C 
ATOM     31  C   LIG    1        7.018  -2.180  -2.510  0.00  0.00    +0.100 C 
ATOM     32  N   LIG    1        6.041  -2.579  -3.540  0.00  0.00    -0.289 NA
ATOM     33  C   LIG    1        4.867  -3.134  -2.842  0.00  0.00    +0.100 C 
ATOM     34  C   LIG    1        4.246  -2.087  -1.889  0.00  0.00    +0.100 C 
BRANCH  32  35
ATOM     35  C   LIG    1        6.611  -3.528  -4.528  0.00  0.00    +0.117 C 
BRANCH  35  36
ATOM     36  C   LIG    1        5.589  -4.037  -5.556  0.00  0.00    -0.026 A 
ATOM     37  C   LIG    1        4.686  -3.162  -6.175  0.00  0.00    +0.005 A 
ATOM     38  C   LIG    1        3.757  -3.648  -7.090  0.00  0.00    +0.000 A 
ATOM     39  C   LIG    1        3.725  -5.009  -7.383  0.00  0.00    +0.000 A 
ATOM     40  C   LIG    1        4.617  -5.888  -6.773  0.00  0.00    +0.000 A 
ATOM     41  C   LIG    1        5.550  -5.402  -5.862  0.00  0.00    +0.005 A 
ENDBRANCH  35  36
BRANCH  35  42
ATOM     42  C   LIG    1        7.854  -2.995  -5.259  0.00  0.00    -0.026 A 
ATOM     43  C   LIG    1        7.951  -1.653  -5.652  0.00  0.00    +0.005 A 
ATOM     44  C   LIG    1        9.091  -1.196  -6.307  0.00  0.00    +0.000 A 
ATOM     45  C   LIG    1       10.135  -2.079  -6.571  0.00  0.00    +0.000 A 
ATOM     46  C   LIG    1       10.049  -3.416  -6.187  0.00  0.00    +0.000 A 
ATOM     47  C   LIG    1        8.908  -3.872  -5.531  0.00  0.00    +0.005 A 
ENDBRANCH  35  42
ENDBRANCH  32  35
ENDBRANCH  28  29
ENDBRANCH  27  28
ENDBRANCH  26  27
ENDBRANCH   1  26
TORSDOF 13
