REMARK  Name = DB09119
REMARK                            x       y       z     vdW  Elec       q    Type
REMARK                         _______ _______ _______ _____ _____    ______ ____
ROOT
ATOM      1  C   LIG    1        1.142   0.088  -0.160  0.00  0.00    +0.213 C 
ATOM      2  C   LIG    1        1.330  -1.448  -0.015  0.00  0.00    +0.086 C 
ATOM      3  C   LIG    1        1.405  -2.385  -1.241  0.00  0.00    -0.022 A 
ATOM      4  C   LIG    1        1.793  -3.712  -1.007  0.00  0.00    +0.005 A 
ATOM      5  C   LIG    1        1.885  -4.640  -2.039  0.00  0.00    +0.000 A 
ATOM      6  C   LIG    1        1.583  -4.258  -3.340  0.00  0.00    +0.002 A 
ATOM      7  C   LIG    1        1.189  -2.950  -3.599  0.00  0.00    +0.024 A 
ATOM      8  C   LIG    1        1.091  -1.997  -2.572  0.00  0.00    +0.046 A 
ATOM      9  N   LIG    1        0.674  -0.674  -2.814  0.00  0.00    -0.224 N 
ATOM     10  C   LIG    1       -0.552  -0.412  -3.374  0.00  0.00    +0.308 C 
ATOM     11  N   LIG    1       -0.850   0.871  -3.629  0.00  0.00    -0.313 N 
ATOM     12  H   LIG    1       -1.743   1.113  -4.032  0.00  0.00    +0.147 HD
ATOM     13  H   LIG    1       -0.183   1.600  -3.421  0.00  0.00    +0.147 HD
ATOM     14  O   LIG    1       -1.389  -1.282  -3.622  0.00  0.00    -0.252 OA
ATOM     15  C   LIG    1        1.665   0.314  -2.641  0.00  0.00    +0.049 A 
ATOM     16  C   LIG    1        2.392   0.886  -3.694  0.00  0.00    +0.024 A 
ATOM     17  C   LIG    1        3.345   1.871  -3.448  0.00  0.00    +0.002 A 
ATOM     18  C   LIG    1        3.584   2.294  -2.143  0.00  0.00    +0.000 A 
ATOM     19  C   LIG    1        2.873   1.728  -1.088  0.00  0.00    +0.009 A 
ATOM     20  C   LIG    1        1.912   0.737  -1.319  0.00  0.00    +0.015 A 
ENDROOT
BRANCH   1  21
ATOM     21  O   LIG    1       -0.257   0.388  -0.220  0.00  0.00    -0.456 OA
BRANCH  21  22
ATOM     22  C   LIG    1       -0.747   1.617   0.061  0.00  0.00    +0.305 C 
ATOM     23  C   LIG    1       -2.260   1.684  -0.102  0.00  0.00    +0.136 C 
ATOM     24  O   LIG    1       -0.094   2.602   0.411  0.00  0.00    -0.251 OA
ENDBRANCH  21  22
ENDBRANCH   1  21
TORSDOF 2
