REMARK  Name = DB09357
REMARK                            x       y       z     vdW  Elec       q    Type
REMARK                         _______ _______ _______ _____ _____    ______ ____
ROOT
ATOM      1  C   LIG    1        1.351   0.358   0.213  0.00  0.00    +0.208 C 
ENDROOT
BRANCH   1   2
ATOM      2  C   LIG    1        1.946   1.206  -0.941  0.00  0.00    +0.242 C 
ATOM      3  O   LIG    1        2.541   0.673  -1.881  0.00  0.00    -0.273 OA
ATOM      4  N   LIG    1        1.776   2.538  -0.847  0.00  0.00    -0.313 N 
ATOM      5  H   LIG    1        1.271   2.906  -0.054  0.00  0.00    +0.149 HD
BRANCH   4   6
ATOM      6  C   LIG    1        2.256   3.519  -1.819  0.00  0.00    +0.106 C 
BRANCH   6   7
ATOM      7  C   LIG    1        3.770   3.803  -1.720  0.00  0.00    +0.046 C 
BRANCH   7   8
ATOM      8  C   LIG    1        4.284   4.854  -2.720  0.00  0.00    +0.157 C 
BRANCH   8   9
ATOM      9  O   LIG    1        3.660   6.105  -2.513  0.00  0.00    -0.395 OA
ATOM     10  H   LIG    1        3.994   6.725  -3.165  0.00  0.00    +0.209 HD
ENDBRANCH   8   9
ENDBRANCH   7   8
ENDBRANCH   6   7
ENDBRANCH   4   6
ENDBRANCH   1   2
BRANCH   1  11
ATOM     11  C   LIG    1       -0.136  -0.130   0.004  0.00  0.00    +0.023 C 
ATOM     12  C   LIG    1       -1.081   1.086  -0.206  0.00  0.00    +0.016 C 
ATOM     13  C   LIG    1       -0.259  -1.064  -1.234  0.00  0.00    +0.016 C 
BRANCH  11  14
ATOM     14  C   LIG    1       -0.593  -0.901   1.284  0.00  0.00    +0.165 C 
BRANCH  14  15
ATOM     15  O   LIG    1       -1.932  -1.361   1.233  0.00  0.00    -0.394 OA
ATOM     16  H   LIG    1       -2.121  -1.840   2.043  0.00  0.00    +0.209 HD
ENDBRANCH  14  15
ENDBRANCH  11  14
ENDBRANCH   1  11
BRANCH   1  17
ATOM     17  O   LIG    1        2.217  -0.747   0.444  0.00  0.00    -0.382 OA
ATOM     18  H   LIG    1        3.107  -0.414   0.581  0.00  0.00    +0.210 HD
ENDBRANCH   1  17
TORSDOF 9
