REMARK  Name = DB09496
REMARK                            x       y       z     vdW  Elec       q    Type
REMARK                         _______ _______ _______ _____ _____    ______ ____
ROOT
ATOM      1  C   LIG    1       -2.010   1.254   0.098  0.00  0.00    +0.332 C 
ATOM      2  O   LIG    1       -2.818   0.321   0.101  0.00  0.00    -0.246 OA
ENDROOT
BRANCH   1   3
ATOM      3  C   LIG    1       -2.395   2.661   0.086  0.00  0.00    +0.092 C 
ATOM      4  C   LIG    1       -3.683   3.065   0.035  0.00  0.00    +0.015 C 
BRANCH   4   5
ATOM      5  C   LIG    1       -4.170   4.463   0.016  0.00  0.00    -0.025 A 
ATOM      6  C   LIG    1       -3.303   5.563   0.010  0.00  0.00    +0.011 A 
ATOM      7  C   LIG    1       -3.809   6.861  -0.005  0.00  0.00    +0.046 A 
ATOM      8  C   LIG    1       -5.195   7.080  -0.013  0.00  0.00    +0.120 A 
ATOM      9  C   LIG    1       -6.055   5.983  -0.009  0.00  0.00    +0.046 A 
ATOM     10  C   LIG    1       -5.549   4.686   0.006  0.00  0.00    +0.011 A 
BRANCH   8  11
ATOM     11  O   LIG    1       -5.787   8.329  -0.025  0.00  0.00    -0.495 OA
ATOM     12  C   LIG    1       -4.963   9.489  -0.019  0.00  0.00    +0.277 C 
ENDBRANCH   8  11
ENDBRANCH   4   5
ENDBRANCH   1   3
BRANCH   1  13
ATOM     13  O   LIG    1       -0.668   1.106   0.104  0.00  0.00    -0.461 OA
BRANCH  13  14
ATOM     14  C   LIG    1       -0.074  -0.189   0.101  0.00  0.00    +0.236 C 
BRANCH  14  15
ATOM     15  C   LIG    1        1.470  -0.093   0.039  0.00  0.00    +0.026 C 
BRANCH  15  16
ATOM     16  C   LIG    1        2.078   0.574   1.299  0.00  0.00    +0.003 C 
ATOM     17  C   LIG    1        1.791  -0.164   2.617  0.00  0.00    +0.004 C 
ENDBRANCH  15  16
BRANCH  15  18
ATOM     18  C   LIG    1        1.977   0.609  -1.248  0.00  0.00    +0.007 C 
BRANCH  18  19
ATOM     19  C   LIG    1        1.545  -0.062  -2.567  0.00  0.00    +0.000 C 
BRANCH  19  21
ATOM     20  C   LIG    1        1.693  -0.031  -5.123  0.00  0.00    +0.004 C 
ATOM     21  C   LIG    1        2.141   0.623  -3.809  0.00  0.00    -0.003 C 
ENDBRANCH  19  21
ENDBRANCH  18  19
ENDBRANCH  15  18
ENDBRANCH  14  15
ENDBRANCH  13  14
ENDBRANCH   1  13
TORSDOF 10
