REMARK  Name = DB09020
REMARK                            x       y       z     vdW  Elec       q    Type
REMARK                         _______ _______ _______ _____ _____    ______ ____
ROOT
ATOM      1  C   LIG    1        1.411   0.288   0.096  0.00  0.00    +0.097 C 
ENDROOT
BRANCH   1   5
ATOM      2  C   LIG    1       -2.908   0.020  -0.156  0.00  0.00    +0.132 A 
ATOM      3  C   LIG    1       -2.134  -1.135  -0.034  0.00  0.00    +0.046 A 
ATOM      4  C   LIG    1       -0.748  -1.036   0.054  0.00  0.00    +0.008 A 
ATOM      5  C   LIG    1       -0.124   0.217   0.038  0.00  0.00    -0.034 A 
ATOM      6  C   LIG    1       -0.908   1.372  -0.083  0.00  0.00    +0.008 A 
ATOM      7  C   LIG    1       -2.294   1.275  -0.169  0.00  0.00    +0.046 A 
BRANCH   2   8
ATOM      8  O   LIG    1       -4.279  -0.082  -0.222  0.00  0.00    -0.426 OA
BRANCH   8  10
ATOM      9  C   LIG    1       -6.407  -0.170  -1.312  0.00  0.00    +0.136 C 
ATOM     10  C   LIG    1       -4.892  -0.060  -1.435  0.00  0.00    +0.309 C 
ATOM     11  O   LIG    1       -4.350   0.035  -2.539  0.00  0.00    -0.251 OA
ENDBRANCH   8  10
ENDBRANCH   2   8
ENDBRANCH   1   5
BRANCH   1  12
ATOM     12  C   LIG    1        2.030   1.381  -0.790  0.00  0.00    +0.053 A 
ATOM     13  N   LIG    1        2.201   2.615  -0.236  0.00  0.00    -0.259 NA
ATOM     14  C   LIG    1        2.761   3.589  -0.997  0.00  0.00    +0.111 A 
ATOM     15  C   LIG    1        3.172   3.380  -2.314  0.00  0.00    +0.020 A 
ATOM     16  C   LIG    1        3.000   2.111  -2.870  0.00  0.00    +0.003 A 
ATOM     17  C   LIG    1        2.426   1.095  -2.103  0.00  0.00    +0.024 A 
ENDBRANCH   1  12
BRANCH   1  18
ATOM     18  C   LIG    1        1.966   0.262   1.529  0.00  0.00    -0.034 A 
ATOM     19  C   LIG    1        1.411   1.068   2.530  0.00  0.00    +0.008 A 
ATOM     20  C   LIG    1        1.907   1.015   3.829  0.00  0.00    +0.046 A 
ATOM     21  C   LIG    1        2.963   0.156   4.138  0.00  0.00    +0.132 A 
ATOM     22  C   LIG    1        3.506  -0.668   3.149  0.00  0.00    +0.046 A 
ATOM     23  C   LIG    1        3.009  -0.614   1.850  0.00  0.00    +0.008 A 
BRANCH  21  24
ATOM     24  O   LIG    1        3.438   0.086   5.428  0.00  0.00    -0.426 OA
BRANCH  24  25
ATOM     25  C   LIG    1        4.467   0.891   5.803  0.00  0.00    +0.309 C 
ATOM     26  O   LIG    1        5.055   1.718   5.102  0.00  0.00    -0.251 OA
ATOM     27  C   LIG    1        4.861   0.672   7.259  0.00  0.00    +0.136 C 
ENDBRANCH  24  25
ENDBRANCH  21  24
ENDBRANCH   1  18
TORSDOF 7
