REMARK  Name = DB09079
REMARK                            x       y       z     vdW  Elec       q    Type
REMARK                         _______ _______ _______ _____ _____    ______ ____
ROOT
ATOM      1  C   LIG    1        2.208  -1.891   0.057  0.00  0.00    +0.051 C 
ATOM      2  C   LIG    1        3.466  -2.003  -0.464  0.00  0.00    +0.068 C 
ATOM      3  C   LIG    1        4.592  -2.903  -0.146  0.00  0.00    +0.010 A 
ATOM      4  C   LIG    1        4.799  -3.908   0.804  0.00  0.00    +0.011 A 
ATOM      5  C   LIG    1        6.013  -4.598   0.840  0.00  0.00    +0.016 A 
ATOM      6  C   LIG    1        7.048  -4.291  -0.064  0.00  0.00    +0.061 A 
ATOM      7  C   LIG    1        6.835  -3.265  -0.999  0.00  0.00    +0.039 A 
ATOM      8  C   LIG    1        5.614  -2.592  -1.015  0.00  0.00    +0.042 A 
ATOM      9  N   LIG    1        5.211  -1.555  -1.815  0.00  0.00    -0.281 N 
ATOM     10  H   LIG    1        5.790  -1.130  -2.524  0.00  0.00    +0.155 HD
ATOM     11  C   LIG    1        3.965  -1.139  -1.537  0.00  0.00    +0.251 C 
ATOM     12  O   LIG    1        3.399  -0.212  -2.117  0.00  0.00    -0.270 OA
ENDROOT
BRANCH   1  13
ATOM     13  C   LIG    1        1.699  -2.833   1.091  0.00  0.00    -0.003 A 
ATOM     14  C   LIG    1        1.307  -2.359   2.350  0.00  0.00    +0.010 A 
ATOM     15  C   LIG    1        0.814  -3.239   3.310  0.00  0.00    +0.001 A 
ATOM     16  C   LIG    1        0.706  -4.595   3.012  0.00  0.00    +0.000 A 
ATOM     17  C   LIG    1        1.085  -5.079   1.763  0.00  0.00    +0.001 A 
ATOM     18  C   LIG    1        1.578  -4.198   0.803  0.00  0.00    +0.010 A 
ENDBRANCH   1  13
BRANCH   1  19
ATOM     19  N   LIG    1        1.283  -0.906  -0.296  0.00  0.00    -0.313 N 
ATOM     20  H   LIG    1        1.657  -0.036  -0.648  0.00  0.00    +0.152 HD
BRANCH  19  25
ATOM     21  C   LIG    1       -2.178   0.350  -0.179  0.00  0.00    +0.025 A 
ATOM     22  C   LIG    1       -2.910  -0.822  -0.382  0.00  0.00    +0.036 A 
ATOM     23  C   LIG    1       -2.254  -2.046  -0.539  0.00  0.00    +0.025 A 
ATOM     24  C   LIG    1       -0.864  -2.092  -0.512  0.00  0.00    +0.025 A 
ATOM     25  C   LIG    1       -0.124  -0.921  -0.305  0.00  0.00    +0.031 A 
ATOM     26  C   LIG    1       -0.787   0.298  -0.151  0.00  0.00    +0.025 A 
BRANCH  22  27
ATOM     27  N   LIG    1       -4.313  -0.756  -0.411  0.00  0.00    -0.273 N 
ATOM     28  C   LIG    1       -4.990  -0.644   0.887  0.00  0.00    +0.138 C 
ATOM     29  C   LIG    1       -5.029  -0.931  -1.558  0.00  0.00    +0.234 C 
ATOM     30  O   LIG    1       -6.260  -1.040  -1.544  0.00  0.00    -0.274 OA
BRANCH  29  31
ATOM     31  C   LIG    1       -4.269  -0.976  -2.916  0.00  0.00    +0.181 C 
BRANCH  31  32
ATOM     32  N   LIG    1       -5.167  -0.845  -4.077  0.00  0.00    -0.292 NA
ATOM     33  C   LIG    1       -5.617   0.546  -4.269  0.00  0.00    +0.100 C 
ATOM     34  C   LIG    1       -6.579   0.636  -5.478  0.00  0.00    +0.099 C 
ATOM     35  N   LIG    1       -5.888   0.200  -6.697  0.00  0.00    -0.303 NA
ATOM     36  C   LIG    1       -6.780   0.295  -7.847  0.00  0.00    +0.105 C 
ATOM     37  C   LIG    1       -5.432  -1.184  -6.519  0.00  0.00    +0.099 C 
ATOM     38  C   LIG    1       -4.477  -1.273  -5.303  0.00  0.00    +0.100 C 
ENDBRANCH  31  32
ENDBRANCH  29  31
ENDBRANCH  22  27
ENDBRANCH  19  25
ENDBRANCH   1  19
BRANCH   6  39
ATOM     39  C   LIG    1        8.362  -5.016  -0.051  0.00  0.00    +0.339 C 
ATOM     40  O   LIG    1        9.291  -4.748  -0.819  0.00  0.00    -0.245 OA
BRANCH  39  41
ATOM     41  O   LIG    1        8.424  -5.997   0.885  0.00  0.00    -0.464 OA
ATOM     42  C   LIG    1        9.593  -6.791   1.037  0.00  0.00    +0.280 C 
ENDBRANCH  39  41
ENDBRANCH   6  39
TORSDOF 8
