REMARK  Name = DB09382
REMARK                            x       y       z     vdW  Elec       q    Type
REMARK                         _______ _______ _______ _____ _____    ______ ____
ROOT
ATOM      1  C   LIG    1       -0.813   1.043  -0.165  0.00  0.00    +0.246 C 
ATOM      2  O   LIG    1       -0.454   2.202  -0.373  0.00  0.00    -0.270 OA
ATOM      3  N   LIG    1        0.023   0.005   0.027  0.00  0.00    -0.301 N 
ATOM      4  H   LIG    1       -0.374  -0.899   0.236  0.00  0.00    +0.150 HD
ENDROOT
BRANCH   1   5
ATOM      5  C   LIG    1       -2.270   0.691  -0.106  0.00  0.00    +0.050 A 
ATOM      6  C   LIG    1       -2.881   0.533   1.145  0.00  0.00    +0.014 A 
ATOM      7  C   LIG    1       -4.233   0.202   1.235  0.00  0.00    +0.001 A 
ATOM      8  C   LIG    1       -4.985   0.022   0.076  0.00  0.00    +0.001 A 
ATOM      9  C   LIG    1       -4.384   0.173  -1.173  0.00  0.00    +0.015 A 
ATOM     10  C   LIG    1       -3.031   0.505  -1.275  0.00  0.00    +0.025 A 
ATOM     11  I   LIG    1       -2.221   0.697  -3.204  0.00  0.00    -0.043 I 
ENDBRANCH   1   5
BRANCH   3  12
ATOM     12  C   LIG    1        1.494   0.083   0.027  0.00  0.00    +0.225 C 
BRANCH  12  13
ATOM     13  C   LIG    1        2.156   0.093  -1.377  0.00  0.00    +0.322 C 
ATOM     14  O   LIG    1        3.382   0.347  -1.398  0.00  0.00    -0.249 OA
BRANCH  13  15
ATOM     15  O   LIG    1        1.481  -0.166  -2.401  0.00  0.00    -0.480 OA
ATOM     16  H   LIG    1        1.887  -0.157  -3.245  0.00  0.00    +0.295 HD
ENDBRANCH  13  15
ENDBRANCH  12  13
ENDBRANCH   3  12
TORSDOF 4
