REMARK  Name = DB09133
REMARK                            x       y       z     vdW  Elec       q    Type
REMARK                         _______ _______ _______ _____ _____    ______ ____
ROOT
ATOM      1  C   LIG    1        1.461  -0.032   0.003  0.00  0.00    +0.061 A 
ATOM      2  C   LIG    1        2.151  -0.034   1.226  0.00  0.00    +0.051 A 
ATOM      3  I   LIG    1        1.059  -0.120   3.036  0.00  0.00    -0.041 I 
ATOM      4  C   LIG    1        3.557   0.014   1.229  0.00  0.00    +0.088 A 
ATOM      5  C   LIG    1        4.267   0.052   0.012  0.00  0.00    +0.042 A 
ATOM      6  I   LIG    1        6.385   0.122   0.020  0.00  0.00    -0.042 I 
ATOM      7  C   LIG    1        3.564   0.038  -1.210  0.00  0.00    +0.065 A 
ATOM      8  C   LIG    1        2.157  -0.011  -1.215  0.00  0.00    +0.049 A 
ATOM      9  I   LIG    1        1.075  -0.061  -3.032  0.00  0.00    -0.041 I 
ENDROOT
BRANCH   1  12
ATOM     10  C   LIG    1       -2.230   0.769   0.003  0.00  0.00    +0.109 C 
ATOM     11  C   LIG    1       -0.726   1.018   0.004  0.00  0.00    +0.214 C 
ATOM     12  N   LIG    1        0.060  -0.077  -0.000  0.00  0.00    -0.284 N 
ATOM     13  H   LIG    1       -0.370  -0.991  -0.003  0.00  0.00    +0.155 HD
ATOM     14  O   LIG    1       -0.303   2.175   0.009  0.00  0.00    -0.276 OA
ENDBRANCH   1  12
BRANCH   7  15
ATOM     15  C   LIG    1        4.315   0.069  -2.513  0.00  0.00    +0.246 C 
ATOM     16  N   LIG    1        4.553   1.301  -2.991  0.00  0.00    -0.314 N 
ATOM     17  H   LIG    1        4.221   2.103  -2.475  0.00  0.00    +0.149 HD
ATOM     18  C   LIG    1        5.271   1.562  -4.231  0.00  0.00    +0.128 C 
ATOM     19  O   LIG    1        4.667  -0.976  -3.061  0.00  0.00    -0.270 OA
ENDBRANCH   7  15
BRANCH   4  20
ATOM     20  C   LIG    1        4.300   0.023   2.535  0.00  0.00    +0.339 C 
ATOM     21  O   LIG    1        4.660  -1.013   3.091  0.00  0.00    -0.245 OA
BRANCH  20  22
ATOM     22  O   LIG    1        4.526   1.276   3.025  0.00  0.00    -0.477 OA
ATOM     23  H   LIG    1        5.003   1.259   3.857  0.00  0.00    +0.295 HD
ENDBRANCH  20  22
ENDBRANCH   4  20
TORSDOF 4
