REMARK  Name = DB09352
REMARK                            x       y       z     vdW  Elec       q    Type
REMARK                         _______ _______ _______ _____ _____    ______ ____
ROOT
ATOM      1  C   LIG    1       -0.528   1.488  -0.067  0.00  0.00    -0.046 A 
ATOM      2  C   LIG    1       -0.862   2.152  -1.250  0.00  0.00    +0.007 A 
ATOM      3  C   LIG    1       -1.348   3.457  -1.203  0.00  0.00    +0.045 A 
ATOM      4  C   LIG    1       -1.500   4.093   0.029  0.00  0.00    +0.117 A 
ATOM      5  C   LIG    1       -1.171   3.434   1.212  0.00  0.00    +0.045 A 
ATOM      6  C   LIG    1       -0.685   2.130   1.164  0.00  0.00    +0.007 A 
ENDROOT
BRANCH   4   7
ATOM      7  O   LIG    1       -1.976   5.376   0.076  0.00  0.00    -0.507 OA
ATOM      8  H   LIG    1       -2.166   5.736  -0.793  0.00  0.00    +0.292 HD
ENDBRANCH   4   7
BRANCH   1   9
ATOM      9  C   LIG    1        0.007   0.061  -0.113  0.00  0.00    +0.053 C 
BRANCH   9  11
ATOM     10  C   LIG    1        2.036  -1.493   0.073  0.00  0.00    +0.024 C 
ATOM     11  C   LIG    1        1.548  -0.039  -0.024  0.00  0.00    +0.052 C 
BRANCH  11  12
ATOM     12  N   LIG    1        2.171   0.586  -1.179  0.00  0.00    -0.327 NA
ATOM     13  H   LIG    1        1.882   0.107  -2.019  0.00  0.00    +0.118 HD
ATOM     14  H   LIG    1        3.174   0.478  -1.121  0.00  0.00    +0.118 HD
ENDBRANCH  11  12
ENDBRANCH   9  11
ENDBRANCH   1   9
TORSDOF 4
