REMARK  Name = DB09018
REMARK                            x       y       z     vdW  Elec       q    Type
REMARK                         _______ _______ _______ _____ _____    ______ ____
ROOT
ATOM      1 BR   LIG    1       -0.146   4.321  -3.192  0.00  0.00    -0.048 Br
ATOM      2  C   LIG    1       -1.000   4.189  -1.490  0.00  0.00    +0.039 A 
ATOM      3  C   LIG    1       -1.759   5.238  -0.968  0.00  0.00    +0.042 A 
ATOM      4  C   LIG    1       -2.360   5.100   0.282  0.00  0.00    +0.070 A 
ATOM      5  C   LIG    1       -2.219   3.919   1.035  0.00  0.00    +0.134 A 
ATOM      6  C   LIG    1       -1.452   2.859   0.503  0.00  0.00    +0.079 A 
ATOM      7  C   LIG    1       -0.852   3.015  -0.757  0.00  0.00    +0.033 A 
ENDROOT
BRANCH   6   8
ATOM      8  C   LIG    1       -1.243   1.572   1.275  0.00  0.00    +0.248 C 
ATOM      9  N   LIG    1       -1.143   0.451   0.533  0.00  0.00    -0.313 N 
ATOM     10  H   LIG    1       -1.279   0.525  -0.464  0.00  0.00    +0.149 HD
ATOM     11  O   LIG    1       -1.163   1.569   2.505  0.00  0.00    -0.270 OA
BRANCH   9  12
ATOM     12  C   LIG    1       -0.870  -0.891   1.053  0.00  0.00    +0.086 C 
BRANCH  12  13
ATOM     13  C   LIG    1        0.578  -1.073   1.563  0.00  0.00    -0.060 C 
BRANCH  13  14
ATOM     14  N   LIG    1        1.574  -1.084   0.375  0.00  0.00    +0.380 N 
ATOM     15  H   LIG    1        1.183  -0.474  -0.329  0.00  0.00    -0.082 HD
BRANCH  14  16
ATOM     16  C   LIG    1        1.684  -2.487  -0.272  0.00  0.00    -0.082 C 
ATOM     17  C   LIG    1        2.170  -2.387  -1.728  0.00  0.00    -0.017 C 
ENDBRANCH  14  16
BRANCH  14  18
ATOM     18  C   LIG    1        2.951  -0.482   0.749  0.00  0.00    -0.082 C 
ATOM     19  C   LIG    1        2.865   1.052   0.841  0.00  0.00    -0.017 C 
ENDBRANCH  14  18
ENDBRANCH  13  14
ENDBRANCH  12  13
ENDBRANCH   9  12
ENDBRANCH   6   8
BRANCH   3  20
ATOM     20  N   LIG    1       -1.928   6.430  -1.675  0.00  0.00    -0.357 N 
ATOM     21  H   LIG    1       -1.375   6.572  -2.508  0.00  0.00    +0.142 HD
ATOM     22  H   LIG    1       -2.343   7.218  -1.199  0.00  0.00    +0.142 HD
ENDBRANCH   3  20
BRANCH   5  23
ATOM     23  O   LIG    1       -2.820   3.749   2.273  0.00  0.00    -0.494 OA
ATOM     24  C   LIG    1       -3.590   4.802   2.844  0.00  0.00    +0.277 C 
ENDBRANCH   5  23
TORSDOF 8
