REMARK  Name = DB09550
REMARK                            x       y       z     vdW  Elec       q    Type
REMARK                         _______ _______ _______ _____ _____    ______ ____
ROOT
ATOM      1  C   LIG    1       -0.407   2.210  -1.596  0.00  0.00    +0.190 C 
ATOM      2  C   LIG    1       -1.018   1.331  -2.733  0.00  0.00    +0.211 C 
ATOM      3  O   LIG    1       -1.323   1.834  -3.819  0.00  0.00    -0.288 OA
ATOM      4  C   LIG    1       -1.220  -0.124  -2.464  0.00  0.00    +0.121 C 
ATOM      5  C   LIG    1       -0.725  -0.686  -1.321  0.00  0.00    +0.127 C 
ATOM      6  C   LIG    1        0.061   0.056  -0.220  0.00  0.00    +0.129 C 
ATOM      7  C   LIG    1       -0.487   1.522  -0.196  0.00  0.00    +0.061 C 
ATOM      8  C   LIG    1       -1.932   1.577   0.348  0.00  0.00    +0.020 C 
ATOM      9  C   LIG    1       -2.459   3.019   0.590  0.00  0.00    +0.062 C 
ATOM     10  C   LIG    1       -4.014   3.088   0.768  0.00  0.00    +0.096 C 
ATOM     11  C   LIG    1       -4.408   4.550   1.065  0.00  0.00    -0.001 A 
ATOM     12  C   LIG    1       -3.683   5.626   0.481  0.00  0.00    +0.069 A 
ATOM     13  C   LIG    1       -2.509   5.376  -0.456  0.00  0.00    +0.197 C 
ATOM     14  O   LIG    1       -1.989   6.305  -1.079  0.00  0.00    -0.287 OA
ATOM     15  C   LIG    1       -4.101   6.955   0.771  0.00  0.00    +0.128 A 
ATOM     16  C   LIG    1       -5.191   7.203   1.600  0.00  0.00    +0.046 A 
ATOM     17  C   LIG    1       -5.899   6.153   2.155  0.00  0.00    +0.004 A 
ATOM     18  C   LIG    1       -5.510   4.850   1.886  0.00  0.00    +0.007 A 
ATOM     19  C   LIG    1       -4.481   2.098   1.875  0.00  0.00    +0.047 C 
ATOM     20  C   LIG    1       -1.997   3.976  -0.531  0.00  0.00    +0.047 C 
ATOM     21  C   LIG    1       -1.113   3.595  -1.505  0.00  0.00    +0.141 C 
ENDROOT
BRANCH   4  22
ATOM     22  C   LIG    1       -1.962  -0.967  -3.395  0.00  0.00    +0.248 C 
ATOM     23  O   LIG    1       -2.924  -1.655  -3.054  0.00  0.00    -0.270 OA
ATOM     24  N   LIG    1       -1.518  -0.972  -4.657  0.00  0.00    -0.325 N 
ATOM     25  H   LIG    1       -0.733  -0.395  -4.923  0.00  0.00    +0.145 HD
ATOM     26  H   LIG    1       -1.976  -1.541  -5.353  0.00  0.00    +0.145 HD
ENDBRANCH   4  22
BRANCH   6  27
ATOM     27  N   LIG    1        1.533  -0.073  -0.363  0.00  0.00    -0.299 NA
ATOM     28  C   LIG    1        2.011  -1.446  -0.546  0.00  0.00    +0.105 C 
ATOM     29  C   LIG    1        2.243   0.477   0.795  0.00  0.00    +0.105 C 
ENDBRANCH   6  27
BRANCH   1  30
ATOM     30  O   LIG    1        0.967   2.400  -1.924  0.00  0.00    -0.373 OA
ATOM     31  H   LIG    1        1.429   1.571  -1.776  0.00  0.00    +0.211 HD
ENDBRANCH   1  30
BRANCH   5  32
ATOM     32  O   LIG    1       -0.912  -1.984  -0.934  0.00  0.00    -0.509 OA
ATOM     33  H   LIG    1       -0.474  -2.135  -0.093  0.00  0.00    +0.292 HD
ENDBRANCH   5  32
BRANCH  15  34
ATOM     34  O   LIG    1       -3.473   8.075   0.282  0.00  0.00    -0.506 OA
ATOM     35  H   LIG    1       -3.882   8.892   0.576  0.00  0.00    +0.292 HD
ENDBRANCH  15  34
BRANCH  10  36
ATOM     36  O   LIG    1       -4.661   2.636  -0.412  0.00  0.00    -0.384 OA
ATOM     37  H   LIG    1       -5.601   2.563  -0.234  0.00  0.00    +0.211 HD
ENDBRANCH  10  36
BRANCH  21  38
ATOM     38  O   LIG    1       -0.715   4.392  -2.545  0.00  0.00    -0.507 OA
ATOM     39  H   LIG    1       -0.084   3.913  -3.089  0.00  0.00    +0.292 HD
ENDBRANCH  21  38
TORSDOF 7
