REMARK  Name = DB09117
REMARK                            x       y       z     vdW  Elec       q    Type
REMARK                         _______ _______ _______ _____ _____    ______ ____
ROOT
ATOM      1  C   LIG    1       -0.044   0.019  -0.016  0.00  0.00    +0.070 C 
ATOM      2  C   LIG    1        1.472   0.003  -0.047  0.00  0.00    +0.253 C 
ATOM      3  O   LIG    1        1.899   0.751  -1.148  0.00  0.00    -0.323 OA
ATOM      4  C   LIG    1        3.292   0.843  -1.204  0.00  0.00    +0.253 C 
ATOM      5  O   LIG    1        3.764   1.440  -0.027  0.00  0.00    -0.323 OA
ATOM      6  C   LIG    1        3.337   0.792   1.145  0.00  0.00    +0.253 C 
ATOM      7  C   LIG    1        4.098  -0.515   1.394  0.00  0.00    +0.070 C 
ATOM      8  C   LIG    1        3.667   1.730  -2.376  0.00  0.00    +0.070 C 
ATOM      9  O   LIG    1        1.945   0.602   1.129  0.00  0.00    -0.323 OA
ENDROOT
TORSDOF 0
