REMARK  Name = DB09342
REMARK                            x       y       z     vdW  Elec       q    Type
REMARK                         _______ _______ _______ _____ _____    ______ ____
ROOT
ATOM      1  C   LIG    1       -1.878   1.383  -0.046  0.00  0.00    +0.101 A 
ATOM      2  C   LIG    1       -2.524   0.132  -0.021  0.00  0.00    +0.020 A 
ATOM      3  C   LIG    1       -3.912   0.033   0.006  0.00  0.00    +0.024 A 
ATOM      4  C   LIG    1       -4.689   1.185   0.009  0.00  0.00    +0.028 A 
ATOM      5  C   LIG    1       -4.074   2.434  -0.014  0.00  0.00    +0.069 A 
ATOM      6  C   LIG    1       -2.672   2.556  -0.041  0.00  0.00    +0.136 A 
ENDROOT
BRANCH   4   7
ATOM      7  N   LIG    1       -6.079   1.089   0.036  0.00  0.00    -0.358 N 
ATOM      8  H   LIG    1       -6.636   1.931   0.039  0.00  0.00    +0.142 HD
ATOM      9  H   LIG    1       -6.513   0.177   0.055  0.00  0.00    +0.142 HD
ENDBRANCH   4   7
BRANCH   1  10
ATOM     10  C   LIG    1       -0.367   1.448  -0.066  0.00  0.00    +0.343 C 
ATOM     11  O   LIG    1        0.282   2.498  -0.057  0.00  0.00    -0.245 OA
BRANCH  10  12
ATOM     12  O   LIG    1        0.222   0.225  -0.094  0.00  0.00    -0.460 OA
BRANCH  12  13
ATOM     13  C   LIG    1        1.639   0.083  -0.084  0.00  0.00    +0.248 C 
BRANCH  13  14
ATOM     14  C   LIG    1        2.030  -1.408   0.001  0.00  0.00    +0.125 C 
BRANCH  14  15
ATOM     15  N   LIG    1        1.461  -2.127   1.152  0.00  0.00    -0.300 NA
BRANCH  15  16
ATOM     16  C   LIG    1        1.931  -1.562   2.429  0.00  0.00    +0.081 C 
ATOM     17  C   LIG    1        1.280  -2.182   3.678  0.00  0.00    +0.020 C 
ENDBRANCH  15  16
BRANCH  15  18
ATOM     18  C   LIG    1        1.736  -3.567   1.025  0.00  0.00    +0.081 C 
ATOM     19  C   LIG    1        0.486  -4.403   1.348  0.00  0.00    +0.020 C 
ENDBRANCH  15  18
ENDBRANCH  14  15
ENDBRANCH  13  14
ENDBRANCH  12  13
ENDBRANCH  10  12
ENDBRANCH   1  10
BRANCH   6  20
ATOM     20  O   LIG    1       -2.043   3.790  -0.064  0.00  0.00    -0.491 OA
BRANCH  20  21
ATOM     21  C   LIG    1       -2.802   4.995  -0.006  0.00  0.00    +0.229 C 
BRANCH  21  22
ATOM     22  C   LIG    1       -1.843   6.195   0.017  0.00  0.00    +0.038 C 
ATOM     23  C   LIG    1       -0.908   6.210   1.236  0.00  0.00    +0.007 C 
ENDBRANCH  21  22
ENDBRANCH  20  21
ENDBRANCH   6  20
TORSDOF 11
