REMARK  Name = DB09274
REMARK                            x       y       z     vdW  Elec       q    Type
REMARK                         _______ _______ _______ _____ _____    ______ ____
ROOT
ATOM      1  C   LIG    1       -2.602   0.872   1.262  0.00  0.00    +0.161 C 
ATOM      2  C   LIG    1       -4.171   0.911   1.410  0.00  0.00    +0.032 C 
ATOM      3  C   LIG    1       -4.870   0.059   0.306  0.00  0.00    -0.008 C 
ATOM      4  C   LIG    1       -6.411   0.141   0.284  0.00  0.00    +0.008 C 
ATOM      5  C   LIG    1       -4.412  -1.408   0.482  0.00  0.00    +0.004 C 
ATOM      6  C   LIG    1       -2.882  -1.547   0.411  0.00  0.00    +0.007 C 
ATOM      7  C   LIG    1       -4.791   2.308   1.702  0.00  0.00    +0.012 C 
ATOM      8  C   LIG    1       -4.195   3.499   0.940  0.00  0.00    +0.068 C 
ATOM      9  C   LIG    1       -2.647   3.574   0.896  0.00  0.00    +0.203 C 
ATOM     10  C   LIG    1       -2.103   4.993   0.653  0.00  0.00    +0.077 C 
ATOM     11  O   LIG    1       -2.045   3.130   2.121  0.00  0.00    -0.199 OA
ATOM     12  O   LIG    1       -2.213   2.823  -0.240  0.00  0.00    -0.314 OA
ATOM     13  O   LIG    1       -2.056   1.651   2.338  0.00  0.00    -0.220 OA
ATOM     14  C   LIG    1       -2.125  -0.612   1.408  0.00  0.00    +0.038 C 
ATOM     15  C   LIG    1       -0.577  -0.712   1.272  0.00  0.00    +0.061 C 
ATOM     16  C   LIG    1       -0.033  -2.150   1.434  0.00  0.00    +0.014 C 
ATOM     17  C   LIG    1       -0.139  -0.026  -0.038  0.00  0.00    +0.316 C 
ATOM     18  O   LIG    1       -0.601   1.301  -0.044  0.00  0.00    -0.309 OA
ATOM     19  C   LIG    1       -1.998   1.448  -0.057  0.00  0.00    +0.293 C 
ENDROOT
BRANCH  17  20
ATOM     20  O   LIG    1        1.264  -0.051  -0.086  0.00  0.00    -0.435 OA
BRANCH  20  21
ATOM     21  C   LIG    1        1.853   0.213  -1.286  0.00  0.00    +0.310 C 
ATOM     22  O   LIG    1        1.279   0.493  -2.343  0.00  0.00    -0.251 OA
BRANCH  21  23
ATOM     23  C   LIG    1        3.381   0.118  -1.188  0.00  0.00    +0.132 C 
BRANCH  23  24
ATOM     24  C   LIG    1        4.133   0.341  -2.523  0.00  0.00    +0.131 C 
BRANCH  24  25
ATOM     25  C   LIG    1        5.628   0.009  -2.454  0.00  0.00    +0.305 C 
ATOM     26  O   LIG    1        6.201  -0.399  -1.444  0.00  0.00    -0.251 OA
BRANCH  25  27
ATOM     27  O   LIG    1        6.235   0.225  -3.657  0.00  0.00    -0.481 OA
ATOM     28  H   LIG    1        7.173   0.021  -3.633  0.00  0.00    +0.295 HD
ENDBRANCH  25  27
ENDBRANCH  24  25
ENDBRANCH  23  24
ENDBRANCH  21  23
ENDBRANCH  20  21
ENDBRANCH  17  20
TORSDOF 6
