REMARK  Name = DB09225
REMARK                            x       y       z     vdW  Elec       q    Type
REMARK                         _______ _______ _______ _____ _____    ______ ____
ROOT
ATOM      1  C   LIG    1       -1.875   1.450   0.132  0.00  0.00    +0.129 C 
ATOM      2  C   LIG    1       -2.415   2.231  -1.008  0.00  0.00    +0.032 A 
ATOM      3  C   LIG    1       -1.848   2.029  -2.275  0.00  0.00    +0.032 A 
ATOM      4  C   LIG    1       -2.321   2.711  -3.395  0.00  0.00    +0.042 A 
ATOM      5 CL   LIG    1       -1.603   2.438  -4.941  0.00  0.00    -0.084 Cl
ATOM      6  C   LIG    1       -3.375   3.610  -3.265  0.00  0.00    +0.021 A 
ATOM      7  C   LIG    1       -3.948   3.828  -2.015  0.00  0.00    +0.017 A 
ATOM      8  C   LIG    1       -3.478   3.151  -0.886  0.00  0.00    +0.023 A 
ATOM      9  S   LIG    1       -4.221   3.492   0.681  0.00  0.00    -0.088 S 
ATOM     10  C   LIG    1       -4.881   1.924   1.161  0.00  0.00    +0.020 A 
ATOM     11  C   LIG    1       -6.255   1.800   1.385  0.00  0.00    +0.015 A 
ATOM     12  C   LIG    1       -6.798   0.589   1.807  0.00  0.00    +0.001 A 
ATOM     13  C   LIG    1       -5.968  -0.510   2.012  0.00  0.00    +0.001 A 
ATOM     14  C   LIG    1       -4.597  -0.395   1.789  0.00  0.00    +0.009 A 
ATOM     15  C   LIG    1       -4.037   0.812   1.354  0.00  0.00    -0.008 A 
ATOM     16  C   LIG    1       -2.580   0.851   1.121  0.00  0.00    +0.055 C 
ENDROOT
BRANCH   1  17
ATOM     17  O   LIG    1       -0.519   1.408   0.177  0.00  0.00    -0.490 OA
BRANCH  17  18
ATOM     18  C   LIG    1        0.078   0.114   0.073  0.00  0.00    +0.244 C 
BRANCH  18  19
ATOM     19  C   LIG    1        1.593   0.260  -0.176  0.00  0.00    +0.124 C 
BRANCH  19  20
ATOM     20  N   LIG    1        2.290   1.043   0.851  0.00  0.00    -0.305 NA
ATOM     21  C   LIG    1        2.275   0.389   2.159  0.00  0.00    +0.104 C 
ATOM     22  C   LIG    1        3.673   1.271   0.444  0.00  0.00    +0.104 C 
ENDBRANCH  19  20
ENDBRANCH  18  19
ENDBRANCH  17  18
ENDBRANCH   1  17
TORSDOF 4
