REMARK  Name = DB09460
REMARK                            x       y       z     vdW  Elec       q    Type
REMARK                         _______ _______ _______ _____ _____    ______ ____
ROOT
ATOM      1  C   LIG    1       -0.193   0.632  -0.214  0.00  0.00    +0.505 C 
ATOM      2  O   LIG    1        0.536  -0.022   0.562  0.00  0.00    -0.203 OA
ENDROOT
BRANCH   1   3
ATOM      3  O   LIG    1       -1.056   1.412   0.245  0.00  0.00    -0.450 OA
ATOM      4  H   LIG    1       -1.602   1.902  -0.337  0.00  0.00    +0.299 HD
ENDBRANCH   1   3
BRANCH   1   5
ATOM      5  O   LIG    1       -0.059   0.508  -1.451  0.00  0.00    -0.450 OA
ATOM      6  H   LIG    1       -0.605   0.998  -2.033  0.00  0.00    +0.299 HD
ENDBRANCH   1   5
TORSDOF 2
