REMARK  Name = DB09330
REMARK                            x       y       z     vdW  Elec       q    Type
REMARK                         _______ _______ _______ _____ _____    ______ ____
ROOT
ATOM      1  C   LIG    1       -2.764  -0.442  -0.365  0.00  0.00    +0.078 A 
ATOM      2  C   LIG    1       -2.228   0.841  -0.253  0.00  0.00    +0.052 A 
ATOM      3  C   LIG    1       -0.850   1.052  -0.101  0.00  0.00    +0.057 A 
ATOM      4  C   LIG    1        0.023  -0.059  -0.059  0.00  0.00    +0.055 A 
ATOM      5  C   LIG    1       -0.532  -1.343  -0.147  0.00  0.00    +0.072 A 
ATOM      6  C   LIG    1       -1.913  -1.560  -0.282  0.00  0.00    +0.143 A 
ENDROOT
BRANCH   3   7
ATOM      7  N   LIG    1       -0.341   2.366  -0.102  0.00  0.00    -0.280 N 
ATOM      8  H   LIG    1        0.556   2.480  -0.552  0.00  0.00    +0.155 HD
ATOM      9  C   LIG    1       -0.837   3.434   0.558  0.00  0.00    +0.241 C 
ATOM     10  O   LIG    1       -1.844   3.405   1.271  0.00  0.00    -0.271 OA
BRANCH   9  11
ATOM     11  C   LIG    1       -0.058   4.630   0.336  0.00  0.00    +0.060 C 
ATOM     12  C   LIG    1       -0.360   5.813   0.904  0.00  0.00    +0.013 C 
ENDBRANCH   9  11
ENDBRANCH   3   7
BRANCH   1  13
ATOM     13  N   LIG    1       -4.160  -0.526  -0.526  0.00  0.00    -0.281 N 
ATOM     14  H   LIG    1       -4.675   0.201  -0.051  0.00  0.00    +0.155 HD
BRANCH  13  18
ATOM     15  C   LIG    1       -6.649  -3.079  -2.592  0.00  0.00    +0.048 A 
ATOM     16  C   LIG    1       -7.126  -2.233  -1.583  0.00  0.00    +0.078 A 
ATOM     17  N   LIG    1       -6.294  -1.396  -0.904  0.00  0.00    -0.214 NA
ATOM     18  C   LIG    1       -4.975  -1.431  -1.223  0.00  0.00    +0.220 A 
ATOM     19  N   LIG    1       -4.432  -2.214  -2.196  0.00  0.00    -0.223 NA
ATOM     20  C   LIG    1       -5.281  -3.035  -2.865  0.00  0.00    +0.116 A 
BRANCH  16  21
ATOM     21  C   LIG    1       -8.575  -2.176  -1.218  0.00  0.00    +0.026 A 
ATOM     22  C   LIG    1       -9.307  -1.097  -0.597  0.00  0.00    +0.009 A 
ATOM     23  C   LIG    1       -8.964   0.188  -0.138  0.00  0.00    +0.010 A 
ATOM     24  C   LIG    1       -9.945   0.997   0.432  0.00  0.00    +0.001 A 
ATOM     25  C   LIG    1      -11.258   0.555   0.555  0.00  0.00    +0.002 A 
ATOM     26  C   LIG    1      -11.652  -0.707   0.114  0.00  0.00    +0.026 A 
ATOM     27  C   LIG    1      -10.669  -1.523  -0.462  0.00  0.00    +0.049 A 
ATOM     28  N   LIG    1      -10.751  -2.799  -0.990  0.00  0.00    -0.349 N 
ATOM     29  C   LIG    1      -11.952  -3.616  -1.066  0.00  0.00    +0.149 C 
ATOM     30  C   LIG    1       -9.509  -3.172  -1.443  0.00  0.00    +0.096 A 
ENDBRANCH  16  21
ENDBRANCH  13  18
ENDBRANCH   1  13
BRANCH   4  31
ATOM     31  N   LIG    1        1.433   0.027   0.083  0.00  0.00    -0.330 N 
ATOM     32  C   LIG    1        2.043   1.043   0.937  0.00  0.00    +0.129 C 
BRANCH  31  33
ATOM     33  C   LIG    1        2.246  -0.515  -1.008  0.00  0.00    +0.120 C 
BRANCH  33  34
ATOM     34  C   LIG    1        2.256   0.390  -2.261  0.00  0.00    +0.102 C 
BRANCH  34  35
ATOM     35  N   LIG    1        3.190  -0.080  -3.289  0.00  0.00    -0.307 NA
ATOM     36  C   LIG    1        2.787  -1.363  -3.865  0.00  0.00    +0.104 C 
ATOM     37  C   LIG    1        3.287   0.911  -4.356  0.00  0.00    +0.104 C 
ENDBRANCH  34  35
ENDBRANCH  33  34
ENDBRANCH  31  33
ENDBRANCH   4  31
BRANCH   6  38
ATOM     38  O   LIG    1       -2.477  -2.825  -0.291  0.00  0.00    -0.493 OA
ATOM     39  C   LIG    1       -1.644  -3.978  -0.239  0.00  0.00    +0.277 C 
ENDBRANCH   6  38
TORSDOF 10
