REMARK  Name = DB09256
REMARK                            x       y       z     vdW  Elec       q    Type
REMARK                         _______ _______ _______ _____ _____    ______ ____
ROOT
ATOM      1  N   LIG    1        1.468  -0.106  -0.045  0.00  0.00    -0.271 N 
ATOM      2  C   LIG    1        2.059  -0.960   0.870  0.00  0.00    +0.331 A 
ATOM      3  O   LIG    1        1.480  -1.752   1.615  0.00  0.00    -0.246 OA
ATOM      4  N   LIG    1        3.429  -0.877   0.899  0.00  0.00    -0.273 N 
ATOM      5  H   LIG    1        3.879  -1.493   1.559  0.00  0.00    +0.174 HD
ATOM      6  C   LIG    1        4.278  -0.092   0.170  0.00  0.00    +0.289 A 
ATOM      7  O   LIG    1        5.499  -0.134   0.307  0.00  0.00    -0.265 OA
ATOM      8  C   LIG    1        3.583   0.779  -0.765  0.00  0.00    +0.204 A 
ATOM      9  F   LIG    1        4.300   1.617  -1.546  0.00  0.00    -0.198 F 
ATOM     10  C   LIG    1        2.237   0.729  -0.824  0.00  0.00    +0.137 A 
ENDROOT
BRANCH   1  14
ATOM     11  C   LIG    1       -1.934   0.130  -1.408  0.00  0.00    +0.032 C 
ATOM     12  C   LIG    1       -1.708   1.423  -0.627  0.00  0.00    +0.162 C 
ATOM     13  O   LIG    1       -0.481   1.197   0.062  0.00  0.00    -0.356 OA
ATOM     14  C   LIG    1        0.018  -0.082  -0.196  0.00  0.00    +0.223 C 
ATOM     15  C   LIG    1       -0.548  -0.469  -1.554  0.00  0.00    +0.057 C 
ENDBRANCH   1  14
TORSDOF 1
