REMARK  Name = DB09071
REMARK                            x       y       z     vdW  Elec       q    Type
REMARK                         _______ _______ _______ _____ _____    ______ ____
ROOT
ATOM      1  C   LIG    1       -1.832   1.791   0.503  0.00  0.00    +0.024 C 
ATOM      2  C   LIG    1       -0.484   1.448  -0.086  0.00  0.00    +0.014 C 
ATOM      3  C   LIG    1       -0.561   2.144   1.256  0.00  0.00    +0.014 C 
ENDROOT
BRANCH   1   8
ATOM      4  C   LIG    1       -3.181   2.684  -1.468  0.00  0.00    +0.001 A 
ATOM      5  C   LIG    1       -2.874   1.680  -2.535  0.00  0.00    +0.080 C 
ATOM      6  C   LIG    1       -3.820   2.114  -3.663  0.00  0.00    +0.234 C 
ATOM      7  O   LIG    1       -4.305   3.418  -3.340  0.00  0.00    -0.491 OA
ATOM      8  C   LIG    1       -2.741   2.819  -0.146  0.00  0.00    -0.037 A 
ATOM      9  C   LIG    1       -3.168   3.929   0.597  0.00  0.00    +0.004 A 
ATOM     10  C   LIG    1       -3.997   4.898   0.020  0.00  0.00    +0.004 A 
ATOM     11  C   LIG    1       -4.412   4.770  -1.307  0.00  0.00    +0.046 A 
ATOM     12  C   LIG    1       -3.997   3.652  -2.025  0.00  0.00    +0.124 A 
ENDBRANCH   1   8
BRANCH   2  13
ATOM     13  C   LIG    1        0.010  -0.010  -0.122  0.00  0.00    +0.108 C 
BRANCH  13  14
ATOM     14  N   LIG    1        1.456  -0.148   0.023  0.00  0.00    -0.315 N 
ATOM     15  H   LIG    1        1.795  -0.412   0.937  0.00  0.00    +0.149 HD
ATOM     16  C   LIG    1        2.343   0.046  -0.968  0.00  0.00    +0.213 C 
ATOM     17  O   LIG    1        2.019   0.369  -2.112  0.00  0.00    -0.276 OA
BRANCH  16  18
ATOM     18  C   LIG    1        3.822  -0.141  -0.597  0.00  0.00    +0.092 C 
ATOM     19  C   LIG    1        4.688  -0.686  -1.747  0.00  0.00    +0.013 C 
ENDBRANCH  16  18
ENDBRANCH  13  14
ENDBRANCH   2  13
TORSDOF 4
