REMARK  Name = DB09090
REMARK                            x       y       z     vdW  Elec       q    Type
REMARK                         _______ _______ _______ _____ _____    ______ ____
ROOT
ATOM      1  N   LIG    1       -0.411   0.494   0.108  0.00  0.00    +0.387 N 
ATOM      2  C   LIG    1       -1.027   0.135   1.498  0.00  0.00    -0.046 C 
ATOM      3  C   LIG    1       -0.425   0.985   2.641  0.00  0.00    +0.142 C 
ATOM      4  O   LIG    1       -0.495   2.371   2.340  0.00  0.00    -0.383 OA
ATOM      5  C   LIG    1        0.207   2.745   1.163  0.00  0.00    +0.142 C 
ATOM      6  C   LIG    1       -0.416   2.045  -0.064  0.00  0.00    -0.046 C 
ENDROOT
BRANCH   1   7
ATOM      7  C   LIG    1       -1.339  -0.100  -1.009  0.00  0.00    -0.038 C 
BRANCH   7  14
ATOM      8 BR   LIG    1        0.471  -2.126  -2.850  0.00  0.00    -0.050 Br
ATOM      9  C   LIG    1       -0.960  -2.570  -1.671  0.00  0.00    +0.023 A 
ATOM     10  C   LIG    1       -1.315  -3.914  -1.573  0.00  0.00    +0.065 A 
ATOM     11  C   LIG    1       -2.396  -4.324  -0.777  0.00  0.00    +0.163 A 
ATOM     12  C   LIG    1       -3.138  -3.360  -0.083  0.00  0.00    +0.162 A 
ATOM     13  C   LIG    1       -2.774  -2.008  -0.188  0.00  0.00    +0.052 A 
ATOM     14  C   LIG    1       -1.673  -1.600  -0.949  0.00  0.00    -0.046 A 
BRANCH  12  15
ATOM     15  O   LIG    1       -4.205  -3.812   0.674  0.00  0.00    -0.491 OA
ATOM     16  C   LIG    1       -4.997  -2.878   1.402  0.00  0.00    +0.277 C 
ENDBRANCH  12  15
BRANCH  11  17
ATOM     17  O   LIG    1       -2.791  -5.644  -0.641  0.00  0.00    -0.491 OA
ATOM     18  C   LIG    1       -2.080  -6.665  -1.332  0.00  0.00    +0.277 C 
ENDBRANCH  11  17
ENDBRANCH   7  14
ENDBRANCH   1   7
BRANCH   1  19
ATOM     19  C   LIG    1        1.033  -0.114   0.045  0.00  0.00    -0.046 C 
BRANCH  19  20
ATOM     20  C   LIG    1        1.914   0.394  -1.121  0.00  0.00    +0.142 C 
BRANCH  20  21
ATOM     21  O   LIG    1        2.446   1.675  -0.819  0.00  0.00    -0.382 OA
BRANCH  21  22
ATOM     22  C   LIG    1        3.231   2.240  -1.858  0.00  0.00    +0.160 C 
BRANCH  22  23
ATOM     23  C   LIG    1        3.724   3.620  -1.392  0.00  0.00    +0.032 C 
BRANCH  23  24
ATOM     24  C   LIG    1        4.613   4.367  -2.411  0.00  0.00    -0.005 C 
ATOM     25  C   LIG    1        3.897   4.611  -3.786  0.00  0.00    +0.004 C 
ATOM     26  C   LIG    1        4.327   5.916  -4.527  0.00  0.00    +0.004 C 
ATOM     27  C   LIG    1        5.113   6.888  -3.597  0.00  0.00    -0.005 C 
ATOM     28  C   LIG    1        4.488   6.895  -2.186  0.00  0.00    +0.008 C 
ATOM     29  C   LIG    1        6.373   6.241  -2.954  0.00  0.00    -0.029 C 
ATOM     30  C   LIG    1        7.189   5.244  -3.823  0.00  0.00    +0.011 C 
ATOM     31  C   LIG    1        7.376   7.263  -2.349  0.00  0.00    +0.011 C 
ATOM     32  C   LIG    1        5.364   5.648  -1.919  0.00  0.00    -0.002 C 
ENDBRANCH  23  24
ENDBRANCH  22  23
ENDBRANCH  21  22
ENDBRANCH  20  21
ENDBRANCH  19  20
ENDBRANCH   1  19
TORSDOF 10
