REMARK  Name = DB09517
REMARK                            x       y       z     vdW  Elec       q    Type
REMARK                         _______ _______ _______ _____ _____    ______ ____
ROOT
ATOM      1  O   LIG    1        0.129   0.067   0.299  0.00  0.00    -0.313 OA
ENDROOT
BRANCH   1   6
ATOM      2  C   LIG    1       -2.220   0.436  -1.284  0.00  0.00    +0.178 C 
ATOM      3  C   LIG    1       -3.283   0.562  -0.157  0.00  0.00    +0.177 C 
ATOM      4  C   LIG    1       -2.617   0.561   1.235  0.00  0.00    +0.179 C 
ATOM      5  C   LIG    1       -1.454   1.576   1.274  0.00  0.00    +0.201 C 
ATOM      6  C   LIG    1       -0.478   1.325   0.113  0.00  0.00    +0.285 C 
ATOM      7  O   LIG    1       -1.161   1.394  -1.115  0.00  0.00    -0.340 OA
BRANCH   3   8
ATOM      8  O   LIG    1       -4.276  -0.447  -0.244  0.00  0.00    -0.386 OA
ATOM      9  H   LIG    1       -3.865  -1.299  -0.081  0.00  0.00    +0.210 HD
ENDBRANCH   3   8
BRANCH   4  10
ATOM     10  O   LIG    1       -3.558   0.808   2.267  0.00  0.00    -0.386 OA
ATOM     11  H   LIG    1       -3.942   1.677   2.130  0.00  0.00    +0.210 HD
ENDBRANCH   4  10
BRANCH   5  12
ATOM     12  O   LIG    1       -0.782   1.604   2.521  0.00  0.00    -0.384 OA
ATOM     13  H   LIG    1       -0.699   0.703   2.841  0.00  0.00    +0.210 HD
ENDBRANCH   5  12
BRANCH   2  14
ATOM     14  C   LIG    1       -2.802   0.647  -2.702  0.00  0.00    +0.190 C 
BRANCH  14  15
ATOM     15  O   LIG    1       -3.525  -0.482  -3.151  0.00  0.00    -0.392 OA
ATOM     16  H   LIG    1       -3.882  -0.291  -4.022  0.00  0.00    +0.210 HD
ENDBRANCH  14  15
ENDBRANCH   2  14
ENDBRANCH   1   6
BRANCH   1  17
ATOM     17  C   LIG    1        1.529  -0.028   0.128  0.00  0.00    +0.225 C 
ATOM     18  C   LIG    1        1.893  -1.504  -0.093  0.00  0.00    +0.207 C 
ATOM     19  C   LIG    1        1.582  -1.628  -1.580  0.00  0.00    +0.179 C 
ATOM     20  C   LIG    1        2.061  -0.285  -2.146  0.00  0.00    +0.178 C 
ATOM     21  O   LIG    1        1.955   0.616  -1.044  0.00  0.00    -0.336 OA
BRANCH  18  22
ATOM     22  O   LIG    1        1.178  -2.381   0.762  0.00  0.00    -0.384 OA
ATOM     23  H   LIG    1        0.268  -2.422   0.461  0.00  0.00    +0.210 HD
ENDBRANCH  18  22
BRANCH  19  24
ATOM     24  O   LIG    1        2.214  -2.744  -2.178  0.00  0.00    -0.386 OA
ATOM     25  H   LIG    1        3.163  -2.657  -2.061  0.00  0.00    +0.210 HD
ENDBRANCH  19  24
BRANCH  20  26
ATOM     26  C   LIG    1        1.249   0.234  -3.345  0.00  0.00    +0.190 C 
BRANCH  26  27
ATOM     27  O   LIG    1        1.743   1.482  -3.783  0.00  0.00    -0.392 OA
ATOM     28  H   LIG    1        1.583   2.130  -3.092  0.00  0.00    +0.210 HD
ENDBRANCH  26  27
ENDBRANCH  20  26
BRANCH  17  29
ATOM     29  C   LIG    1        2.192   0.643   1.349  0.00  0.00    +0.223 C 
BRANCH  29  30
ATOM     30  O   LIG    1        3.602   0.523   1.326  0.00  0.00    -0.390 OA
ATOM     31  H   LIG    1        3.958   0.961   2.102  0.00  0.00    +0.210 HD
ENDBRANCH  29  30
ENDBRANCH  17  29
ENDBRANCH   1  17
TORSDOF 13
