REMARK  Name = DB09327
REMARK                            x       y       z     vdW  Elec       q    Type
REMARK                         _______ _______ _______ _____ _____    ______ ____
ROOT
ATOM      1  F   LIG    1       -2.842  -2.171  -0.531  0.00  0.00    -0.198 F 
ATOM      2  C   LIG    1       -2.125  -1.056  -0.274  0.00  0.00    +0.204 A 
ATOM      3  C   LIG    1       -2.818   0.166   0.102  0.00  0.00    +0.289 A 
ATOM      4  N   LIG    1       -1.968   1.209   0.341  0.00  0.00    -0.273 N 
ATOM      5  H   LIG    1       -2.418   2.074   0.605  0.00  0.00    +0.174 HD
ATOM      6  C   LIG    1       -0.598   1.266   0.274  0.00  0.00    +0.331 A 
ATOM      7  N   LIG    1       -0.009   0.068  -0.092  0.00  0.00    -0.271 N 
ATOM      8  O   LIG    1       -0.019   2.323   0.524  0.00  0.00    -0.246 OA
ATOM      9  O   LIG    1       -4.039   0.273   0.200  0.00  0.00    -0.265 OA
ATOM     10  C   LIG    1       -0.779  -1.043  -0.350  0.00  0.00    +0.137 A 
ENDROOT
BRANCH   7  11
ATOM     11  C   LIG    1        1.441  -0.029  -0.211  0.00  0.00    +0.223 C 
ATOM     12  C   LIG    1        2.006  -0.372  -1.581  0.00  0.00    +0.057 C 
ATOM     13  C   LIG    1        3.392  -0.819  -1.156  0.00  0.00    +0.032 C 
ATOM     14  C   LIG    1        3.166  -1.550   0.166  0.00  0.00    +0.162 C 
ATOM     15  O   LIG    1        1.939  -1.010   0.650  0.00  0.00    -0.356 OA
ENDBRANCH   7  11
TORSDOF 1
