REMARK  Name = DB09388
REMARK                            x       y       z     vdW  Elec       q    Type
REMARK                         _______ _______ _______ _____ _____    ______ ____
ROOT
ATOM      1  C   LIG    1       -0.783  -3.737   0.003  0.00  0.00    +0.057 A 
ATOM      2  C   LIG    1       -0.055  -2.548   0.017  0.00  0.00    +0.030 A 
ATOM      3  C   LIG    1       -0.707  -1.310  -0.005  0.00  0.00    +0.028 A 
ATOM      4  C   LIG    1        0.025  -0.015   0.010  0.00  0.00    +0.006 A 
ATOM      5  C   LIG    1       -0.678   1.144  -0.018  0.00  0.00    +0.028 A 
ATOM      6  C   LIG    1       -2.138   1.082  -0.055  0.00  0.00    +0.153 A 
ATOM      7  O   LIG    1       -2.819  -0.097  -0.071  0.00  0.00    -0.452 OA
ATOM      8  C   LIG    1       -2.912   2.195  -0.077  0.00  0.00    +0.104 A 
ATOM      9  I   LIG    1       -5.070   2.037  -0.135  0.00  0.00    -0.036 I 
ATOM     10  C   LIG    1       -2.337   3.564  -0.064  0.00  0.00    +0.209 A 
ATOM     11  O   LIG    1       -3.030   4.581  -0.082  0.00  0.00    -0.286 OA
ATOM     12  C   LIG    1       -0.854   3.601  -0.028  0.00  0.00    +0.062 A 
ATOM     13  I   LIG    1        0.105   5.527  -0.005  0.00  0.00    -0.040 I 
ATOM     14  C   LIG    1       -0.097   2.481  -0.007  0.00  0.00    +0.030 A 
ATOM     15  C   LIG    1       -2.112  -1.288  -0.046  0.00  0.00    +0.153 A 
ATOM     16  C   LIG    1       -2.852  -2.474  -0.062  0.00  0.00    +0.098 A 
ATOM     17  I   LIG    1       -4.949  -2.393  -0.125  0.00  0.00    -0.036 I 
ATOM     18  C   LIG    1       -2.182  -3.703  -0.036  0.00  0.00    +0.147 A 
ATOM     19  I   LIG    1        0.263  -5.553   0.045  0.00  0.00    -0.040 I 
ENDROOT
BRANCH   4  20
ATOM     20  C   LIG    1        1.518  -0.002   0.035  0.00  0.00    +0.019 A 
ATOM     21  C   LIG    1        2.221   0.021  -1.183  0.00  0.00    +0.069 A 
ATOM     22 CL   LIG    1        1.355   0.040  -2.691  0.00  0.00    -0.081 Cl
ATOM     23  C   LIG    1        3.621   0.028  -1.193  0.00  0.00    +0.080 A 
ATOM     24 CL   LIG    1        4.478   0.060  -2.703  0.00  0.00    -0.080 Cl
ATOM     25  C   LIG    1        4.332   0.006   0.012  0.00  0.00    +0.080 A 
ATOM     26 CL   LIG    1        6.068   0.014  -0.011  0.00  0.00    -0.080 Cl
ATOM     27  C   LIG    1        3.646  -0.022   1.234  0.00  0.00    +0.075 A 
ATOM     28 CL   LIG    1        4.561  -0.051   2.715  0.00  0.00    -0.081 Cl
ATOM     29  C   LIG    1        2.237  -0.027   1.252  0.00  0.00    +0.088 A 
BRANCH  29  30
ATOM     30  C   LIG    1        1.506  -0.053   2.570  0.00  0.00    +0.339 C 
ATOM     31  O   LIG    1        1.252   0.974   3.196  0.00  0.00    -0.245 OA
BRANCH  30  32
ATOM     32  O   LIG    1        1.156  -1.307   2.976  0.00  0.00    -0.477 OA
ATOM     33  H   LIG    1        0.692  -1.300   3.816  0.00  0.00    +0.295 HD
ENDBRANCH  30  32
ENDBRANCH  29  30
ENDBRANCH   4  20
BRANCH  18  34
ATOM     34  O   LIG    1       -2.894  -4.875  -0.050  0.00  0.00    -0.505 OA
ATOM     35  H   LIG    1       -2.329  -5.651  -0.077  0.00  0.00    +0.292 HD
ENDBRANCH  18  34
TORSDOF 4
