REMARK  Name = DB09214
REMARK                            x       y       z     vdW  Elec       q    Type
REMARK                         _______ _______ _______ _____ _____    ______ ____
ROOT
ATOM      1  C   LIG    1        1.551   0.086   0.093  0.00  0.00    -0.033 A 
ATOM      2  C   LIG    1        2.220  -0.660  -0.885  0.00  0.00    +0.016 A 
ATOM      3  C   LIG    1        3.619  -0.620  -1.002  0.00  0.00    +0.023 A 
ATOM      4  C   LIG    1        4.338   0.226  -0.144  0.00  0.00    +0.012 A 
ATOM      5  C   LIG    1        3.682   0.970   0.836  0.00  0.00    +0.001 A 
ATOM      6  C   LIG    1        2.297   0.895   0.959  0.00  0.00    +0.004 A 
ENDROOT
BRANCH   1   8
ATOM      7  C   LIG    1       -0.665   1.375   0.176  0.00  0.00    +0.024 C 
ATOM      8  C   LIG    1        0.025  -0.008   0.213  0.00  0.00    +0.124 C 
BRANCH   8   9
ATOM      9  C   LIG    1       -0.363  -0.824   1.461  0.00  0.00    +0.312 C 
ATOM     10  O   LIG    1       -0.527  -0.330   2.575  0.00  0.00    -0.250 OA
BRANCH   9  11
ATOM     11  O   LIG    1       -0.464  -2.157   1.183  0.00  0.00    -0.480 OA
ATOM     12  H   LIG    1       -0.692  -2.673   1.959  0.00  0.00    +0.295 HD
ENDBRANCH   9  11
ENDBRANCH   8   9
ENDBRANCH   1   8
BRANCH   3  13
ATOM     13  C   LIG    1        4.340  -1.383  -2.076  0.00  0.00    +0.193 C 
ATOM     14  O   LIG    1        5.396  -0.935  -2.532  0.00  0.00    -0.287 OA
BRANCH  13  15
ATOM     15  C   LIG    1        3.799  -2.682  -2.602  0.00  0.00    +0.022 A 
ATOM     16  C   LIG    1        3.051  -3.545  -1.786  0.00  0.00    +0.012 A 
ATOM     17  C   LIG    1        2.592  -4.763  -2.281  0.00  0.00    +0.001 A 
ATOM     18  C   LIG    1        2.894  -5.135  -3.588  0.00  0.00    +0.000 A 
ATOM     19  C   LIG    1        3.660  -4.304  -4.401  0.00  0.00    +0.001 A 
ATOM     20  C   LIG    1        4.118  -3.086  -3.907  0.00  0.00    +0.012 A 
ENDBRANCH  13  15
ENDBRANCH   3  13
TORSDOF 5
