REMARK  Name = DB09242
REMARK                            x       y       z     vdW  Elec       q    Type
REMARK                         _______ _______ _______ _____ _____    ______ ____
ROOT
ATOM      1  C   LIG    1       -4.175   0.226  -0.528  0.00  0.00    +0.088 C 
ATOM      2  C   LIG    1       -2.697   0.048  -0.238  0.00  0.00    +0.132 A 
ATOM      3  N   LIG    1       -2.283  -1.189   0.127  0.00  0.00    -0.195 NA
ATOM      4  C   LIG    1       -0.950  -1.335   0.389  0.00  0.00    +0.257 A 
ATOM      5  C   LIG    1       -0.049  -0.256   0.283  0.00  0.00    +0.191 A 
ATOM      6  C   LIG    1       -0.593   0.984  -0.101  0.00  0.00    +0.173 A 
ATOM      7 CL   LIG    1        0.414   2.382  -0.268  0.00  0.00    -0.058 Cl
ATOM      8  N   LIG    1       -1.916   1.148  -0.363  0.00  0.00    -0.217 NA
ENDROOT
BRANCH   4   9
ATOM      9  O   LIG    1       -0.487  -2.577   0.794  0.00  0.00    -0.477 OA
ATOM     10  C   LIG    1       -1.387  -3.681   0.878  0.00  0.00    +0.279 C 
ENDBRANCH   4   9
BRANCH   5  11
ATOM     11  N   LIG    1        1.331  -0.389   0.515  0.00  0.00    -0.199 N 
ATOM     12  H   LIG    1        1.763   0.428   0.923  0.00  0.00    +0.251 HD
BRANCH  11  13
ATOM     13  C   LIG    1        2.237  -1.343  -0.021  0.00  0.00    +0.370 C 
ATOM     14  N   LIG    1        3.556  -1.305   0.487  0.00  0.00    -0.235 N 
ATOM     15  H   LIG    1        3.877  -0.965   1.382  0.00  0.00    +0.245 HD
ATOM     16  C   LIG    1        4.237  -2.450  -0.056  0.00  0.00    +0.225 C 
ATOM     17  C   LIG    1        3.239  -3.003  -1.060  0.00  0.00    +0.277 C 
ATOM     18  N   LIG    1        2.033  -2.228  -0.913  0.00  0.00    -0.114 NA
ENDBRANCH  11  13
ENDBRANCH   5  11
TORSDOF 3
