REMARK  Name = DB09436
REMARK                            x       y       z     vdW  Elec       q    Type
REMARK                         _______ _______ _______ _____ _____    ______ ____
ROOT
ATOM      1  C   LIG    1       -0.025   0.285  -0.045  0.00  0.00    +0.175 C 
ENDROOT
BRANCH   1   2
ATOM      2  S   LIG    1       -0.626  -0.628   1.413  0.00  0.00    -0.162 S 
ATOM      3  H   LIG    1       -0.281  -1.841   0.974  0.00  0.00    +0.102 HD
ENDBRANCH   1   2
BRANCH   1   4
ATOM      4  C   LIG    1       -0.485   1.736   0.103  0.00  0.00    +0.319 C 
ATOM      5  O   LIG    1       -0.240   2.470   1.060  0.00  0.00    -0.250 OA
BRANCH   4   6
ATOM      6  O   LIG    1       -1.229   2.118  -0.975  0.00  0.00    -0.480 OA
ATOM      7  H   LIG    1       -1.528   3.027  -0.905  0.00  0.00    +0.295 HD
ENDBRANCH   4   6
ENDBRANCH   1   4
BRANCH   1   8
ATOM      8  C   LIG    1        1.508   0.126  -0.172  0.00  0.00    +0.175 C 
BRANCH   8   9
ATOM      9  S   LIG    1        2.533   0.898   1.132  0.00  0.00    -0.162 S 
ATOM     10  H   LIG    1        1.997   0.221   2.152  0.00  0.00    +0.102 HD
ENDBRANCH   8   9
BRANCH   8  11
ATOM     11  C   LIG    1        1.982   0.633  -1.529  0.00  0.00    +0.319 C 
ATOM     12  O   LIG    1        1.963   1.809  -1.891  0.00  0.00    -0.250 OA
BRANCH  11  13
ATOM     13  O   LIG    1        2.452  -0.391  -2.301  0.00  0.00    -0.480 OA
ATOM     14  H   LIG    1        2.763  -0.088  -3.156  0.00  0.00    +0.295 HD
ENDBRANCH  11  13
ENDBRANCH   8  11
ENDBRANCH   1   8
TORSDOF 7
