REMARK  Name = DB09089
REMARK                            x       y       z     vdW  Elec       q    Type
REMARK                         _______ _______ _______ _____ _____    ______ ____
ROOT
ATOM      1  O   LIG    1        1.252  -0.293   0.082  0.00  0.00    -0.459 OA
ENDROOT
BRANCH   1   2
ATOM      2  C   LIG    1        1.900  -1.480   0.152  0.00  0.00    +0.339 C 
ATOM      3  O   LIG    1        1.321  -2.569   0.207  0.00  0.00    -0.245 OA
BRANCH   2   4
ATOM      4  C   LIG    1        3.395  -1.335   0.142  0.00  0.00    +0.066 A 
ATOM      5  C   LIG    1        4.019  -0.078   0.101  0.00  0.00    +0.064 A 
ATOM      6  C   LIG    1        5.418   0.041   0.084  0.00  0.00    +0.166 A 
ATOM      7  C   LIG    1        6.197  -1.122   0.104  0.00  0.00    +0.204 A 
ATOM      8  C   LIG    1        5.601  -2.389   0.155  0.00  0.00    +0.166 A 
ATOM      9  C   LIG    1        4.200  -2.480   0.171  0.00  0.00    +0.064 A 
BRANCH   6  10
ATOM     10  O   LIG    1        6.090   1.251   0.048  0.00  0.00    -0.491 OA
ATOM     11  C   LIG    1        5.346   2.465   0.026  0.00  0.00    +0.277 C 
ENDBRANCH   6  10
BRANCH   7  12
ATOM     12  O   LIG    1        7.568  -1.019   0.099  0.00  0.00    -0.488 OA
ATOM     13  C   LIG    1        8.142  -1.014  -1.201  0.00  0.00    +0.277 C 
ENDBRANCH   7  12
BRANCH   8  14
ATOM     14  O   LIG    1        6.448  -3.483   0.183  0.00  0.00    -0.491 OA
ATOM     15  C   LIG    1        5.897  -4.794   0.223  0.00  0.00    +0.277 C 
ENDBRANCH   8  14
ENDBRANCH   2   4
ENDBRANCH   1   2
BRANCH   1  16
ATOM     16  C   LIG    1       -0.170  -0.217   0.041  0.00  0.00    +0.259 C 
BRANCH  16  17
ATOM     17  C   LIG    1       -0.656   1.272  -0.071  0.00  0.00    +0.081 C 
BRANCH  17  18
ATOM     18  C   LIG    1       -0.067   1.950  -1.353  0.00  0.00    -0.024 A 
ATOM     19  C   LIG    1        0.106   1.212  -2.538  0.00  0.00    +0.005 A 
ATOM     20  C   LIG    1        0.636   1.800  -3.682  0.00  0.00    +0.000 A 
ATOM     21  C   LIG    1        0.997   3.143  -3.663  0.00  0.00    +0.000 A 
ATOM     22  C   LIG    1        0.826   3.899  -2.510  0.00  0.00    +0.000 A 
ATOM     23  C   LIG    1        0.296   3.309  -1.366  0.00  0.00    +0.005 A 
ENDBRANCH  17  18
BRANCH  17  24
ATOM     24  N   LIG    1       -2.150   1.284  -0.098  0.00  0.00    -0.296 NA
ATOM     25  C   LIG    1       -2.775   2.612  -0.099  0.00  0.00    +0.105 C 
ATOM     26  C   LIG    1       -2.793   0.488  -1.151  0.00  0.00    +0.105 C 
ENDBRANCH  17  24
BRANCH  17  28
ATOM     27  C   LIG    1       -0.640   1.384   2.591  0.00  0.00    +0.006 C 
ATOM     28  C   LIG    1       -0.166   1.985   1.251  0.00  0.00    +0.027 C 
ENDBRANCH  17  28
ENDBRANCH  16  17
ENDBRANCH   1  16
TORSDOF 10
