REMARK  Name = DB09350
REMARK                            x       y       z     vdW  Elec       q    Type
REMARK                         _______ _______ _______ _____ _____    ______ ____
ROOT
ATOM      1  C   LIG    1       -0.531   3.305   1.339  0.00  0.00    +0.195 C 
ENDROOT
BRANCH   1   2
ATOM      2  C   LIG    1       -0.111   3.777   2.726  0.00  0.00    -0.015 A 
ATOM      3  C   LIG    1        1.255   3.899   3.098  0.00  0.00    -0.038 A 
ATOM      4  C   LIG    1        1.593   4.329   4.394  0.00  0.00    +0.053 A 
ATOM      5  C   LIG    1        0.564   4.636   5.275  0.00  0.00    +0.167 A 
ATOM      6  O   LIG    1        0.644   5.044   6.569  0.00  0.00    -0.453 OA
ATOM      7  C   LIG    1       -0.666   5.381   6.939  0.00  0.00    +0.466 C 
ATOM      8  O   LIG    1       -1.534   4.848   5.974  0.00  0.00    -0.453 OA
ATOM      9  C   LIG    1       -0.746   4.519   4.917  0.00  0.00    +0.167 A 
ATOM     10  C   LIG    1       -1.123   4.086   3.653  0.00  0.00    +0.055 A 
BRANCH   3  11
ATOM     11  C   LIG    1        2.401   3.570   2.138  0.00  0.00    +0.035 C 
BRANCH  11  12
ATOM     12  C   LIG    1        3.125   4.812   1.580  0.00  0.00    +0.001 C 
ATOM     13  C   LIG    1        2.259   5.696   0.669  0.00  0.00    +0.004 C 
ENDBRANCH  11  12
ENDBRANCH   3  11
ENDBRANCH   1   2
BRANCH   1  14
ATOM     14  O   LIG    1       -0.292   1.908   1.232  0.00  0.00    -0.373 OA
BRANCH  14  15
ATOM     15  C   LIG    1       -0.686   1.356  -0.018  0.00  0.00    +0.188 C 
BRANCH  15  16
ATOM     16  C   LIG    1       -0.254  -0.114  -0.085  0.00  0.00    +0.188 C 
BRANCH  16  17
ATOM     17  O   LIG    1        1.163  -0.187   0.000  0.00  0.00    -0.375 OA
BRANCH  17  18
ATOM     18  C   LIG    1        1.676  -1.511  -0.080  0.00  0.00    +0.188 C 
BRANCH  18  19
ATOM     19  C   LIG    1        3.208  -1.465  -0.033  0.00  0.00    +0.188 C 
BRANCH  19  20
ATOM     20  O   LIG    1        3.691  -0.701  -1.130  0.00  0.00    -0.377 OA
BRANCH  20  21
ATOM     21  C   LIG    1        5.106  -0.594  -1.177  0.00  0.00    +0.160 C 
BRANCH  21  22
ATOM     22  C   LIG    1        5.496   0.253  -2.397  0.00  0.00    +0.028 C 
BRANCH  22  24
ATOM     23  C   LIG    1        7.405   1.260  -3.776  0.00  0.00    +0.004 C 
ATOM     24  C   LIG    1        7.017   0.419  -2.552  0.00  0.00    -0.001 C 
ENDBRANCH  22  24
ENDBRANCH  21  22
ENDBRANCH  20  21
ENDBRANCH  19  20
ENDBRANCH  18  19
ENDBRANCH  17  18
ENDBRANCH  16  17
ENDBRANCH  15  16
ENDBRANCH  14  15
ENDBRANCH   1  14
TORSDOF 13
