REMARK  Name = DB09072
REMARK                            x       y       z     vdW  Elec       q    Type
REMARK                         _______ _______ _______ _____ _____    ______ ____
ROOT
ATOM      1  C   LIG    1        1.535  -0.032  -0.001  0.00  0.00    +0.122 C 
ENDROOT
BRANCH   1   2
ATOM      2  C   LIG    1        2.056  -1.481   0.013  0.00  0.00    +0.305 C 
ATOM      3  O   LIG    1        2.255  -2.036  -1.091  0.00  0.00    -0.251 OA
BRANCH   2   4
ATOM      4  O   LIG    1        2.247  -2.018   1.129  0.00  0.00    -0.481 OA
ATOM      5  H   LIG    1        2.075  -1.538   1.915  0.00  0.00    +0.295 HD
ENDBRANCH   2   4
ENDBRANCH   1   2
BRANCH   1   6
ATOM      6  C   LIG    1       -0.010   0.005  -0.001  0.00  0.00    +0.039 C 
BRANCH   6   7
ATOM      7  C   LIG    1       -0.562   1.440  -0.001  0.00  0.00    +0.156 C 
BRANCH   7   8
ATOM      8  O   LIG    1       -1.974   1.443  -0.001  0.00  0.00    -0.395 OA
ATOM      9  H   LIG    1       -2.276   2.354   0.000  0.00  0.00    +0.209 HD
ENDBRANCH   7   8
ENDBRANCH   6   7
ENDBRANCH   1   6
TORSDOF 5
