REMARK  Name = DB09092
REMARK                            x       y       z     vdW  Elec       q    Type
REMARK                         _______ _______ _______ _____ _____    ______ ____
ROOT
ATOM      1  N   LIG    1       -1.255   1.714   1.318  0.00  0.00    -0.322 N 
ATOM      2  C   LIG    1       -2.630   1.766   1.274  0.00  0.00    +0.202 A 
ATOM      3  N   LIG    1       -3.183   2.115   2.411  0.00  0.00    -0.218 NA
ATOM      4  C   LIG    1       -2.159   2.313   3.225  0.00  0.00    +0.168 A 
ATOM      5  N   LIG    1       -2.180   2.704   4.558  0.00  0.00    -0.280 N 
ATOM      6  C   LIG    1       -3.466   2.976   5.218  0.00  0.00    +0.155 C 
ATOM      7  C   LIG    1       -1.027   2.822   5.300  0.00  0.00    +0.333 A 
ATOM      8  N   LIG    1        0.151   2.602   4.592  0.00  0.00    -0.262 N 
ATOM      9  C   LIG    1        1.397   2.823   5.365  0.00  0.00    +0.157 C 
ATOM     10  C   LIG    1        0.344   2.278   3.257  0.00  0.00    +0.282 A 
ATOM     11  O   LIG    1        1.448   2.165   2.719  0.00  0.00    -0.265 OA
ATOM     12  O   LIG    1       -1.057   3.100   6.505  0.00  0.00    -0.246 OA
ATOM     13  C   LIG    1       -0.939   2.089   2.608  0.00  0.00    +0.152 A 
ENDROOT
BRANCH   1  14
ATOM     14  C   LIG    1       -0.364   1.351   0.216  0.00  0.00    +0.156 C 
BRANCH  14  15
ATOM     15  C   LIG    1        0.342  -0.005   0.453  0.00  0.00    +0.148 C 
BRANCH  15  16
ATOM     16  O   LIG    1       -0.627  -1.038   0.492  0.00  0.00    -0.389 OA
ATOM     17  H   LIG    1       -0.169  -1.879   0.560  0.00  0.00    +0.210 HD
ENDBRANCH  15  16
BRANCH  15  18
ATOM     18  C   LIG    1        1.377  -0.304  -0.657  0.00  0.00    +0.117 C 
BRANCH  18  19
ATOM     19  N   LIG    1        2.129  -1.562  -0.503  0.00  0.00    -0.301 NA
ATOM     20  C   LIG    1        2.912  -1.777  -1.719  0.00  0.00    +0.105 C 
BRANCH  19  21
ATOM     21  C   LIG    1        3.005  -1.588   0.681  0.00  0.00    +0.112 C 
BRANCH  21  22
ATOM     22  C   LIG    1        2.347  -2.406   1.810  0.00  0.00    +0.171 C 
BRANCH  22  23
ATOM     23  O   LIG    1        3.188  -2.408   2.943  0.00  0.00    -0.394 OA
ATOM     24  H   LIG    1        3.193  -1.525   3.321  0.00  0.00    +0.209 HD
ENDBRANCH  22  23
ENDBRANCH  21  22
ENDBRANCH  19  21
ENDBRANCH  18  19
ENDBRANCH  15  18
ENDBRANCH  14  15
ENDBRANCH   1  14
TORSDOF 8
