REMARK  Name = DB09462
REMARK                            x       y       z     vdW  Elec       q    Type
REMARK                         _______ _______ _______ _____ _____    ______ ____
ROOT
ATOM      1  C   LIG    1        1.508   0.012  -0.064  0.00  0.00    +0.165 C 
ENDROOT
BRANCH   1   2
ATOM      2  O   LIG    1        1.952   0.638  -1.257  0.00  0.00    -0.387 OA
ATOM      3  H   LIG    1        2.489   1.398  -1.019  0.00  0.00    +0.210 HD
ENDBRANCH   1   2
BRANCH   1   4
ATOM      4  C   LIG    1       -0.035   0.049  -0.023  0.00  0.00    +0.189 C 
BRANCH   4   5
ATOM      5  O   LIG    1       -0.514   1.366   0.173  0.00  0.00    -0.392 OA
ATOM      6  H   LIG    1       -1.474   1.345   0.179  0.00  0.00    +0.210 HD
ENDBRANCH   4   5
ENDBRANCH   1   4
BRANCH   1   7
ATOM      7  C   LIG    1        2.058  -1.431  -0.023  0.00  0.00    +0.189 C 
BRANCH   7   8
ATOM      8  O   LIG    1        3.459  -1.443   0.173  0.00  0.00    -0.392 OA
ATOM      9  H   LIG    1        3.759  -2.355   0.179  0.00  0.00    +0.210 HD
ENDBRANCH   7   8
ENDBRANCH   1   7
TORSDOF 5
