REMARK  Name = DB09236
REMARK                            x       y       z     vdW  Elec       q    Type
REMARK                         _______ _______ _______ _____ _____    ______ ____
ROOT
ATOM      1  C   LIG    1        0.072  -0.069   0.000  0.00  0.00    +0.096 C 
ATOM      2  C   LIG    1       -0.627  -0.601  -1.293  0.00  0.00    +0.065 C 
ATOM      3  C   LIG    1       -1.646  -1.506  -1.224  0.00  0.00    +0.016 C 
ATOM      4  N   LIG    1       -2.119  -1.921   0.000  0.00  0.00    -0.321 N 
ATOM      5  H   LIG    1       -2.817  -2.650   0.000  0.00  0.00    +0.152 HD
ATOM      6  C   LIG    1       -1.646  -1.506   1.224  0.00  0.00    +0.016 C 
ATOM      7  C   LIG    1       -2.461  -2.103   2.371  0.00  0.00    +0.061 C 
ATOM      8  C   LIG    1       -2.461  -2.103  -2.371  0.00  0.00    +0.061 C 
ATOM      9  C   LIG    1       -0.627  -0.601   1.294  0.00  0.00    +0.065 C 
ENDROOT
BRANCH   1  10
ATOM     10  C   LIG    1        1.627  -0.146   0.000  0.00  0.00    -0.028 A 
ATOM     11  C   LIG    1        2.336  -1.374   0.000  0.00  0.00    -0.021 A 
ATOM     12  C   LIG    1        3.741  -1.339   0.000  0.00  0.00    +0.008 A 
ATOM     13  C   LIG    1        4.436  -0.134   0.000  0.00  0.00    +0.001 A 
ATOM     14  C   LIG    1        3.740   1.068   0.000  0.00  0.00    +0.000 A 
ATOM     15  C   LIG    1        2.350   1.059  -0.000  0.00  0.00    +0.005 A 
BRANCH  11  16
ATOM     16  C   LIG    1        1.629  -2.682   0.000  0.00  0.00    +0.015 C 
ATOM     17  C   LIG    1        2.175  -3.918  -0.000  0.00  0.00    +0.092 C 
BRANCH  17  18
ATOM     18  C   LIG    1        1.362  -5.130  -0.000  0.00  0.00    +0.332 C 
ATOM     19  O   LIG    1        0.128  -5.123   0.000  0.00  0.00    -0.246 OA
BRANCH  18  20
ATOM     20  O   LIG    1        2.138  -6.252   0.000  0.00  0.00    -0.456 OA
BRANCH  20  21
ATOM     21  C   LIG    1        1.648  -7.606   0.000  0.00  0.00    +0.106 C 
ATOM     22  C   LIG    1        2.922  -8.475   0.000  0.00  0.00    +0.055 C 
ATOM     23  C   LIG    1        0.824  -7.908   1.276  0.00  0.00    +0.055 C 
ATOM     24  C   LIG    1        0.824  -7.908  -1.276  0.00  0.00    +0.055 C 
ENDBRANCH  20  21
ENDBRANCH  18  20
ENDBRANCH  17  18
ENDBRANCH  11  16
ENDBRANCH   1  10
BRANCH   2  25
ATOM     25  C   LIG    1       -0.072  -0.154  -2.601  0.00  0.00    +0.338 C 
ATOM     26  O   LIG    1       -0.175  -0.802  -3.647  0.00  0.00    -0.245 OA
BRANCH  25  27
ATOM     27  O   LIG    1        0.578   1.033  -2.531  0.00  0.00    -0.462 OA
BRANCH  27  28
ATOM     28  C   LIG    1        1.199   1.603  -3.676  0.00  0.00    +0.229 C 
ATOM     29  C   LIG    1        1.894   2.910  -3.278  0.00  0.00    +0.048 C 
ENDBRANCH  27  28
ENDBRANCH  25  27
ENDBRANCH   2  25
BRANCH   9  30
ATOM     30  C   LIG    1       -0.072  -0.154   2.601  0.00  0.00    +0.338 C 
ATOM     31  O   LIG    1       -0.175  -0.802   3.647  0.00  0.00    -0.245 OA
BRANCH  30  32
ATOM     32  O   LIG    1        0.578   1.033   2.531  0.00  0.00    -0.462 OA
BRANCH  32  33
ATOM     33  C   LIG    1        1.199   1.603   3.676  0.00  0.00    +0.229 C 
ATOM     34  C   LIG    1        1.894   2.909   3.278  0.00  0.00    +0.048 C 
ENDBRANCH  32  33
ENDBRANCH  30  32
ENDBRANCH   9  30
TORSDOF 11
