REMARK  Name = DB09370
REMARK                            x       y       z     vdW  Elec       q    Type
REMARK                         _______ _______ _______ _____ _____    ______ ____
ROOT
ATOM      1  P   LIG    1        1.807  -0.005   0.000  0.00  0.00    +0.470 P 
ATOM      2  O   LIG    1        2.201  -1.493  -0.000  0.00  0.00    -0.228 OA
ENDROOT
BRANCH   1   3
ATOM      3  O   LIG    1        0.058   0.023   0.000  0.00  0.00    -0.303 OA
ATOM      4  H   LIG    1       -0.385   0.874   0.000  0.00  0.00    +0.222 HD
ENDBRANCH   1   3
BRANCH   1   5
ATOM      5  O   LIG    1        2.230   0.732  -1.284  0.00  0.00    -0.303 OA
ATOM      6  H   LIG    1        1.958   1.661  -1.228  0.00  0.00    +0.222 HD
ENDBRANCH   1   5
BRANCH   1   7
ATOM      7  O   LIG    1        2.230   0.732   1.284  0.00  0.00    -0.303 OA
ATOM      8  H   LIG    1        1.939   0.225   2.058  0.00  0.00    +0.222 HD
ENDBRANCH   1   7
TORSDOF 3
