REMARK  Name = DB09326
REMARK                            x       y       z     vdW  Elec       q    Type
REMARK                         _______ _______ _______ _____ _____    ______ ____
ROOT
ATOM      1  N   LIG    1        0.123   0.337   0.266  0.00  0.00    -0.344 NA
ATOM      2  H   LIG    1       -0.659   0.381   0.902  0.00  0.00    +0.115 HD
ATOM      3  H   LIG    1        0.156   1.182  -0.288  0.00  0.00    +0.115 HD
ATOM      4  H   LIG    1        0.981   0.246   0.791  0.00  0.00    +0.115 HD
ENDROOT
TORSDOF 0
