REMARK  Name = DB09374
REMARK                            x       y       z     vdW  Elec       q    Type
REMARK                         _______ _______ _______ _____ _____    ______ ____
ROOT
ATOM      1  C   LIG    1        1.641   0.230   0.044  0.00  0.00    +0.000 C 
ATOM      2  C   LIG    1        2.371  -0.897   0.071  0.00  0.00    +0.000 C 
ENDROOT
BRANCH   1   4
ATOM      3  C   LIG    1       -0.506   1.402   0.017  0.00  0.00    +0.002 C 
ATOM      4  C   LIG    1        0.191   0.253  -0.004  0.00  0.00    +0.000 C 
BRANCH   3  19
ATOM      5  C   LIG    1       -4.818   1.760  -1.358  0.00  0.00    +0.022 C 
ATOM      6  C   LIG    1       -4.301   2.515  -0.110  0.00  0.00    +0.031 C 
ATOM      7  C   LIG    1       -4.706   3.983  -0.163  0.00  0.00    -0.007 A 
ATOM      8  C   LIG    1       -5.987   4.625  -0.133  0.00  0.00    -0.012 A 
ATOM      9  C   LIG    1       -7.213   3.909  -0.045  0.00  0.00    +0.009 A 
ATOM     10  C   LIG    1       -8.432   4.580  -0.013  0.00  0.00    +0.001 A 
ATOM     11  C   LIG    1       -8.477   5.967  -0.067  0.00  0.00    +0.001 A 
ATOM     12  C   LIG    1       -7.302   6.706  -0.160  0.00  0.00    +0.008 A 
ATOM     13  C   LIG    1       -6.044   6.054  -0.198  0.00  0.00    -0.017 A 
ATOM     14  C   LIG    1       -4.843   6.792  -0.302  0.00  0.00    +0.010 A 
ATOM     15  C   LIG    1       -3.618   6.139  -0.346  0.00  0.00    +0.024 A 
ATOM     16  C   LIG    1       -3.556   4.747  -0.280  0.00  0.00    +0.038 A 
ATOM     17  N   LIG    1       -2.439   3.902  -0.299  0.00  0.00    -0.302 N 
ATOM     18  C   LIG    1       -2.762   2.554  -0.141  0.00  0.00    +0.021 C 
ATOM     19  C   LIG    1       -1.956   1.466  -0.027  0.00  0.00    +0.020 C 
ATOM     20  C   LIG    1       -4.770   1.849   1.208  0.00  0.00    +0.022 C 
BRANCH  17  21
ATOM     21  C   LIG    1       -1.115   4.498  -0.495  0.00  0.00    +0.111 C 
BRANCH  21  22
ATOM     22  C   LIG    1       -0.401   4.882   0.820  0.00  0.00    +0.021 C 
BRANCH  22  23
ATOM     23  C   LIG    1        1.065   5.326   0.645  0.00  0.00    +0.027 C 
BRANCH  23  24
ATOM     24  C   LIG    1        2.017   4.176   0.266  0.00  0.00    +0.198 C 
BRANCH  24  25
ATOM     25  S   LIG    1        3.811   4.768   0.173  0.00  0.00    +0.080 S 
ATOM     26  O   LIG    1        3.880   6.007  -0.608  0.00  0.00    -0.147 OA
ATOM     27  O   LIG    1        4.675   3.623  -0.135  0.00  0.00    -0.147 OA
BRANCH  25  28
ATOM     28  O   LIG    1        4.016   5.152   1.775  0.00  0.00    -0.254 OA
ATOM     29  H   LIG    1        3.559   5.987   1.991  0.00  0.00    +0.244 HD
ENDBRANCH  25  28
ENDBRANCH  24  25
ENDBRANCH  23  24
ENDBRANCH  22  23
ENDBRANCH  21  22
ENDBRANCH  17  21
ENDBRANCH   3  19
ENDBRANCH   1   4
BRANCH   2  30
ATOM     30  C   LIG    1        3.821  -0.880   0.114  0.00  0.00    +0.002 C 
ATOM     31  C   LIG    1        4.565  -2.002   0.167  0.00  0.00    +0.022 C 
BRANCH  31  32
ATOM     32  C   LIG    1        5.956  -2.083   0.202  0.00  0.00    +0.029 C 
ATOM     33  C   LIG    1        6.972  -0.939   0.130  0.00  0.00    +0.033 C 
ATOM     34  C   LIG    1        6.832  -0.008   1.365  0.00  0.00    +0.022 C 
ATOM     35  C   LIG    1        6.820  -0.171  -1.212  0.00  0.00    +0.022 C 
ATOM     36  C   LIG    1        8.290  -1.695   0.176  0.00  0.00    -0.005 A 
ATOM     37  C   LIG    1        9.653  -1.257   0.129  0.00  0.00    -0.012 A 
ATOM     38  C   LIG    1       10.027   0.112   0.027  0.00  0.00    +0.009 A 
ATOM     39  C   LIG    1       11.367   0.485  -0.023  0.00  0.00    +0.001 A 
ATOM     40  C   LIG    1       12.370  -0.474   0.028  0.00  0.00    +0.001 A 
ATOM     41  C   LIG    1       12.050  -1.823   0.132  0.00  0.00    +0.008 A 
ATOM     42  C   LIG    1       10.696  -2.237   0.185  0.00  0.00    -0.017 A 
ATOM     43  C   LIG    1       10.357  -3.607   0.290  0.00  0.00    +0.010 A 
ATOM     44  C   LIG    1        9.026  -4.003   0.339  0.00  0.00    +0.027 A 
ATOM     45  C   LIG    1        8.014  -3.046   0.281  0.00  0.00    +0.047 A 
ATOM     46  N   LIG    1        6.610  -3.253   0.296  0.00  0.00    -0.343 N 
BRANCH  46  47
ATOM     47  C   LIG    1        5.995  -4.623   0.383  0.00  0.00    +0.122 C 
BRANCH  47  48
ATOM     48  C   LIG    1        5.574  -5.167  -1.002  0.00  0.00    +0.023 C 
BRANCH  48  49
ATOM     49  C   LIG    1        6.723  -5.263  -2.024  0.00  0.00    +0.027 C 
BRANCH  49  50
ATOM     50  C   LIG    1        6.284  -5.868  -3.367  0.00  0.00    +0.198 C 
BRANCH  50  51
ATOM     51  S   LIG    1        7.739  -5.912  -4.578  0.00  0.00    +0.080 S 
ATOM     52  O   LIG    1        8.735  -6.750  -3.901  0.00  0.00    -0.147 OA
ATOM     53  O   LIG    1        8.120  -4.503  -4.721  0.00  0.00    -0.147 OA
BRANCH  51  54
ATOM     54  O   LIG    1        7.159  -6.511  -5.785  0.00  0.00    -0.254 OA
ATOM     55  H   LIG    1        6.514  -5.898  -6.172  0.00  0.00    +0.244 HD
ENDBRANCH  51  54
ENDBRANCH  50  51
ENDBRANCH  49  50
ENDBRANCH  48  49
ENDBRANCH  47  48
ENDBRANCH  46  47
ENDBRANCH  31  32
ENDBRANCH   2  30
TORSDOF 16
