REMARK  Name = DB09165
REMARK                            x       y       z     vdW  Elec       q    Type
REMARK                         _______ _______ _______ _____ _____    ______ ____
ROOT
ATOM      1  O   LIG    1        1.533   0.162   0.281  0.00  0.00    -0.186 OA
ENDROOT
BRANCH   1   2
ATOM      2  P   LIG    1       -0.180  -0.029  -0.028  0.00  0.00    +0.481 P 
ATOM      3  O   LIG    1       -0.277  -0.815  -1.350  0.00  0.00    -0.227 OA
BRANCH   2   4
ATOM      4  O   LIG    1       -0.755  -0.814   1.166  0.00  0.00    -0.302 OA
ATOM      5  H   LIG    1       -1.707  -0.945   1.039  0.00  0.00    +0.222 HD
ENDBRANCH   2   4
BRANCH   2   6
ATOM      6  O   LIG    1       -0.764   1.392  -0.145  0.00  0.00    -0.302 OA
ATOM      7  H   LIG    1       -1.717   1.337  -0.318  0.00  0.00    +0.222 HD
ENDBRANCH   2   6
ENDBRANCH   1   2
BRANCH   1   8
ATOM      8  P   LIG    1        2.587   0.871   1.488  0.00  0.00    +0.481 P 
ATOM      9  O   LIG    1        4.022   0.608   0.990  0.00  0.00    -0.227 OA
BRANCH   8  10
ATOM     10  O   LIG    1        2.282   0.148   2.813  0.00  0.00    -0.302 OA
ATOM     11  H   LIG    1        2.512  -0.790   2.730  0.00  0.00    +0.222 HD
ENDBRANCH   8  10
BRANCH   8  12
ATOM     12  O   LIG    1        2.248   2.373   1.535  0.00  0.00    -0.302 OA
ATOM     13  H   LIG    1        2.458   2.779   0.679  0.00  0.00    +0.222 HD
ENDBRANCH   8  12
ENDBRANCH   1   8
TORSDOF 6
