REMARK  Name = DB09125
REMARK                            x       y       z     vdW  Elec       q    Type
REMARK                         _______ _______ _______ _____ _____    ______ ____
ROOT
ATOM      1  C   LIG    1       -0.086   0.092   0.092  0.00  0.00    +0.182 C 
ENDROOT
BRANCH   1   2
ATOM      2  C   LIG    1       -0.708  -0.371   1.468  0.00  0.00    +0.338 C 
ATOM      3  O   LIG    1       -0.487  -1.551   1.835  0.00  0.00    -0.248 OA
BRANCH   2   4
ATOM      4  O   LIG    1       -1.394   0.428   2.152  0.00  0.00    -0.479 OA
ATOM      5  H   LIG    1       -1.761   0.151   2.968  0.00  0.00    +0.295 HD
ENDBRANCH   2   4
ENDBRANCH   1   2
BRANCH   1   6
ATOM      6  O   LIG    1       -0.404   1.454  -0.216  0.00  0.00    -0.376 OA
ATOM      7  H   LIG    1       -0.002   1.676  -1.058  0.00  0.00    +0.211 HD
ENDBRANCH   1   6
BRANCH   1   8
ATOM      8  C   LIG    1       -0.615  -0.808  -1.095  0.00  0.00    +0.167 C 
BRANCH   8   9
ATOM      9  C   LIG    1       -2.144  -0.875  -1.386  0.00  0.00    +0.308 C 
ATOM     10  O   LIG    1       -2.896   0.066  -1.046  0.00  0.00    -0.251 OA
BRANCH   9  11
ATOM     11  O   LIG    1       -2.541  -1.883  -2.015  0.00  0.00    -0.481 OA
ATOM     12  H   LIG    1       -3.450  -1.979  -2.219  0.00  0.00    +0.295 HD
ENDBRANCH   9  11
ENDBRANCH   8   9
ENDBRANCH   1   8
BRANCH   1  13
ATOM     13  C   LIG    1        1.490  -0.042   0.114  0.00  0.00    +0.167 C 
BRANCH  13  14
ATOM     14  C   LIG    1        2.315   0.748   1.173  0.00  0.00    +0.308 C 
ATOM     15  O   LIG    1        3.462   0.307   1.418  0.00  0.00    -0.251 OA
BRANCH  14  16
ATOM     16  O   LIG    1        1.851   1.789   1.692  0.00  0.00    -0.481 OA
ATOM     17  H   LIG    1        2.354   2.259   2.328  0.00  0.00    +0.295 HD
ENDBRANCH  14  16
ENDBRANCH  13  14
ENDBRANCH   1  13
TORSDOF 9
