REMARK  Name = DB09060
REMARK                            x       y       z     vdW  Elec       q    Type
REMARK                         _______ _______ _______ _____ _____    ______ ____
ROOT
ATOM      1  C   LIG    1       -1.791   0.614   2.108  0.00  0.00    +0.034 C 
ATOM      2  C   LIG    1       -2.633  -0.417   1.257  0.00  0.00    +0.163 C 
ATOM      3  N   LIG    1       -2.114  -0.411  -0.137  0.00  0.00    -0.270 N 
ATOM      4  C   LIG    1       -0.907  -1.001  -0.331  0.00  0.00    +0.331 C 
ATOM      5  O   LIG    1       -0.603  -2.193  -0.302  0.00  0.00    -0.250 OA
ATOM      6  N   LIG    1       -0.111   0.093  -0.383  0.00  0.00    -0.132 N 
ATOM      7  C   LIG    1       -0.804   1.358  -0.185  0.00  0.00    +0.127 C 
ATOM      8  C   LIG    1       -2.087   0.883  -0.817  0.00  0.00    +0.135 C 
ATOM      9  C   LIG    1       -1.052   1.731   1.306  0.00  0.00    +0.029 C 
ENDROOT
BRANCH   2  10
ATOM     10  C   LIG    1       -4.148  -0.113   1.293  0.00  0.00    +0.231 C 
ATOM     11  N   LIG    1       -4.973  -1.163   1.288  0.00  0.00    -0.328 N 
ATOM     12  H   LIG    1       -4.606  -2.103   1.254  0.00  0.00    +0.145 HD
ATOM     13  H   LIG    1       -5.972  -1.020   1.314  0.00  0.00    +0.145 HD
ATOM     14  O   LIG    1       -4.573   1.041   1.329  0.00  0.00    -0.274 OA
ENDBRANCH   2  10
BRANCH   6  15
ATOM     15  O   LIG    1        1.199   0.058   0.081  0.00  0.00    -0.096 OA
BRANCH  15  16
ATOM     16  S   LIG    1        2.319  -0.006  -1.159  0.00  0.00    +0.227 S 
ATOM     17  O   LIG    1        1.994  -1.133  -2.041  0.00  0.00    -0.116 OA
ATOM     18  O   LIG    1        3.651   0.131  -0.562  0.00  0.00    -0.116 OA
BRANCH  16  19
ATOM     19  O   LIG    1        1.965   1.406  -1.960  0.00  0.00    -0.230 OA
ATOM     20  H   LIG    1        1.610   1.220  -2.851  0.00  0.00    +0.247 HD
ENDBRANCH  16  19
ENDBRANCH  15  16
ENDBRANCH   6  15
TORSDOF 4
