REMARK  Name = DB09118
REMARK                            x       y       z     vdW  Elec       q    Type
REMARK                         _______ _______ _______ _____ _____    ______ ____
ROOT
ATOM      1  C   LIG    1       -4.498  -0.005  -0.018  0.00  0.00    +0.167 A 
ATOM      2  O   LIG    1       -5.429  -0.986  -0.153  0.00  0.00    -0.453 OA
ATOM      3  C   LIG    1       -6.664  -0.370   0.101  0.00  0.00    +0.466 C 
ATOM      4  O   LIG    1       -6.472   1.017   0.028  0.00  0.00    -0.453 OA
ATOM      5  C   LIG    1       -3.112  -0.113  -0.015  0.00  0.00    +0.057 A 
ATOM      6  C   LIG    1       -2.352   1.067   0.121  0.00  0.00    -0.022 A 
ATOM      7  C   LIG    1       -3.016   2.306   0.232  0.00  0.00    +0.012 A 
ATOM      8  C   LIG    1       -4.415   2.389   0.213  0.00  0.00    +0.050 A 
ATOM      9  C   LIG    1       -5.127   1.202   0.092  0.00  0.00    +0.166 A 
ENDROOT
BRANCH   6  10
ATOM     10  C   LIG    1       -0.875   1.057   0.141  0.00  0.00    +0.006 C 
ATOM     11  C   LIG    1       -0.069   0.014  -0.136  0.00  0.00    +0.005 C 
BRANCH  11  12
ATOM     12  C   LIG    1        1.453   0.061  -0.089  0.00  0.00    +0.143 C 
BRANCH  12  13
ATOM     13  C   LIG    1        2.167  -0.040  -1.480  0.00  0.00    -0.008 C 
ATOM     14  C   LIG    1        1.824  -1.363  -2.211  0.00  0.00    +0.013 C 
ATOM     15  C   LIG    1        1.737   1.149  -2.376  0.00  0.00    +0.013 C 
ATOM     16  C   LIG    1        3.704   0.039  -1.295  0.00  0.00    +0.013 C 
ENDBRANCH  12  13
BRANCH  12  17
ATOM     17  O   LIG    1        1.865  -0.973   0.787  0.00  0.00    -0.387 OA
ATOM     18  H   LIG    1        1.466  -0.820   1.647  0.00  0.00    +0.210 HD
ENDBRANCH  12  17
ENDBRANCH  11  12
ENDBRANCH   6  10
TORSDOF 4
