REMARK  Name = DB09112
REMARK                            x       y       z     vdW  Elec       q    Type
REMARK                         _______ _______ _______ _____ _____    ______ ____
ROOT
ATOM      1  O   LIG    1       -0.035  -0.054   0.000  0.00  0.00    -0.378 OA
ATOM      2  H   LIG    1       -0.326   0.860   0.000  0.00  0.00    +0.331 HD
ENDROOT
BRANCH   1   3
ATOM      3  N   LIG    1        1.355   0.084   0.000  0.00  0.00    +0.153 NA
ATOM      4  O   LIG    1        1.866  -0.986   0.000  0.00  0.00    -0.106 OA
ENDBRANCH   1   3
TORSDOF 1
