REMARK  Name = DB09320
REMARK                            x       y       z     vdW  Elec       q    Type
REMARK                         _______ _______ _______ _____ _____    ______ ____
ROOT
ATOM      1  N   LIG    1       -1.344   1.049   1.238  0.00  0.00    -0.271 N 
ATOM      2  CA  LIG    1       -1.459   2.017   2.340  0.00  0.00    +0.201 C 
ATOM      3  C   LIG    1       -1.025   1.248   3.640  0.00  0.00    +0.042 C 
ATOM      4  C   LIG    1       -2.169   0.392   4.257  0.00  0.00    +0.025 C 
ATOM      5  C   LIG    1       -0.469   2.154   4.758  0.00  0.00    +0.025 C 
ATOM      6  S   LIG    1        0.211   0.049   3.054  0.00  0.00    -0.127 S 
ATOM      7  C   LIG    1       -0.595   1.272   0.077  0.00  0.00    +0.240 C 
ATOM      8  O   LIG    1       -0.386   2.268  -0.615  0.00  0.00    -0.273 OA
ATOM      9  CA  LIG    1       -0.058  -0.177   0.118  0.00  0.00    +0.190 C 
ATOM     10  C   LIG    1       -0.703  -0.262   1.520  0.00  0.00    +0.165 C 
ENDROOT
BRANCH   9  11
ATOM     11  N   LIG    1        1.401  -0.299   0.036  0.00  0.00    -0.301 N 
ATOM     12  H   LIG    1        1.903  -0.158   0.900  0.00  0.00    +0.150 HD
ATOM     13  C   LIG    1        2.109  -0.498  -1.090  0.00  0.00    +0.218 C 
ATOM     14  O   LIG    1        1.594  -0.635  -2.201  0.00  0.00    -0.275 OA
BRANCH  13  15
ATOM     15  C   LIG    1        3.636  -0.561  -0.931  0.00  0.00    +0.130 C 
BRANCH  15  16
ATOM     16  C   LIG    1        4.359   0.341  -1.927  0.00  0.00    -0.039 A 
ATOM     17  C   LIG    1        4.914  -0.202  -3.090  0.00  0.00    +0.004 A 
ATOM     18  C   LIG    1        5.555   0.626  -4.007  0.00  0.00    +0.000 A 
ATOM     19  C   LIG    1        5.636   1.995  -3.763  0.00  0.00    +0.000 A 
ATOM     20  C   LIG    1        5.078   2.545  -2.610  0.00  0.00    +0.000 A 
ATOM     21  C   LIG    1        4.436   1.718  -1.692  0.00  0.00    +0.004 A 
ENDBRANCH  15  16
ENDBRANCH  13  15
ENDBRANCH   9  11
BRANCH   2  22
ATOM     22  C   LIG    1       -2.842   2.701   2.419  0.00  0.00    +0.327 C 
ATOM     23  O   LIG    1       -3.825   2.328   1.812  0.00  0.00    -0.249 OA
BRANCH  22  24
ATOM     24  OXT LIG    1       -2.785   3.792   3.236  0.00  0.00    -0.479 OA
ATOM     25  HXT LIG    1       -3.628   4.247   3.295  0.00  0.00    +0.295 HD
ENDBRANCH  22  24
ENDBRANCH   2  22
TORSDOF 5
