REMARK  Name = DB09555
REMARK                            x       y       z     vdW  Elec       q    Type
REMARK                         _______ _______ _______ _____ _____    ______ ____
ROOT
ATOM      1  C   LIG    1        2.062  -1.432  -0.061  0.00  0.00    +0.069 C 
ENDROOT
BRANCH   1   2
ATOM      2  C   LIG    1        1.468  -2.130  -1.292  0.00  0.00    -0.038 A 
ATOM      3  C   LIG    1        1.299  -1.444  -2.502  0.00  0.00    +0.006 A 
ATOM      4  C   LIG    1        0.749  -2.092  -3.604  0.00  0.00    +0.020 A 
ATOM      5  C   LIG    1        0.366  -3.428  -3.501  0.00  0.00    +0.041 A 
ATOM      6 CL   LIG    1       -0.318  -4.231  -4.867  0.00  0.00    -0.084 Cl
ATOM      7  C   LIG    1        0.531  -4.120  -2.303  0.00  0.00    +0.020 A 
ATOM      8  C   LIG    1        1.081  -3.471  -1.200  0.00  0.00    +0.006 A 
ENDBRANCH   1   2
BRANCH   1   9
ATOM      9  C   LIG    1        3.592  -1.482  -0.064  0.00  0.00    +0.049 A 
ATOM     10  N   LIG    1        4.231  -0.711  -0.988  0.00  0.00    -0.259 NA
ATOM     11  C   LIG    1        5.588  -0.732  -1.011  0.00  0.00    +0.111 A 
ATOM     12  C   LIG    1        6.349  -1.504  -0.132  0.00  0.00    +0.020 A 
ATOM     13  C   LIG    1        5.684  -2.289   0.811  0.00  0.00    +0.003 A 
ATOM     14  C   LIG    1        4.288  -2.282   0.852  0.00  0.00    +0.024 A 
ENDBRANCH   1   9
BRANCH   1  15
ATOM     15  C   LIG    1        1.523   0.007   0.162  0.00  0.00    +0.029 C 
BRANCH  15  16
ATOM     16  C   LIG    1       -0.002   0.074   0.421  0.00  0.00    +0.085 C 
BRANCH  16  18
ATOM     17  C   LIG    1       -1.903   1.461   0.855  0.00  0.00    +0.104 C 
ATOM     18  N   LIG    1       -0.557   1.424   0.288  0.00  0.00    -0.308 NA
ATOM     19  C   LIG    1       -0.629   1.843  -1.112  0.00  0.00    +0.104 C 
ENDBRANCH  16  18
ENDBRANCH  15  16
ENDBRANCH   1  15
TORSDOF 5
