REMARK  Name = DB09534
REMARK                            x       y       z     vdW  Elec       q    Type
REMARK                         _______ _______ _______ _____ _____    ______ ____
ROOT
ATOM      1  C   LIG    1        1.523   0.143   0.033  0.00  0.00    -0.025 A 
ATOM      2  C   LIG    1        2.234  -0.694   0.895  0.00  0.00    +0.008 A 
ATOM      3  C   LIG    1        3.626  -0.680   0.897  0.00  0.00    +0.008 A 
ATOM      4  C   LIG    1        4.325   0.170   0.037  0.00  0.00    -0.025 A 
ATOM      5  C   LIG    1        3.612   0.991  -0.844  0.00  0.00    +0.008 A 
ATOM      6  C   LIG    1        2.220   0.975  -0.848  0.00  0.00    +0.008 A 
ENDROOT
BRANCH   1  13
ATOM      7  C   LIG    1       -1.714   4.725  -1.034  0.00  0.00    +0.012 C 
ATOM      8  C   LIG    1       -1.634   3.171  -0.915  0.00  0.00    -0.014 C 
ATOM      9  C   LIG    1       -2.725   2.522  -0.010  0.00  0.00    +0.061 C 
ATOM     10  C   LIG    1       -2.254   1.040   0.036  0.00  0.00    +0.168 C 
ATOM     11  O   LIG    1       -2.901  -0.008   0.013  0.00  0.00    -0.292 OA
ATOM     12  C   LIG    1       -0.787   1.173   0.051  0.00  0.00    -0.000 C 
ATOM     13  C   LIG    1        0.050   0.112   0.071  0.00  0.00    +0.015 C 
ATOM     14  C   LIG    1       -2.431   3.123   1.403  0.00  0.00    +0.017 C 
ATOM     15  C   LIG    1       -0.888   3.229   1.425  0.00  0.00    +0.010 C 
ATOM     16  C   LIG    1       -0.506   2.684   0.022  0.00  0.00    +0.029 C 
ATOM     17  C   LIG    1       -1.536   2.645  -2.389  0.00  0.00    +0.012 C 
BRANCH   9  18
ATOM     18  C   LIG    1       -4.189   2.644  -0.528  0.00  0.00    +0.213 C 
BRANCH  18  19
ATOM     19  S   LIG    1       -5.490   2.401   0.835  0.00  0.00    +0.081 S 
ATOM     20  O   LIG    1       -5.532   3.591   1.692  0.00  0.00    -0.147 OA
ATOM     21  O   LIG    1       -5.369   1.056   1.406  0.00  0.00    -0.147 OA
BRANCH  19  22
ATOM     22  O   LIG    1       -6.836   2.424  -0.137  0.00  0.00    -0.254 OA
ATOM     23  H   LIG    1       -6.914   1.590  -0.638  0.00  0.00    +0.244 HD
ENDBRANCH  19  22
ENDBRANCH  18  19
ENDBRANCH   9  18
ENDBRANCH   1  13
BRANCH   4  24
ATOM     24  C   LIG    1        5.799   0.170   0.089  0.00  0.00    +0.015 C 
ATOM     25  C   LIG    1        6.619   1.236  -0.049  0.00  0.00    -0.000 C 
ATOM     26  C   LIG    1        8.086   1.143   0.017  0.00  0.00    +0.168 C 
ATOM     27  O   LIG    1        8.748   0.118   0.190  0.00  0.00    -0.292 OA
ATOM     28  C   LIG    1        8.536   2.630  -0.129  0.00  0.00    +0.061 C 
ATOM     29  C   LIG    1        7.402   3.361   0.663  0.00  0.00    -0.014 C 
ATOM     30  C   LIG    1        7.268   3.031   2.190  0.00  0.00    +0.012 C 
ATOM     31  C   LIG    1        7.399   4.917   0.577  0.00  0.00    +0.012 C 
ATOM     32  C   LIG    1        8.258   3.015  -1.620  0.00  0.00    +0.017 C 
ATOM     33  C   LIG    1        6.713   3.088  -1.683  0.00  0.00    +0.010 C 
ATOM     34  C   LIG    1        6.309   2.726  -0.227  0.00  0.00    +0.029 C 
BRANCH  28  35
ATOM     35  C   LIG    1       10.007   2.776   0.386  0.00  0.00    +0.213 C 
BRANCH  35  36
ATOM     36  S   LIG    1       10.962   4.271  -0.296  0.00  0.00    +0.081 S 
ATOM     37  O   LIG    1       10.370   5.521   0.185  0.00  0.00    -0.147 OA
ATOM     38  O   LIG    1       11.252   4.063  -1.719  0.00  0.00    -0.147 OA
BRANCH  36  39
ATOM     39  O   LIG    1       12.372   4.027   0.546  0.00  0.00    -0.254 OA
ATOM     40  H   LIG    1       12.259   4.264   1.486  0.00  0.00    +0.244 HD
ENDBRANCH  36  39
ENDBRANCH  35  36
ENDBRANCH  28  35
ENDBRANCH   4  24
TORSDOF 8
