REMARK  Name = DB09448
REMARK                            x       y       z     vdW  Elec       q    Type
REMARK                         _______ _______ _______ _____ _____    ______ ____
ROOT
ATOM      1  C   LIG    1       -0.807   1.046  -0.165  0.00  0.00    +0.246 C 
ATOM      2  N   LIG    1        0.030   0.008   0.024  0.00  0.00    -0.301 N 
ATOM      3  H   LIG    1       -0.367  -0.897   0.228  0.00  0.00    +0.150 HD
ATOM      4  O   LIG    1       -0.449   2.206  -0.369  0.00  0.00    -0.270 OA
ENDROOT
BRANCH   1   7
ATOM      5  C   LIG    1       -4.230   0.206   1.228  0.00  0.00    +0.001 A 
ATOM      6  C   LIG    1       -2.878   0.539   1.140  0.00  0.00    +0.014 A 
ATOM      7  C   LIG    1       -2.263   0.692  -0.110  0.00  0.00    +0.050 A 
ATOM      8  C   LIG    1       -3.021   0.500  -1.280  0.00  0.00    +0.025 A 
ATOM      9  I   LIG    1       -2.206   0.688  -3.207  0.00  0.00    -0.043 I 
ATOM     10  C   LIG    1       -4.374   0.167  -1.181  0.00  0.00    +0.015 A 
ATOM     11  C   LIG    1       -4.978   0.021   0.067  0.00  0.00    +0.001 A 
ENDBRANCH   1   7
BRANCH   2  12
ATOM     12  C   LIG    1        1.500   0.087   0.027  0.00  0.00    +0.225 C 
BRANCH  12  13
ATOM     13  C   LIG    1        2.165   0.100  -1.376  0.00  0.00    +0.322 C 
ATOM     14  O   LIG    1        3.390   0.355  -1.396  0.00  0.00    -0.249 OA
BRANCH  13  15
ATOM     15  O   LIG    1        1.491  -0.160  -2.401  0.00  0.00    -0.480 OA
ATOM     16  H   LIG    1        0.576  -0.343  -2.326  0.00  0.00    +0.295 HD
ENDBRANCH  13  15
ENDBRANCH  12  13
ENDBRANCH   2  12
TORSDOF 4
