REMARK  Name = DB09211
REMARK                            x       y       z     vdW  Elec       q    Type
REMARK                         _______ _______ _______ _____ _____    ______ ____
ROOT
ATOM      1  C   LIG    1       -2.267   1.215   0.138  0.00  0.00    +0.051 C 
ATOM      2  C   LIG    1       -2.821   2.104   1.252  0.00  0.00    +0.129 C 
ATOM      3  C   LIG    1       -4.224   2.483   0.780  0.00  0.00    +0.106 C 
ATOM      4  C   LIG    1       -4.147   2.474  -0.748  0.00  0.00    +0.140 C 
ATOM      5  O   LIG    1       -5.033   2.868  -1.505  0.00  0.00    -0.297 OA
ATOM      6  C   LIG    1       -2.801   1.847  -1.163  0.00  0.00    +0.065 C 
ENDROOT
BRANCH   1   7
ATOM      7  C   LIG    1       -0.749   1.123   0.167  0.00  0.00    -0.022 C 
ATOM      8  C   LIG    1       -0.056  -0.006   0.395  0.00  0.00    -0.000 C 
BRANCH   8   9
ATOM      9  C   LIG    1        1.457  -0.108   0.383  0.00  0.00    +0.137 C 
BRANCH   9  10
ATOM     10  O   LIG    1        1.865  -0.545   1.663  0.00  0.00    -0.388 OA
ATOM     11  H   LIG    1        1.599   0.114   2.308  0.00  0.00    +0.210 HD
ENDBRANCH   9  10
BRANCH   9  12
ATOM     12  C   LIG    1        1.968  -1.089  -0.698  0.00  0.00    +0.038 C 
BRANCH  12  13
ATOM     13  C   LIG    1        3.509  -1.198  -0.854  0.00  0.00    -0.011 C 
ATOM     14  C   LIG    1        3.863  -2.387  -1.774  0.00  0.00    +0.007 C 
BRANCH  13  15
ATOM     15  C   LIG    1        4.140   0.136  -1.333  0.00  0.00    +0.003 C 
BRANCH  15  16
ATOM     16  C   LIG    1        5.665   0.103  -1.563  0.00  0.00    -0.000 C 
BRANCH  16  17
ATOM     17  C   LIG    1        6.241   1.480  -1.937  0.00  0.00    -0.003 C 
ATOM     18  C   LIG    1        7.755   1.448  -2.187  0.00  0.00    +0.004 C 
ENDBRANCH  16  17
ENDBRANCH  15  16
ENDBRANCH  13  15
ENDBRANCH  12  13
ENDBRANCH   9  12
ENDBRANCH   8   9
ENDBRANCH   1   7
BRANCH   2  19
ATOM     19  O   LIG    1       -2.825   1.484   2.522  0.00  0.00    -0.391 OA
ATOM     20  H   LIG    1       -1.925   1.466   2.854  0.00  0.00    +0.210 HD
ENDBRANCH   2  19
BRANCH   6  21
ATOM     21  C   LIG    1       -2.994   0.882  -2.363  0.00  0.00    +0.012 C 
BRANCH  21  22
ATOM     22  C   LIG    1       -1.685   0.278  -2.909  0.00  0.00    +0.001 C 
BRANCH  22  23
ATOM     23  C   LIG    1       -1.892  -0.532  -4.202  0.00  0.00    +0.004 C 
BRANCH  23  24
ATOM     24  C   LIG    1       -0.610  -1.198  -4.736  0.00  0.00    +0.027 C 
BRANCH  24  25
ATOM     25  C   LIG    1        0.460  -0.223  -5.194  0.00  0.00    -0.020 C 
ATOM     26  C   LIG    1        1.735  -0.224  -4.751  0.00  0.00    +0.087 C 
BRANCH  26  27
ATOM     27  C   LIG    1        2.835   0.765  -5.203  0.00  0.00    +0.329 C 
ATOM     28  O   LIG    1        3.997   0.322  -5.069  0.00  0.00    -0.246 OA
BRANCH  27  29
ATOM     29  O   LIG    1        2.448   1.887  -5.607  0.00  0.00    -0.478 OA
ATOM     30  H   LIG    1        3.073   2.524  -5.892  0.00  0.00    +0.295 HD
ENDBRANCH  27  29
ENDBRANCH  26  27
ENDBRANCH  24  25
ENDBRANCH  23  24
ENDBRANCH  22  23
ENDBRANCH  21  22
ENDBRANCH   6  21
TORSDOF 16
