REMARK  Name = DB09078
REMARK                            x       y       z     vdW  Elec       q    Type
REMARK                         _______ _______ _______ _____ _____    ______ ____
ROOT
ATOM      1  C   LIG    1       -2.120   3.572   0.074  0.00  0.00    +0.134 A 
ATOM      2  C   LIG    1       -2.863   2.385   0.189  0.00  0.00    +0.074 A 
ATOM      3  C   LIG    1       -2.232   1.122   0.203  0.00  0.00    +0.078 A 
ATOM      4  N   LIG    1       -3.006   0.006   0.321  0.00  0.00    -0.255 NA
ATOM      5  C   LIG    1       -2.394  -1.202   0.339  0.00  0.00    +0.115 A 
ATOM      6  C   LIG    1       -1.016  -1.366   0.245  0.00  0.00    +0.066 A 
ATOM      7  C   LIG    1       -0.204  -0.236   0.125  0.00  0.00    +0.139 A 
ATOM      8  C   LIG    1       -0.814   1.051   0.096  0.00  0.00    +0.044 A 
ATOM      9  C   LIG    1       -0.078   2.252  -0.020  0.00  0.00    +0.030 A 
ATOM     10  C   LIG    1       -0.715   3.501  -0.031  0.00  0.00    +0.079 A 
ENDROOT
BRANCH  10  11
ATOM     11  C   LIG    1        0.127   4.756  -0.137  0.00  0.00    +0.245 C 
ATOM     12  O   LIG    1       -0.165   5.787   0.468  0.00  0.00    -0.270 OA
ATOM     13  N   LIG    1        1.200   4.693  -0.933  0.00  0.00    -0.325 N 
ATOM     14  H   LIG    1        1.415   3.845  -1.436  0.00  0.00    +0.145 HD
ATOM     15  H   LIG    1        1.794   5.502  -1.044  0.00  0.00    +0.145 HD
ENDBRANCH  10  11
BRANCH   1  16
ATOM     16  O   LIG    1       -2.722   4.821   0.041  0.00  0.00    -0.494 OA
ATOM     17  C   LIG    1       -4.132   4.939   0.203  0.00  0.00    +0.277 C 
ENDBRANCH   1  16
BRANCH   7  18
ATOM     18  O   LIG    1        1.162  -0.369   0.025  0.00  0.00    -0.455 OA
BRANCH  18  19
ATOM     19  C   LIG    1        1.892  -0.804   1.111  0.00  0.00    +0.130 A 
ATOM     20  C   LIG    1        1.529  -0.523   2.435  0.00  0.00    +0.068 A 
ATOM     21  C   LIG    1        2.315  -0.962   3.501  0.00  0.00    +0.066 A 
ATOM     22 CL   LIG    1        1.801  -0.579   5.111  0.00  0.00    -0.082 Cl
ATOM     23  C   LIG    1        3.487  -1.696   3.255  0.00  0.00    +0.053 A 
ATOM     24  C   LIG    1        3.860  -1.959   1.926  0.00  0.00    +0.028 A 
ATOM     25  C   LIG    1        3.069  -1.513   0.868  0.00  0.00    +0.048 A 
BRANCH  23  26
ATOM     26  N   LIG    1        4.254  -2.122   4.357  0.00  0.00    -0.268 N 
ATOM     27  H   LIG    1        4.095  -1.604   5.209  0.00  0.00    +0.156 HD
ATOM     28  C   LIG    1        5.022  -3.225   4.457  0.00  0.00    +0.304 C 
ATOM     29  O   LIG    1        5.172  -4.073   3.575  0.00  0.00    -0.253 OA
ATOM     30  N   LIG    1        5.591  -3.302   5.670  0.00  0.00    -0.296 N 
ATOM     31  H   LIG    1        5.617  -2.461   6.229  0.00  0.00    +0.151 HD
BRANCH  30  32
ATOM     32  C   LIG    1        6.498  -4.369   6.083  0.00  0.00    +0.075 C 
ATOM     33  C   LIG    1        6.368  -4.927   7.481  0.00  0.00    +0.024 C 
ATOM     34  C   LIG    1        5.952  -5.764   6.293  0.00  0.00    +0.024 C 
ENDBRANCH  30  32
ENDBRANCH  23  26
ENDBRANCH  18  19
ENDBRANCH   7  18
TORSDOF 6
