REMARK  Name = DB09494
REMARK                            x       y       z     vdW  Elec       q    Type
REMARK                         _______ _______ _______ _____ _____    ______ ____
ROOT
ATOM      1  C   LIG    1       -0.035   0.057  -0.062  0.00  0.00    -0.000 C 
ENDROOT
BRANCH   1   2
ATOM      2  C   LIG    1       -0.574   1.498  -0.108  0.00  0.00    +0.000 C 
BRANCH   2   3
ATOM      3  C   LIG    1       -2.110   1.563  -0.214  0.00  0.00    +0.000 C 
BRANCH   3   4
ATOM      4  C   LIG    1       -2.691   2.990  -0.163  0.00  0.00    +0.000 C 
BRANCH   4   5
ATOM      5  C   LIG    1       -2.310   3.875  -1.366  0.00  0.00    +0.002 C 
BRANCH   5   6
ATOM      6  C   LIG    1       -2.965   5.267  -1.318  0.00  0.00    +0.028 C 
BRANCH   6   7
ATOM      7  C   LIG    1       -2.567   6.156  -2.508  0.00  0.00    +0.156 C 
BRANCH   7   8
ATOM      8  O   LIG    1       -3.182   7.423  -2.416  0.00  0.00    -0.395 OA
ATOM      9  H   LIG    1       -2.909   7.951  -3.171  0.00  0.00    +0.209 HD
ENDBRANCH   7   8
ENDBRANCH   6   7
ENDBRANCH   5   6
ENDBRANCH   4   5
ENDBRANCH   3   4
ENDBRANCH   2   3
ENDBRANCH   1   2
BRANCH   1  10
ATOM     10  C   LIG    1        1.500  -0.005   0.025  0.00  0.00    -0.000 C 
BRANCH  10  11
ATOM     11  C   LIG    1        2.045  -1.444   0.066  0.00  0.00    -0.000 C 
BRANCH  11  12
ATOM     12  C   LIG    1        3.583  -1.498   0.122  0.00  0.00    -0.000 C 
BRANCH  12  13
ATOM     13  C   LIG    1        4.135  -2.934   0.158  0.00  0.00    -0.000 C 
BRANCH  13  14
ATOM     14  C   LIG    1        5.673  -2.981   0.177  0.00  0.00    -0.000 C 
BRANCH  14  15
ATOM     15  C   LIG    1        6.233  -4.417   0.204  0.00  0.00    -0.000 C 
BRANCH  15  16
ATOM     16  C   LIG    1        7.769  -4.501   0.091  0.00  0.00    -0.000 C 
BRANCH  16  17
ATOM     17  C   LIG    1        8.529  -3.905   1.291  0.00  0.00    -0.003 C 
ATOM     18  C   LIG    1       10.051  -4.062   1.170  0.00  0.00    +0.004 C 
ENDBRANCH  16  17
ENDBRANCH  15  16
ENDBRANCH  14  15
ENDBRANCH  13  14
ENDBRANCH  12  13
ENDBRANCH  11  12
ENDBRANCH  10  11
ENDBRANCH   1  10
TORSDOF 15
