REMARK  Name = DB09411
REMARK                            x       y       z     vdW  Elec       q    Type
REMARK                         _______ _______ _______ _____ _____    ______ ____
ROOT
ATOM      1  C   LIG    1        0.124   0.169  -0.059  0.00  0.00    +0.264 C 
ATOM      2  C   LIG    1       -0.596  -0.719   0.978  0.00  0.00    +0.068 C 
ENDROOT
BRANCH   1   3
ATOM      3  O   LIG    1       -0.223  -0.342  -1.334  0.00  0.00    -0.367 OA
ATOM      4  H   LIG    1        0.537  -0.259  -1.916  0.00  0.00    +0.212 HD
ENDBRANCH   1   3
BRANCH   1   5
ATOM      5  P   LIG    1       -0.602   1.908   0.003  0.00  0.00    +0.371 P 
ATOM      6  O   LIG    1       -0.134   2.778   1.147  0.00  0.00    -0.255 OA
BRANCH   5   7
ATOM      7  O   LIG    1       -2.293   1.615  -0.024  0.00  0.00    -0.322 OA
ATOM      8  H   LIG    1       -2.690   0.734  -0.163  0.00  0.00    +0.220 HD
ENDBRANCH   5   7
BRANCH   5   9
ATOM      9  O   LIG    1       -0.180   2.521  -1.544  0.00  0.00    -0.322 OA
ATOM     10  H   LIG    1       -0.125   3.474  -1.751  0.00  0.00    +0.220 HD
ENDBRANCH   5   9
ENDBRANCH   1   5
BRANCH   1  11
ATOM     11  P   LIG    1        1.987  -0.080   0.095  0.00  0.00    +0.371 P 
ATOM     12  O   LIG    1        2.661   0.681   1.213  0.00  0.00    -0.255 OA
BRANCH  11  13
ATOM     13  O   LIG    1        2.541   0.361  -1.469  0.00  0.00    -0.322 OA
ATOM     14  H   LIG    1        2.382   1.234  -1.877  0.00  0.00    +0.220 HD
ENDBRANCH  11  13
BRANCH  11  15
ATOM     15  O   LIG    1        2.151  -1.783   0.220  0.00  0.00    -0.322 OA
ATOM     16  H   LIG    1        2.925  -2.225   0.619  0.00  0.00    +0.220 HD
ENDBRANCH  11  15
ENDBRANCH   1  11
TORSDOF 7
