REMARK  Name = DB09015
REMARK                            x       y       z     vdW  Elec       q    Type
REMARK                         _______ _______ _______ _____ _____    ______ ____
ROOT
ATOM      1  C   LIG    1       -0.038   0.016   0.051  0.00  0.00    +0.072 C 
ATOM      2  C   LIG    1       -0.609  -0.805   1.250  0.00  0.00    +0.035 C 
ATOM      3  C   LIG    1       -1.087  -2.166   0.707  0.00  0.00    +0.007 C 
ATOM      4  C   LIG    1       -0.623  -2.182  -0.751  0.00  0.00    +0.005 C 
ATOM      5  C   LIG    1       -1.317  -3.132  -1.764  0.00  0.00    +0.019 C 
ATOM      6  C   LIG    1       -1.347  -4.598  -1.338  0.00  0.00    -0.023 C 
ATOM      7  C   LIG    1       -1.170  -5.619  -2.194  0.00  0.00    +0.000 C 
ATOM      8  C   LIG    1       -0.952  -5.444  -3.625  0.00  0.00    -0.038 C 
ATOM      9  C   LIG    1       -0.588  -6.515  -4.370  0.00  0.00    +0.050 C 
ATOM     10  C   LIG    1       -0.295  -6.478  -5.798  0.00  0.00    +0.156 C 
ATOM     11  C   LIG    1       -0.549  -5.146  -6.515  0.00  0.00    +0.080 C 
ATOM     12  C   LIG    1       -0.350  -3.941  -5.572  0.00  0.00    +0.019 C 
ATOM     13  O   LIG    1        0.063  -7.485  -6.405  0.00  0.00    -0.293 OA
ATOM     14  C   LIG    1       -1.151  -4.030  -4.234  0.00  0.00    -0.003 C 
ATOM     15  C   LIG    1       -2.664  -3.825  -4.519  0.00  0.00    +0.016 C 
ATOM     16  C   LIG    1       -0.622  -2.997  -3.172  0.00  0.00    +0.006 C 
ATOM     17  C   LIG    1       -0.562  -1.510  -3.637  0.00  0.00    +0.005 C 
ATOM     18  C   LIG    1        0.067  -0.596  -2.553  0.00  0.00    +0.010 C 
ATOM     19  C   LIG    1       -0.692  -0.695  -1.195  0.00  0.00    +0.000 C 
ATOM     20  C   LIG    1       -2.160  -0.175  -1.384  0.00  0.00    +0.014 C 
ENDROOT
BRANCH   1  21
ATOM     21  O   LIG    1       -0.378   1.392   0.159  0.00  0.00    -0.388 OA
ATOM     22  H   LIG    1        0.011   1.738   0.965  0.00  0.00    +0.210 HD
ENDBRANCH   1  21
BRANCH   1  23
ATOM     23  C   LIG    1        1.530   0.028   0.039  0.00  0.00    +0.046 C 
BRANCH  23  24
ATOM     24  C   LIG    1        2.235   0.710   1.244  0.00  0.00    +0.123 C 
BRANCH  24  25
ATOM     25  C   LIG    1        3.760   0.600   1.162  0.00  0.00    +0.305 C 
ATOM     26  O   LIG    1        4.480   1.509   0.757  0.00  0.00    -0.251 OA
BRANCH  25  27
ATOM     27  O   LIG    1        4.203  -0.620   1.586  0.00  0.00    -0.481 OA
ATOM     28  H   LIG    1        5.158  -0.696   1.537  0.00  0.00    +0.295 HD
ENDBRANCH  25  27
ENDBRANCH  24  25
ENDBRANCH  23  24
ENDBRANCH   1  23
TORSDOF 5
