REMARK  Name = DB09333
REMARK                            x       y       z     vdW  Elec       q    Type
REMARK                         _______ _______ _______ _____ _____    ______ ____
ROOT
ATOM      1  C   LIG    1        0.105  -0.511   0.267  0.00  0.00    +0.092 A 
ATOM      2  C   LIG    1       -0.744  -1.627   0.441  0.00  0.00    +0.044 A 
ATOM      3  I   LIG    1        0.044  -3.389   1.296  0.00  0.00    -0.041 I 
ATOM      4  C   LIG    1       -2.103  -1.564   0.070  0.00  0.00    -0.019 A 
ATOM      5  C   LIG    1       -2.620  -0.364  -0.444  0.00  0.00    +0.019 A 
ATOM      6  I   LIG    1       -4.635  -0.124  -0.983  0.00  0.00    -0.043 I 
ATOM      7  C   LIG    1       -1.791   0.741  -0.597  0.00  0.00    +0.031 A 
ATOM      8  C   LIG    1       -0.447   0.676  -0.247  0.00  0.00    +0.041 A 
ATOM      9  I   LIG    1        0.700   2.416  -0.503  0.00  0.00    -0.042 I 
ENDROOT
BRANCH   1  11
ATOM     10  C   LIG    1        2.315  -0.913  -0.241  0.00  0.00    +0.184 C 
ATOM     11  N   LIG    1        1.456  -0.564   0.634  0.00  0.00    -0.238 NA
BRANCH  10  13
ATOM     12  C   LIG    1        4.483  -1.314  -1.352  0.00  0.00    +0.129 C 
ATOM     13  N   LIG    1        3.693  -1.049  -0.154  0.00  0.00    -0.327 N 
ATOM     14  C   LIG    1        4.395  -0.781   1.099  0.00  0.00    +0.129 C 
ENDBRANCH  10  13
ENDBRANCH   1  11
BRANCH   4  15
ATOM     15  C   LIG    1       -3.019  -2.779   0.243  0.00  0.00    +0.048 C 
BRANCH  15  16
ATOM     16  C   LIG    1       -3.686  -2.814   1.635  0.00  0.00    +0.125 C 
BRANCH  16  17
ATOM     17  C   LIG    1       -4.532  -4.069   1.854  0.00  0.00    +0.305 C 
ATOM     18  O   LIG    1       -5.761  -4.066   1.832  0.00  0.00    -0.251 OA
BRANCH  17  19
ATOM     19  O   LIG    1       -3.756  -5.170   2.075  0.00  0.00    -0.481 OA
ATOM     20  H   LIG    1       -4.280  -5.962   2.216  0.00  0.00    +0.295 HD
ENDBRANCH  17  19
ENDBRANCH  16  17
ENDBRANCH  15  16
ENDBRANCH   4  15
TORSDOF 6
