REMARK  Name = DB09343
REMARK                            x       y       z     vdW  Elec       q    Type
REMARK                         _______ _______ _______ _____ _____    ______ ____
ROOT
ATOM      1 CL   LIG    1       -0.478  -2.633   0.647  0.00  0.00    -0.076 Cl
ATOM      2  C   LIG    1       -0.989  -0.988   0.231  0.00  0.00    +0.128 A 
ATOM      3  C   LIG    1       -2.416  -0.732   0.073  0.00  0.00    +0.273 A 
ATOM      4  O   LIG    1       -3.304  -1.571   0.215  0.00  0.00    -0.266 OA
ATOM      5  N   LIG    1       -2.690   0.565  -0.257  0.00  0.00    -0.274 N 
ATOM      6  H   LIG    1       -3.669   0.781  -0.375  0.00  0.00    +0.173 HD
ATOM      7  C   LIG    1       -1.833   1.615  -0.449  0.00  0.00    +0.327 A 
ATOM      8  O   LIG    1       -2.209   2.748  -0.739  0.00  0.00    -0.247 OA
ATOM      9  N   LIG    1       -0.520   1.286  -0.282  0.00  0.00    -0.307 N 
ATOM     10  H   LIG    1        0.149   2.030  -0.418  0.00  0.00    +0.170 HD
ATOM     11  C   LIG    1       -0.103   0.026   0.061  0.00  0.00    +0.084 A 
ENDROOT
BRANCH  11  12
ATOM     12  C   LIG    1        1.409  -0.122   0.166  0.00  0.00    +0.281 C 
BRANCH  12  13
ATOM     13  N   LIG    1        1.951  -0.154   1.524  0.00  0.00    -0.219 N 
ATOM     14  C   LIG    1        1.879   1.053   2.336  0.00  0.00    +0.226 C 
ATOM     15  C   LIG    1        2.367   0.542   3.682  0.00  0.00    +0.056 C 
ATOM     16  C   LIG    1        3.336  -0.582   3.345  0.00  0.00    +0.131 C 
ATOM     17  C   LIG    1        2.790  -1.139   2.042  0.00  0.00    +0.281 C 
ATOM     18  N   LIG    1        3.092  -2.247   1.515  0.00  0.00    -0.104 NA
ATOM     19  H   LIG    1        3.748  -2.780   2.067  0.00  0.00    +0.363 HD
ENDBRANCH  12  13
ENDBRANCH  11  12
TORSDOF 2
