REMARK  Name = DB09053
REMARK                            x       y       z     vdW  Elec       q    Type
REMARK                         _______ _______ _______ _____ _____    ______ ____
ROOT
ATOM      1  N   LIG    1       -2.136  -0.655  -0.064  0.00  0.00    -0.241 N 
ATOM      2  N   LIG    1       -0.834  -0.996  -0.195  0.00  0.00    -0.168 NA
ATOM      3  C   LIG    1       -0.101   0.086  -0.054  0.00  0.00    +0.105 A 
ATOM      4  C   LIG    1       -0.942   1.208   0.269  0.00  0.00    +0.086 A 
ATOM      5  C   LIG    1       -0.837   2.578   0.593  0.00  0.00    +0.131 A 
ATOM      6  N   LIG    1       -1.945   3.323   0.839  0.00  0.00    -0.220 NA
ATOM      7  C   LIG    1       -3.144   2.690   0.772  0.00  0.00    +0.225 A 
ATOM      8  N   LIG    1       -3.379   1.381   0.491  0.00  0.00    -0.216 NA
ATOM      9  C   LIG    1       -2.259   0.686   0.247  0.00  0.00    +0.164 A 
ENDROOT
BRANCH   1  13
ATOM     10  C   LIG    1       -5.057  -3.641  -2.102  0.00  0.00    +0.239 C 
ATOM     11  N   LIG    1       -3.942  -3.681  -1.313  0.00  0.00    -0.296 N 
ATOM     12  C   LIG    1       -2.947  -2.592  -1.379  0.00  0.00    +0.135 C 
ATOM     13  C   LIG    1       -3.193  -1.675  -0.143  0.00  0.00    +0.127 C 
ATOM     14  C   LIG    1       -3.223  -2.468   1.193  0.00  0.00    +0.030 C 
ATOM     15  C   LIG    1       -4.095  -3.738   1.102  0.00  0.00    +0.021 C 
ATOM     16  C   LIG    1       -3.747  -4.569  -0.152  0.00  0.00    +0.108 C 
ATOM     17  O   LIG    1       -5.183  -2.810  -3.007  0.00  0.00    -0.271 OA
BRANCH  10  19
ATOM     18  C   LIG    1       -7.043  -4.924  -2.763  0.00  0.00    +0.013 C 
ATOM     19  C   LIG    1       -6.102  -4.618  -1.850  0.00  0.00    +0.060 C 
ENDBRANCH  10  19
ENDBRANCH   1  13
BRANCH   3  20
ATOM     20  C   LIG    1        1.382   0.028  -0.230  0.00  0.00    +0.003 A 
ATOM     21  C   LIG    1        2.111  -1.039   0.305  0.00  0.00    +0.014 A 
ATOM     22  C   LIG    1        3.494  -1.089   0.154  0.00  0.00    +0.047 A 
ATOM     23  C   LIG    1        4.161  -0.075  -0.545  0.00  0.00    +0.128 A 
ATOM     24  C   LIG    1        3.436   0.997  -1.063  0.00  0.00    +0.047 A 
ATOM     25  C   LIG    1        2.053   1.047  -0.911  0.00  0.00    +0.014 A 
BRANCH  23  26
ATOM     26  O   LIG    1        5.531  -0.064  -0.707  0.00  0.00    -0.456 OA
BRANCH  26  27
ATOM     27  C   LIG    1        6.239  -1.229  -0.914  0.00  0.00    +0.128 A 
ATOM     28  C   LIG    1        7.453  -1.388  -0.245  0.00  0.00    +0.046 A 
ATOM     29  C   LIG    1        8.215  -2.537  -0.442  0.00  0.00    +0.004 A 
ATOM     30  C   LIG    1        7.764  -3.521  -1.319  0.00  0.00    +0.000 A 
ATOM     31  C   LIG    1        6.560  -3.365  -2.003  0.00  0.00    +0.004 A 
ATOM     32  C   LIG    1        5.799  -2.216  -1.806  0.00  0.00    +0.046 A 
ENDBRANCH  26  27
ENDBRANCH  23  26
ENDBRANCH   3  20
BRANCH   5  33
ATOM     33  N   LIG    1        0.392   3.223   0.705  0.00  0.00    -0.342 N 
ATOM     34  H   LIG    1        0.414   4.201   0.953  0.00  0.00    +0.144 HD
ATOM     35  H   LIG    1        1.243   2.703   0.547  0.00  0.00    +0.144 HD
ENDBRANCH   5  33
TORSDOF 6
