REMARK  Name = DB09223
REMARK                            x       y       z     vdW  Elec       q    Type
REMARK                         _______ _______ _______ _____ _____    ______ ____
ROOT
ATOM      1  C   LIG    1       -2.508   1.507   0.341  0.00  0.00    +0.047 A 
ATOM      2  N   LIG    1       -1.158   1.647   0.322  0.00  0.00    -0.237 NA
ATOM      3  C   LIG    1       -0.371   0.555   0.138  0.00  0.00    +0.122 A 
ATOM      4  C   LIG    1       -0.936  -0.718  -0.003  0.00  0.00    +0.052 A 
ATOM      5  C   LIG    1       -2.326  -0.880   0.013  0.00  0.00    -0.010 A 
ATOM      6  C   LIG    1       -3.264   2.819   0.567  0.00  0.00    +0.056 C 
ATOM      7  C   LIG    1       -3.660   3.088   2.035  0.00  0.00    +0.006 C 
ATOM      8  C   LIG    1       -4.861   2.288   2.590  0.00  0.00    +0.000 C 
ATOM      9  C   LIG    1       -4.613   0.781   2.828  0.00  0.00    +0.000 C 
ATOM     10  C   LIG    1       -5.148  -0.160   1.726  0.00  0.00    +0.005 C 
ATOM     11  C   LIG    1       -4.666   0.139   0.294  0.00  0.00    +0.037 C 
ATOM     12  C   LIG    1       -3.141   0.259   0.187  0.00  0.00    -0.018 A 
ENDROOT
BRANCH   3  13
ATOM     13  N   LIG    1        1.014   0.739   0.139  0.00  0.00    -0.319 N 
ATOM     14  C   LIG    1        1.643   2.047   0.418  0.00  0.00    +0.088 C 
ATOM     15  C   LIG    1        1.752   2.946  -0.834  0.00  0.00    -0.060 C 
ATOM     16  N   LIG    1        2.615   2.226  -1.893  0.00  0.00    +0.382 N 
ATOM     17  H   LIG    1        3.533   2.076  -1.497  0.00  0.00    -0.082 HD
ATOM     18  C   LIG    1        1.971   0.853  -2.188  0.00  0.00    -0.060 C 
ATOM     19  C   LIG    1        1.854   0.059  -0.866  0.00  0.00    +0.088 C 
BRANCH  16  20
ATOM     20  C   LIG    1        2.741   3.105  -3.160  0.00  0.00    -0.082 C 
ATOM     21  C   LIG    1        3.779   2.531  -4.139  0.00  0.00    -0.017 C 
ENDBRANCH  16  20
ENDBRANCH   3  13
BRANCH   5  22
ATOM     22  C   LIG    1       -2.875  -2.254  -0.128  0.00  0.00    -0.017 A 
ATOM     23  C   LIG    1       -3.568  -2.630  -1.284  0.00  0.00    +0.011 A 
ATOM     24  C   LIG    1       -4.073  -3.921  -1.414  0.00  0.00    +0.039 A 
ATOM     25  C   LIG    1       -3.880  -4.844  -0.389  0.00  0.00    +0.123 A 
ATOM     26  F   LIG    1       -4.370  -6.098  -0.513  0.00  0.00    -0.205 F 
ATOM     27  C   LIG    1       -3.183  -4.485   0.763  0.00  0.00    +0.039 A 
ATOM     28  C   LIG    1       -2.680  -3.193   0.890  0.00  0.00    +0.011 A 
ENDBRANCH   5  22
TORSDOF 3
