REMARK  Name = DB09132
REMARK                            x       y       z     vdW  Elec       q    Type
REMARK                         _______ _______ _______ _____ _____    ______ ____
ROOT
ATOM      1  N   LIG    1        1.426  -0.196  -0.112  0.00  0.00    -0.290 NA
ATOM      2  C   LIG    1        1.982  -1.554  -0.015  0.00  0.00    +0.100 C 
ATOM      3  C   LIG    1        3.503  -1.556   0.282  0.00  0.00    +0.100 C 
ATOM      4  N   LIG    1        4.068  -2.912   0.364  0.00  0.00    -0.290 NA
ATOM      5  C   LIG    1        4.025  -3.651  -0.914  0.00  0.00    +0.100 C 
ATOM      6  C   LIG    1        4.939  -3.091  -2.047  0.00  0.00    +0.100 C 
ATOM      7  N   LIG    1        4.383  -3.156  -3.410  0.00  0.00    -0.290 NA
ATOM      8  C   LIG    1        3.218  -2.279  -3.624  0.00  0.00    +0.100 C 
ATOM      9  C   LIG    1        3.579  -0.769  -3.523  0.00  0.00    +0.100 C 
ATOM     10  N   LIG    1        2.475   0.191  -3.727  0.00  0.00    -0.290 NA
ATOM     11  C   LIG    1        1.456   0.048  -2.667  0.00  0.00    +0.100 C 
ATOM     12  C   LIG    1        1.925   0.567  -1.276  0.00  0.00    +0.100 C 
ENDROOT
BRANCH   1  13
ATOM     13  C   LIG    1       -0.051  -0.241  -0.030  0.00  0.00    +0.205 C 
BRANCH  13  14
ATOM     14  C   LIG    1       -0.751   1.113   0.266  0.00  0.00    +0.319 C 
ATOM     15  O   LIG    1       -1.948   1.198  -0.089  0.00  0.00    -0.250 OA
BRANCH  14  16
ATOM     16  O   LIG    1       -0.136   2.022   0.873  0.00  0.00    -0.480 OA
ATOM     17  H   LIG    1       -0.499   2.885   0.916  0.00  0.00    +0.295 HD
ENDBRANCH  14  16
ENDBRANCH  13  14
ENDBRANCH   1  13
BRANCH  10  18
ATOM     18  C   LIG    1        1.885  -0.003  -5.066  0.00  0.00    +0.205 C 
BRANCH  18  19
ATOM     19  C   LIG    1        1.062   1.219  -5.516  0.00  0.00    +0.319 C 
ATOM     20  O   LIG    1       -0.062   1.117  -6.002  0.00  0.00    -0.250 OA
BRANCH  19  21
ATOM     21  O   LIG    1        1.735   2.398  -5.362  0.00  0.00    -0.480 OA
ATOM     22  H   LIG    1        1.219   3.154  -5.651  0.00  0.00    +0.295 HD
ENDBRANCH  19  21
ENDBRANCH  18  19
ENDBRANCH  10  18
BRANCH   7  23
ATOM     23  C   LIG    1        4.112  -4.556  -3.804  0.00  0.00    +0.205 C 
BRANCH  23  24
ATOM     24  C   LIG    1        4.020  -4.821  -5.332  0.00  0.00    +0.319 C 
ATOM     25  O   LIG    1        4.495  -3.997  -6.152  0.00  0.00    -0.250 OA
BRANCH  24  26
ATOM     26  O   LIG    1        3.488  -5.904  -5.665  0.00  0.00    -0.480 OA
ATOM     27  H   LIG    1        2.637  -5.907  -6.056  0.00  0.00    +0.295 HD
ENDBRANCH  24  26
ENDBRANCH  23  24
ENDBRANCH   7  23
BRANCH   4  28
ATOM     28  C   LIG    1        5.420  -2.864   0.966  0.00  0.00    +0.205 C 
BRANCH  28  29
ATOM     29  C   LIG    1        5.973  -4.218   1.487  0.00  0.00    +0.319 C 
ATOM     30  O   LIG    1        7.218  -4.291   1.600  0.00  0.00    -0.250 OA
BRANCH  29  31
ATOM     31  O   LIG    1        5.187  -5.138   1.816  0.00  0.00    -0.480 OA
ATOM     32  H   LIG    1        5.525  -5.954   2.130  0.00  0.00    +0.295 HD
ENDBRANCH  29  31
ENDBRANCH  28  29
ENDBRANCH   4  28
TORSDOF 12
