REMARK  Name = DB09348
REMARK                            x       y       z     vdW  Elec       q    Type
REMARK                         _______ _______ _______ _____ _____    ______ ____
ROOT
ATOM      1  C   LIG    1        4.407 -13.136  -8.342  0.00  0.00    +0.161 C 
ATOM      2  C   LIG    1        4.074 -11.665  -8.609  0.00  0.00    +0.310 C 
ATOM      3  O   LIG    1        3.098 -10.990  -8.929  0.00  0.00    -0.251 OA
ATOM      4  O   LIG    1        5.352 -11.215  -8.360  0.00  0.00    -0.464 OA
ATOM      5  C   LIG    1        5.820 -12.599  -8.071  0.00  0.00    +0.243 C 
ENDROOT
TORSDOF 0
