REMARK  Name = DB09308
REMARK                            x       y       z     vdW  Elec       q    Type
REMARK                         _______ _______ _______ _____ _____    ______ ____
ROOT
ATOM      1  C   LIG    1        4.806   0.026  -0.853  0.00  0.00    +0.221 C 
ATOM      2  O   LIG    1        4.756  -0.800  -2.023  0.00  0.00    -0.455 OA
ATOM      3  C   LIG    1        3.918  -0.515  -3.063  0.00  0.00    +0.352 C 
ATOM      4  O   LIG    1        3.067   0.380  -3.060  0.00  0.00    -0.247 OA
ATOM      5  C   LIG    1        4.127  -1.397  -4.317  0.00  0.00    +0.261 C 
ATOM      6  F   LIG    1        5.021  -2.347  -4.067  0.00  0.00    -0.222 F 
ATOM      7  C   LIG    1        2.811  -2.087  -4.783  0.00  0.00    +0.186 C 
ATOM      8  O   LIG    1        2.371  -1.860  -5.914  0.00  0.00    -0.293 OA
ATOM      9  C   LIG    1        2.019  -3.087  -3.886  0.00  0.00    +0.088 C 
ATOM     10  C   LIG    1        2.574  -4.558  -3.677  0.00  0.00    +0.163 C 
ATOM     11  C   LIG    1        3.305  -5.040  -2.348  0.00  0.00    +0.094 C 
ATOM     12  C   LIG    1        2.477  -4.832  -1.027  0.00  0.00    +0.048 C 
ATOM     13  C   LIG    1        3.049  -5.248   0.371  0.00  0.00    +0.055 C 
ATOM     14  C   LIG    1        4.067  -4.241   0.980  0.00  0.00    +0.141 C 
ATOM     15  O   LIG    1        5.269  -4.505   1.014  0.00  0.00    -0.297 OA
ATOM     16  C   LIG    1        3.567  -2.927   1.629  0.00  0.00    +0.077 C 
ATOM     17  C   LIG    1        3.530  -1.698   0.632  0.00  0.00    +0.136 C 
ATOM     18  N   LIG    1        2.622  -0.653   1.083  0.00  0.00    -0.260 N 
ATOM     19  C   LIG    1        3.324   0.296   1.820  0.00  0.00    +0.404 C 
ATOM     20  O   LIG    1        4.633   0.068   1.543  0.00  0.00    -0.438 OA
ATOM     21  O   LIG    1        2.933   1.200   2.556  0.00  0.00    -0.226 OA
ATOM     22  C   LIG    1        2.289  -3.170   2.475  0.00  0.00    +0.017 C 
ATOM     23  C   LIG    1        3.568  -6.703   0.446  0.00  0.00    +0.015 C 
ATOM     24  C   LIG    1        4.713  -4.430  -2.213  0.00  0.00    +0.044 C 
ATOM     25  C   LIG    1        1.217  -2.406  -2.759  0.00  0.00    +0.018 C 
ATOM     26  C   LIG    1        4.744  -0.510  -5.432  0.00  0.00    +0.068 C 
ATOM     27  C   LIG    1        4.816  -0.846   0.464  0.00  0.00    +0.168 C 
ATOM     28  C   LIG    1        6.167  -1.570   0.675  0.00  0.00    +0.062 C 
ENDROOT
BRANCH   1  30
ATOM     29  C   LIG    1        5.788   2.121  -2.040  0.00  0.00    +0.007 C 
ATOM     30  C   LIG    1        5.984   1.032  -0.974  0.00  0.00    +0.045 C 
ENDBRANCH   1  30
BRANCH  11  31
ATOM     31  O   LIG    1        3.621  -6.438  -2.489  0.00  0.00    -0.374 OA
ATOM     32  C   LIG    1        2.586  -7.403  -2.686  0.00  0.00    +0.194 C 
ENDBRANCH  11  31
BRANCH  10  33
ATOM     33  O   LIG    1        3.425  -4.931  -4.773  0.00  0.00    -0.342 OA
BRANCH  33  34
ATOM     34  C   LIG    1        2.833  -5.213  -6.011  0.00  0.00    +0.278 C 
ATOM     35  O   LIG    1        2.215  -6.472  -5.969  0.00  0.00    -0.346 OA
ATOM     36  C   LIG    1        1.503  -6.813  -7.162  0.00  0.00    +0.117 C 
ATOM     37  C   LIG    1        2.461  -6.872  -8.369  0.00  0.00    +0.019 C 
ATOM     38  C   LIG    1        3.369  -5.628  -8.439  0.00  0.00    -0.033 C 
ATOM     39  C   LIG    1        0.754  -8.135  -6.945  0.00  0.00    +0.038 C 
ATOM     40  C   LIG    1        3.964  -5.243  -7.053  0.00  0.00    +0.157 C 
BRANCH  38  41
ATOM     41  N   LIG    1        4.454  -5.869  -9.529  0.00  0.00    +0.380 N 
ATOM     42  H   LIG    1        3.979  -6.397 -10.248  0.00  0.00    -0.082 HD
ATOM     43  C   LIG    1        5.659  -6.738  -9.105  0.00  0.00    -0.096 C 
ATOM     44  C   LIG    1        4.924  -4.577 -10.228  0.00  0.00    -0.096 C 
ENDBRANCH  38  41
BRANCH  40  45
ATOM     45  O   LIG    1        4.645  -4.001  -7.085  0.00  0.00    -0.388 OA
ATOM     46  H   LIG    1        4.079  -3.349  -7.505  0.00  0.00    +0.210 HD
ENDBRANCH  40  45
ENDBRANCH  33  34
ENDBRANCH  10  33
BRANCH  18  47
ATOM     47  C   LIG    1        1.174  -0.632   0.887  0.00  0.00    +0.111 C 
BRANCH  47  48
ATOM     48  C   LIG    1        0.723   0.413  -0.147  0.00  0.00    +0.021 C 
BRANCH  48  49
ATOM     49  C   LIG    1       -0.784   0.344  -0.437  0.00  0.00    +0.025 C 
BRANCH  49  50
ATOM     50  C   LIG    1       -1.225   1.361  -1.508  0.00  0.00    +0.145 C 
BRANCH  50  51
ATOM     51  N   LIG    1       -2.657   1.271  -1.761  0.00  0.00    -0.251 N 
ATOM     52  N   LIG    1       -3.534   1.756  -0.878  0.00  0.00    -0.065 NA
ATOM     53  N   LIG    1       -4.790   1.484  -1.390  0.00  0.00    -0.130 NA
ATOM     54  C   LIG    1       -4.662   0.841  -2.544  0.00  0.00    +0.113 A 
ATOM     55  C   LIG    1       -3.305   0.676  -2.811  0.00  0.00    +0.138 A 
BRANCH  54  56
ATOM     56  C   LIG    1       -5.839   0.398  -3.359  0.00  0.00    +0.005 A 
ATOM     57  C   LIG    1       -5.642  -0.159  -4.630  0.00  0.00    +0.032 A 
ATOM     58  C   LIG    1       -6.729  -0.572  -5.405  0.00  0.00    +0.025 A 
ATOM     59  C   LIG    1       -8.027  -0.433  -4.913  0.00  0.00    +0.023 A 
ATOM     60  C   LIG    1       -8.237   0.118  -3.650  0.00  0.00    +0.002 A 
ATOM     61  C   LIG    1       -7.151   0.531  -2.879  0.00  0.00    +0.010 A 
BRANCH  58  62
ATOM     62  N   LIG    1       -6.518  -1.119  -6.670  0.00  0.00    -0.358 N 
ATOM     63  H   LIG    1       -7.314  -1.370  -7.239  0.00  0.00    +0.142 HD
ATOM     64  H   LIG    1       -5.580  -1.165  -7.040  0.00  0.00    +0.142 HD
ENDBRANCH  58  62
ENDBRANCH  54  56
ENDBRANCH  50  51
ENDBRANCH  49  50
ENDBRANCH  48  49
ENDBRANCH  47  48
ENDBRANCH  18  47
TORSDOF 13
