REMARK  Name = DB09516
REMARK                            x       y       z     vdW  Elec       q    Type
REMARK                         _______ _______ _______ _____ _____    ______ ____
ROOT
ATOM      1  C   LIG    1        1.421   0.066   0.000  0.00  0.00    +0.120 A 
ATOM      2  C   LIG    1        2.167   1.257   0.000  0.00  0.00    +0.049 A 
ATOM      3  C   LIG    1        3.558   1.213   0.000  0.00  0.00    +0.049 A 
ATOM      4  C   LIG    1        4.212  -0.017   0.000  0.00  0.00    +0.117 A 
ATOM      5  C   LIG    1        3.483  -1.204   0.000  0.00  0.00    +0.049 A 
ATOM      6  C   LIG    1        2.092  -1.159   0.000  0.00  0.00    +0.049 A 
ENDROOT
BRANCH   1   7
ATOM      7  O   LIG    1        0.041   0.011   0.000  0.00  0.00    -0.495 OA
ATOM      8  C   LIG    1       -0.703   1.225   0.000  0.00  0.00    +0.277 C 
ENDBRANCH   1   7
BRANCH   4   9
ATOM      9  O   LIG    1        5.581  -0.061   0.000  0.00  0.00    -0.507 OA
ATOM     10  H   LIG    1        5.983   0.811   0.000  0.00  0.00    +0.292 HD
ENDBRANCH   4   9
TORSDOF 2
