REMARK  Name = DB09262
REMARK                            x       y       z     vdW  Elec       q    Type
REMARK                         _______ _______ _______ _____ _____    ______ ____
ROOT
ATOM      1  C   LIG    1       -0.057  -0.054  -0.140  0.00  0.00    +0.098 C 
ENDROOT
BRANCH   1   2
ATOM      2  C   LIG    1       -0.715   1.361  -0.029  0.00  0.00    -0.028 A 
ATOM      3  C   LIG    1       -0.002   2.499   0.389  0.00  0.00    +0.005 A 
ATOM      4  C   LIG    1       -0.628   3.741   0.471  0.00  0.00    +0.000 A 
ATOM      5  C   LIG    1       -1.973   3.862   0.139  0.00  0.00    +0.000 A 
ATOM      6  C   LIG    1       -2.699   2.752  -0.276  0.00  0.00    +0.000 A 
ATOM      7  C   LIG    1       -2.074   1.512  -0.359  0.00  0.00    +0.005 A 
ENDBRANCH   1   2
BRANCH   1   8
ATOM      8  C   LIG    1       -0.208  -0.485  -1.639  0.00  0.00    -0.028 A 
ATOM      9  C   LIG    1        0.535   0.206  -2.612  0.00  0.00    +0.005 A 
ATOM     10  C   LIG    1        0.435  -0.114  -3.962  0.00  0.00    +0.000 A 
ATOM     11  C   LIG    1       -0.433  -1.121  -4.368  0.00  0.00    +0.000 A 
ATOM     12  C   LIG    1       -1.213  -1.793  -3.435  0.00  0.00    +0.000 A 
ATOM     13  C   LIG    1       -1.113  -1.469  -2.085  0.00  0.00    +0.005 A 
ENDBRANCH   1   8
BRANCH   1  15
ATOM     14  O   LIG    1       -0.754  -2.240   0.740  0.00  0.00    -0.275 OA
ATOM     15  C   LIG    1       -0.739  -1.021   0.903  0.00  0.00    +0.225 C 
ATOM     16  N   LIG    1       -1.208  -0.510   2.049  0.00  0.00    -0.328 N 
ATOM     17  H   LIG    1       -1.182   0.486   2.211  0.00  0.00    +0.145 HD
ATOM     18  H   LIG    1       -1.610  -1.118   2.748  0.00  0.00    +0.145 HD
ENDBRANCH   1  15
BRANCH   1  19
ATOM     19  C   LIG    1        1.476  -0.039   0.267  0.00  0.00    +0.041 C 
BRANCH  19  20
ATOM     20  C   LIG    1        2.306  -1.359   0.250  0.00  0.00    +0.088 C 
BRANCH  20  21
ATOM     21  N   LIG    1        2.615  -1.842  -1.095  0.00  0.00    -0.276 NA
ATOM     22  C   LIG    1        2.196  -3.029  -1.682  0.00  0.00    +0.103 C 
ATOM     23  C   LIG    1        1.301  -4.096  -1.091  0.00  0.00    +0.048 C 
ATOM     24  N   LIG    1        2.737  -3.068  -2.949  0.00  0.00    -0.290 NA
ATOM     25  H   LIG    1        2.593  -3.813  -3.617  0.00  0.00    +0.124 HD
ATOM     26  C   LIG    1        3.514  -1.947  -3.162  0.00  0.00    +0.093 C 
ATOM     27  C   LIG    1        3.446  -1.190  -2.002  0.00  0.00    +0.096 C 
ENDBRANCH  20  21
ENDBRANCH  19  20
ENDBRANCH   1  19
TORSDOF 6
