REMARK  Name = DB09394
REMARK                            x       y       z     vdW  Elec       q    Type
REMARK                         _______ _______ _______ _____ _____    ______ ____
ROOT
ATOM      1  O   LIG    1       -0.628   1.314   0.000  0.00  0.00    -0.228 OA
ATOM      2  P   LIG    1        0.014  -0.028   0.000  0.00  0.00    +0.470 P 
ENDROOT
BRANCH   2   3
ATOM      3  O   LIG    1       -0.347  -0.973  -1.270  0.00  0.00    -0.303 OA
ATOM      4  H   LIG    1       -0.954  -0.586  -1.929  0.00  0.00    +0.222 HD
ENDBRANCH   2   3
BRANCH   2   5
ATOM      5  O   LIG    1       -0.347  -0.973   1.270  0.00  0.00    -0.303 OA
ATOM      6  H   LIG    1       -0.954  -0.586   1.929  0.00  0.00    +0.222 HD
ENDBRANCH   2   5
BRANCH   2   7
ATOM      7  O   LIG    1        1.637  -0.025   0.000  0.00  0.00    -0.303 OA
ATOM      8  H   LIG    1        2.059   0.856   0.000  0.00  0.00    +0.222 HD
ENDBRANCH   2   7
TORSDOF 3
