REMARK  Name = DB09281
REMARK                            x       y       z     vdW  Elec       q    Type
REMARK                         _______ _______ _______ _____ _____    ______ ____
ROOT
ATOM      1 SI   LIG    1       -0.018   0.073  -0.058  0.00  0.00    +0.000 Si
ENDROOT
BRANCH   1   2
ATOM      2  O   LIG    1        0.269  -1.034   1.170  0.00  0.00    +0.000 OA
ATOM      3  H   LIG    1        0.984  -0.707   1.738  0.00  0.00    +0.000 HD
ENDBRANCH   1   2
BRANCH   1   4
ATOM      4  O   LIG    1       -1.255  -0.500  -1.037  0.00  0.00    +0.000 OA
ATOM      5  H   LIG    1       -1.425   0.137  -1.749  0.00  0.00    +0.000 HD
ENDBRANCH   1   4
BRANCH   1   6
ATOM      6  O   LIG    1       -0.474   1.544   0.605  0.00  0.00    +0.000 OA
BRANCH   6   7
ATOM      7 SI   LIG    1       -0.538   2.926   1.551  0.00  0.00    +0.000 Si
ATOM      8  O   LIG    1        0.763   3.738   1.644  0.00  0.00    +0.000 OA
BRANCH   7   9
ATOM      9  O   LIG    1       -1.387   2.782   2.992  0.00  0.00    +0.000 OA
ATOM     10  H   LIG    1       -2.189   2.257   2.843  0.00  0.00    +0.000 HD
ENDBRANCH   7   9
ENDBRANCH   6   7
ENDBRANCH   1   6
BRANCH   1  11
ATOM     11  O   LIG    1        1.371   0.268  -0.976  0.00  0.00    +0.000 OA
BRANCH  11  12
ATOM     12 SI   LIG    1        2.920   0.690  -1.456  0.00  0.00    +0.000 Si
ATOM     13  O   LIG    1        3.733  -0.438  -2.109  0.00  0.00    +0.000 OA
BRANCH  12  14
ATOM     14  O   LIG    1        3.050   2.173  -2.231  0.00  0.00    +0.000 OA
ATOM     15  H   LIG    1        2.512   2.831  -1.762  0.00  0.00    +0.000 HD
ENDBRANCH  12  14
ENDBRANCH  11  12
ENDBRANCH   1  11
TORSDOF 8
