REMARK  Name = DB09144
REMARK                            x       y       z     vdW  Elec       q    Type
REMARK                         _______ _______ _______ _____ _____    ______ ____
ROOT
ATOM      1  O   LIG    1       -0.020   1.150  -0.511  0.00  0.00    -0.342 OA
ATOM      2  C   LIG    1        0.089  -0.193  -0.065  0.00  0.00    +0.203 C 
ATOM      3  C   LIG    1       -0.595  -0.926  -1.212  0.00  0.00    +0.253 C 
ATOM      4  C   LIG    1       -1.791  -0.035  -1.562  0.00  0.00    +0.269 C 
ATOM      5  C   LIG    1       -1.241   1.351  -1.166  0.00  0.00    +0.268 C 
ENDROOT
BRANCH   5   6
ATOM      6  N   LIG    1       -1.072   2.328  -2.235  0.00  0.00    -0.270 N 
ATOM      7  C   LIG    1       -0.390   1.965  -3.375  0.00  0.00    +0.098 A 
ATOM      8  C   LIG    1       -0.128   2.813  -4.388  0.00  0.00    +0.088 A 
ATOM      9  C   LIG    1       -0.577   4.190  -4.294  0.00  0.00    +0.254 A 
ATOM     10  N   LIG    1       -1.227   4.456  -3.122  0.00  0.00    -0.275 N 
ATOM     11  H   LIG    1       -1.545   5.409  -3.017  0.00  0.00    +0.173 HD
ATOM     12  O   LIG    1       -0.394   5.036  -5.166  0.00  0.00    -0.268 OA
ATOM     13  C   LIG    1       -1.505   3.632  -2.059  0.00  0.00    +0.331 A 
ATOM     14  O   LIG    1       -2.085   4.085  -1.071  0.00  0.00    -0.246 OA
ENDBRANCH   5   6
BRANCH   2  15
ATOM     15  C   LIG    1        1.571  -0.539   0.163  0.00  0.00    +0.267 C 
BRANCH  15  16
ATOM     16  O   LIG    1        2.327  -0.334  -1.027  0.00  0.00    -0.462 OA
BRANCH  16  17
ATOM     17  C   LIG    1        3.656  -0.543  -1.041  0.00  0.00    +0.304 C 
ATOM     18  C   LIG    1        4.269  -0.257  -2.406  0.00  0.00    +0.136 C 
ATOM     19  O   LIG    1        4.347  -0.919  -0.094  0.00  0.00    -0.251 OA
ENDBRANCH  16  17
ENDBRANCH  15  16
ENDBRANCH   2  15
BRANCH   4  20
ATOM     20  O   LIG    1       -2.953  -0.378  -0.801  0.00  0.00    -0.453 OA
BRANCH  20  21
ATOM     21  C   LIG    1       -4.173   0.097  -1.135  0.00  0.00    +0.304 C 
ATOM     22  C   LIG    1       -5.265  -0.411  -0.202  0.00  0.00    +0.136 C 
ATOM     23  O   LIG    1       -4.429   0.856  -2.071  0.00  0.00    -0.251 OA
ENDBRANCH  20  21
ENDBRANCH   4  20
BRANCH   3  24
ATOM     24  O   LIG    1       -0.938  -2.261  -0.836  0.00  0.00    -0.455 OA
BRANCH  24  25
ATOM     25  C   LIG    1       -1.341  -3.170  -1.752  0.00  0.00    +0.304 C 
ATOM     26  C   LIG    1       -1.668  -4.518  -1.125  0.00  0.00    +0.136 C 
ATOM     27  O   LIG    1       -1.452  -2.982  -2.965  0.00  0.00    -0.251 OA
ENDBRANCH  24  25
ENDBRANCH   3  24
TORSDOF 8
