REMARK  Name = DB11652
REMARK                            x       y       z     vdW  Elec       q    Type
REMARK                         _______ _______ _______ _____ _____    ______ ____
ROOT
ATOM      1  N   LIG    1        0.463   0.703   0.587  0.00  0.00    -0.299 N 
ATOM      2  H   LIG    1       -0.089  -0.092   0.873  0.00  0.00    +0.154 HD
ENDROOT
BRANCH   1   3
ATOM      3  C   LIG    1        1.851   0.498   0.710  0.00  0.00    +0.134 A 
ATOM      4  N   LIG    1        2.688   1.446   0.212  0.00  0.00    -0.220 NA
ATOM      5  C   LIG    1        4.014   1.209   0.328  0.00  0.00    +0.223 A 
ATOM      6  N   LIG    1        4.600   0.123   0.886  0.00  0.00    -0.235 NA
ATOM      7  C   LIG    1        3.765  -0.833   1.382  0.00  0.00    +0.076 A 
ATOM      8  C   LIG    1        4.324  -1.989   1.972  0.00  0.00    +0.030 A 
ATOM      9  C   LIG    1        3.496  -2.983   2.488  0.00  0.00    +0.025 A 
ATOM     10  C   LIG    1        2.106  -2.870   2.442  0.00  0.00    +0.036 A 
ATOM     11  C   LIG    1        1.530  -1.735   1.855  0.00  0.00    +0.036 A 
ATOM     12  C   LIG    1        2.343  -0.698   1.319  0.00  0.00    +0.042 A 
BRANCH  10  13
ATOM     13  N   LIG    1        1.360  -3.933   2.989  0.00  0.00    -0.269 N 
ATOM     14  H   LIG    1        1.935  -4.708   3.284  0.00  0.00    +0.156 HD
BRANCH  13  15
ATOM     15  C   LIG    1        0.004  -4.057   3.251  0.00  0.00    +0.283 C 
ATOM     16  O   LIG    1       -0.345  -5.268   3.765  0.00  0.00    -0.463 OA
ATOM     17  C   LIG    1       -1.729  -5.277   4.022  0.00  0.00    +0.261 C 
ATOM     18  C   LIG    1       -2.165  -3.889   3.525  0.00  0.00    +0.095 C 
ATOM     19  C   LIG    1       -3.120  -3.985   2.313  0.00  0.00    +0.039 C 
ATOM     20  C   LIG    1       -2.790  -3.043   4.657  0.00  0.00    +0.039 C 
ATOM     21  N   LIG    1       -0.954  -3.239   3.092  0.00  0.00    -0.227 NA
ENDBRANCH  13  15
ENDBRANCH  10  13
ENDBRANCH   1   3
BRANCH   1  27
ATOM     22  C   LIG    1       -3.799   2.291  -1.299  0.00  0.00    +0.047 C 
ATOM     23  C   LIG    1       -2.413   2.599  -0.753  0.00  0.00    -0.006 A 
ATOM     24  C   LIG    1       -1.959   3.922  -0.671  0.00  0.00    +0.131 A 
ATOM     25  C   LIG    1       -0.688   4.176  -0.137  0.00  0.00    +0.048 A 
ATOM     26  C   LIG    1        0.131   3.127   0.275  0.00  0.00    +0.027 A 
ATOM     27  C   LIG    1       -0.307   1.802   0.168  0.00  0.00    +0.033 A 
ATOM     28  C   LIG    1       -1.586   1.551  -0.334  0.00  0.00    +0.030 A 
BRANCH  24  29
ATOM     29  O   LIG    1       -2.802   4.944  -1.063  0.00  0.00    -0.456 OA
BRANCH  29  30
ATOM     30  C   LIG    1       -2.323   6.069  -1.700  0.00  0.00    +0.133 A 
ATOM     31  C   LIG    1       -1.348   5.990  -2.711  0.00  0.00    +0.094 A 
ATOM     32  C   LIG    1       -0.914   7.175  -3.332  0.00  0.00    +0.159 A 
ATOM     33  N   LIG    1       -0.006   7.436  -4.305  0.00  0.00    -0.215 NA
ATOM     34  C   LIG    1       -0.089   8.749  -4.412  0.00  0.00    +0.246 A 
ATOM     35  N   LIG    1       -0.940   9.392  -3.635  0.00  0.00    -0.154 NA
ATOM     36  N   LIG    1       -1.483   8.383  -2.927  0.00  0.00    -0.220 N 
ATOM     37  C   LIG    1       -2.446   8.476  -1.960  0.00  0.00    +0.118 A 
ATOM     38  C   LIG    1       -2.875   7.303  -1.342  0.00  0.00    +0.066 A 
ENDBRANCH  29  30
ENDBRANCH  24  29
ENDBRANCH   1  27
TORSDOF 6
