REMARK  Name = DB11725
REMARK                            x       y       z     vdW  Elec       q    Type
REMARK                         _______ _______ _______ _____ _____    ______ ____
ROOT
ATOM      1  C   LIG    1       -3.967   3.895  -0.018  0.00  0.00    +0.044 C 
ATOM      2  C   LIG    1       -2.860   2.856  -0.049  0.00  0.00    -0.050 A 
ATOM      3  C   LIG    1       -3.178   1.497  -0.060  0.00  0.00    +0.013 A 
ATOM      4  C   LIG    1       -2.144   0.548  -0.086  0.00  0.00    +0.002 A 
ATOM      5  C   LIG    1       -2.114  -0.884  -0.086  0.00  0.00    -0.036 A 
ATOM      6  C   LIG    1       -3.258  -1.887  -0.009  0.00  0.00    -0.041 C 
ATOM      7  N   LIG    1       -2.715  -3.260  -0.481  0.00  0.00    +0.381 N 
ATOM      8  H   LIG    1       -2.491  -3.196  -1.465  0.00  0.00    -0.082 HD
ATOM      9  C   LIG    1       -3.802  -4.337  -0.298  0.00  0.00    -0.096 C 
ATOM     10  C   LIG    1       -1.427  -3.650   0.284  0.00  0.00    -0.073 C 
ATOM     11  C   LIG    1       -0.272  -2.691  -0.104  0.00  0.00    +0.035 C 
ATOM     12  C   LIG    1       -0.776  -1.250  -0.129  0.00  0.00    +0.019 A 
ATOM     13  N   LIG    1        0.021  -0.122  -0.126  0.00  0.00    -0.343 N 
ATOM     14  C   LIG    1       -0.790   1.003  -0.102  0.00  0.00    +0.049 A 
ATOM     15  C   LIG    1       -0.470   2.367  -0.087  0.00  0.00    +0.026 A 
ATOM     16  C   LIG    1       -1.530   3.273  -0.062  0.00  0.00    +0.005 A 
ENDROOT
BRANCH  13  17
ATOM     17  C   LIG    1        1.483  -0.111  -0.109  0.00  0.00    +0.127 C 
BRANCH  17  18
ATOM     18  C   LIG    1        1.996   0.043   1.335  0.00  0.00    +0.058 C 
BRANCH  18  19
ATOM     19  C   LIG    1        3.514   0.076   1.407  0.00  0.00    -0.028 A 
ATOM     20  C   LIG    1        4.207   1.291   1.380  0.00  0.00    +0.114 A 
ATOM     21  N   LIG    1        5.561   1.371   1.437  0.00  0.00    -0.260 NA
ATOM     22  C   LIG    1        6.263   0.211   1.526  0.00  0.00    +0.038 A 
ATOM     23  C   LIG    1        7.772   0.357   1.586  0.00  0.00    +0.065 C 
ATOM     24  C   LIG    1        5.649  -1.045   1.557  0.00  0.00    +0.023 A 
ATOM     25  C   LIG    1        4.256  -1.107   1.496  0.00  0.00    +0.007 A 
ENDBRANCH  18  19
ENDBRANCH  17  18
ENDBRANCH  13  17
TORSDOF 3
