REMARK  Name = DB11827
REMARK                            x       y       z     vdW  Elec       q    Type
REMARK                         _______ _______ _______ _____ _____    ______ ____
ROOT
ATOM      1  C   LIG    1       -2.239   1.132  -0.382  0.00  0.00    -0.024 A 
ATOM      2  C   LIG    1       -2.873  -0.035  -0.840  0.00  0.00    +0.044 A 
ATOM      3 CL   LIG    1       -4.572  -0.084  -1.163  0.00  0.00    -0.083 Cl
ATOM      4  C   LIG    1       -2.126  -1.195  -1.048  0.00  0.00    +0.021 A 
ATOM      5  C   LIG    1       -0.753  -1.204  -0.807  0.00  0.00    +0.010 A 
ATOM      6  C   LIG    1       -0.105  -0.048  -0.360  0.00  0.00    +0.014 A 
ATOM      7  C   LIG    1       -0.858   1.115  -0.157  0.00  0.00    +0.014 A 
ENDROOT
BRANCH   6   8
ATOM      8  C   LIG    1        1.416  -0.048  -0.072  0.00  0.00    +0.227 C 
ATOM      9  O   LIG    1        2.008   1.123  -0.549  0.00  0.00    -0.340 OA
ATOM     10  C   LIG    1        3.255   0.810  -1.158  0.00  0.00    +0.203 C 
ATOM     11  C   LIG    1        3.435  -0.695  -0.865  0.00  0.00    +0.147 C 
ATOM     12  C   LIG    1        4.058  -0.998   0.534  0.00  0.00    +0.182 C 
ATOM     13  C   LIG    1        3.305  -0.247   1.658  0.00  0.00    +0.180 C 
ATOM     14  O   LIG    1        2.059  -1.030  -0.827  0.00  0.00    -0.329 OA
ATOM     15  C   LIG    1        1.771  -0.267   1.429  0.00  0.00    +0.209 C 
BRANCH  12  16
ATOM     16  O   LIG    1        5.440  -0.684   0.534  0.00  0.00    -0.386 OA
ATOM     17  H   LIG    1        5.833  -1.045   1.333  0.00  0.00    +0.210 HD
ENDBRANCH  12  16
BRANCH  13  18
ATOM     18  O   LIG    1        3.652  -0.745   2.938  0.00  0.00    -0.386 OA
ATOM     19  H   LIG    1        3.361  -1.658   3.001  0.00  0.00    +0.210 HD
ENDBRANCH  13  18
BRANCH  15  20
ATOM     20  O   LIG    1        1.110   0.671   2.263  0.00  0.00    -0.383 OA
ATOM     21  H   LIG    1        0.164   0.520   2.198  0.00  0.00    +0.210 HD
ENDBRANCH  15  20
BRANCH  11  22
ATOM     22  C   LIG    1        4.073  -1.465  -2.049  0.00  0.00    +0.196 C 
BRANCH  22  23
ATOM     23  O   LIG    1        4.122  -2.861  -1.821  0.00  0.00    -0.392 OA
ATOM     24  H   LIG    1        4.529  -3.281  -2.581  0.00  0.00    +0.210 HD
ENDBRANCH  22  23
ENDBRANCH  11  22
ENDBRANCH   6   8
BRANCH   1  25
ATOM     25  C   LIG    1       -3.009   2.426  -0.128  0.00  0.00    +0.071 C 
BRANCH  25  29
ATOM     26  C   LIG    1       -5.076   2.519   3.668  0.00  0.00    +0.121 A 
ATOM     27  C   LIG    1       -3.677   2.622   3.617  0.00  0.00    +0.046 A 
ATOM     28  C   LIG    1       -3.016   2.590   2.393  0.00  0.00    +0.007 A 
ATOM     29  C   LIG    1       -3.741   2.447   1.208  0.00  0.00    -0.043 A 
ATOM     30  C   LIG    1       -5.134   2.359   1.253  0.00  0.00    +0.007 A 
ATOM     31  C   LIG    1       -5.793   2.390   2.478  0.00  0.00    +0.046 A 
BRANCH  26  32
ATOM     32  O   LIG    1       -5.817   2.538   4.834  0.00  0.00    -0.492 OA
BRANCH  32  34
ATOM     33  C   LIG    1       -6.191   2.651   7.206  0.00  0.00    +0.048 C 
ATOM     34  C   LIG    1       -5.149   2.671   6.085  0.00  0.00    +0.225 C 
ENDBRANCH  32  34
ENDBRANCH  26  32
ENDBRANCH  25  29
ENDBRANCH   1  25
TORSDOF 10
