REMARK  Name = DB11992
REMARK                            x       y       z     vdW  Elec       q    Type
REMARK                         _______ _______ _______ _____ _____    ______ ____
ROOT
ATOM      1  C   LIG    1        1.407   0.032   0.044  0.00  0.00    -0.043 C 
ATOM      2  C   LIG    1        1.974   0.742  -1.210  0.00  0.00    +0.145 C 
ATOM      3  O   LIG    1        3.398   0.680  -1.191  0.00  0.00    -0.375 OA
ATOM      4  C   LIG    1        4.018   1.385  -0.112  0.00  0.00    +0.137 C 
ATOM      5  C   LIG    1        3.529   0.793   1.248  0.00  0.00    -0.043 C 
ATOM      6  C   LIG    1        1.986   0.691   1.318  0.00  0.00    -0.026 C 
ENDROOT
BRANCH   1  11
ATOM      7  N   LIG    1       -4.053  -1.580  -0.127  0.00  0.00    -0.141 N 
ATOM      8  N   LIG    1       -3.276  -1.311  -1.193  0.00  0.00    -0.157 NA
ATOM      9  C   LIG    1       -2.165  -0.866  -0.655  0.00  0.00    +0.050 A 
ATOM     10  C   LIG    1       -0.857  -0.385  -1.210  0.00  0.00    -0.019 C 
ATOM     11  N   LIG    1       -0.140   0.165   0.049  0.00  0.00    +0.389 N 
ATOM     12  H   LIG    1       -0.348   1.153   0.070  0.00  0.00    -0.080 HD
ATOM     13  C   LIG    1       -0.853  -0.435   1.288  0.00  0.00    -0.039 C 
ATOM     14  C   LIG    1       -2.162  -0.903   0.723  0.00  0.00    -0.023 A 
ATOM     15  C   LIG    1       -3.406  -1.391   1.073  0.00  0.00    +0.137 A 
BRANCH   7  17
ATOM     16  C   LIG    1       -4.887  -4.161  -0.770  0.00  0.00    +0.223 C 
ATOM     17  S   LIG    1       -5.525  -2.429  -0.376  0.00  0.00    +0.067 S 
ATOM     18  O   LIG    1       -6.215  -2.434   0.919  0.00  0.00    -0.152 OA
ATOM     19  O   LIG    1       -6.136  -1.840  -1.573  0.00  0.00    -0.152 OA
ENDBRANCH   7  17
ENDBRANCH   1  11
BRANCH   4  20
ATOM     20  C   LIG    1        5.540   1.349  -0.290  0.00  0.00    +0.017 A 
ATOM     21  C   LIG    1        6.224   0.130  -0.412  0.00  0.00    +0.129 A 
ATOM     22  F   LIG    1        5.551  -1.043  -0.375  0.00  0.00    -0.205 F 
ATOM     23  C   LIG    1        7.610   0.115  -0.577  0.00  0.00    +0.041 A 
ATOM     24  C   LIG    1        8.323   1.312  -0.623  0.00  0.00    +0.041 A 
ATOM     25  C   LIG    1        7.652   2.527  -0.507  0.00  0.00    +0.124 A 
ATOM     26  F   LIG    1        8.343   3.689  -0.553  0.00  0.00    -0.205 F 
ATOM     27  C   LIG    1        6.266   2.546  -0.342  0.00  0.00    +0.047 A 
ENDBRANCH   4  20
BRANCH   5  28
ATOM     28  N   LIG    1        4.010   1.683   2.410  0.00  0.00    +0.382 N 
ATOM     29  H   LIG    1        3.729   1.287   3.295  0.00  0.00    -0.090 HD
ATOM     30  H   LIG    1        5.018   1.757   2.394  0.00  0.00    -0.090 HD
ATOM     31  H   LIG    1        3.618   2.610   2.327  0.00  0.00    -0.090 HD
ENDBRANCH   5  28
TORSDOF 4
