REMARK  Name = DB11879
REMARK                            x       y       z     vdW  Elec       q    Type
REMARK                         _______ _______ _______ _____ _____    ______ ____
ROOT
ATOM      1  N   LIG    1       -0.298   1.851  -0.279  0.00  0.00    -0.302 N 
ATOM      2  H   LIG    1        0.353   2.311  -0.898  0.00  0.00    +0.150 HD
ATOM      3  C   LIG    1        0.102   0.778   0.421  0.00  0.00    +0.234 C 
ATOM      4  O   LIG    1       -0.609   0.142   1.201  0.00  0.00    -0.274 OA
ENDROOT
BRANCH   1   5
ATOM      5  C   LIG    1       -1.654   2.396  -0.271  0.00  0.00    +0.162 C 
BRANCH   5   7
ATOM      6  N   LIG    1       -3.105   1.136  -1.860  0.00  0.00    -0.288 N 
ATOM      7  C   LIG    1       -2.246   2.170  -1.683  0.00  0.00    +0.237 C 
ATOM      8  O   LIG    1       -1.875   2.907  -2.599  0.00  0.00    -0.274 OA
ATOM      9  C   LIG    1       -3.714   0.832  -3.167  0.00  0.00    +0.162 C 
ATOM     10  C   LIG    1       -4.155  -0.634  -3.015  0.00  0.00    +0.033 C 
ATOM     11  C   LIG    1       -4.489  -0.783  -1.539  0.00  0.00    +0.021 C 
ATOM     12  C   LIG    1       -3.478   0.133  -0.856  0.00  0.00    +0.109 C 
BRANCH   9  13
ATOM     13  C   LIG    1       -4.867   1.799  -3.506  0.00  0.00    +0.234 C 
ATOM     14  N   LIG    1       -4.519   2.913  -4.170  0.00  0.00    -0.303 N 
ATOM     15  H   LIG    1       -3.549   3.059  -4.411  0.00  0.00    +0.149 HD
ATOM     16  O   LIG    1       -6.018   1.537  -3.153  0.00  0.00    -0.274 OA
BRANCH  14  17
ATOM     17  C   LIG    1       -5.446   3.962  -4.597  0.00  0.00    +0.156 C 
ATOM     18  C   LIG    1       -4.622   5.205  -4.972  0.00  0.00    +0.038 C 
BRANCH  17  19
ATOM     19  C   LIG    1       -6.325   3.509  -5.781  0.00  0.00    +0.231 C 
ATOM     20  O   LIG    1       -5.812   3.010  -6.781  0.00  0.00    -0.274 OA
ATOM     21  N   LIG    1       -7.640   3.714  -5.667  0.00  0.00    -0.328 N 
ATOM     22  H   LIG    1       -8.260   3.445  -6.416  0.00  0.00    +0.145 HD
ATOM     23  H   LIG    1       -8.023   4.132  -4.831  0.00  0.00    +0.145 HD
ENDBRANCH  17  19
ENDBRANCH  14  17
ENDBRANCH   9  13
ENDBRANCH   5   7
BRANCH   5  24
ATOM     24  C   LIG    1       -1.635   3.922   0.049  0.00  0.00    +0.012 C 
ATOM     25  C   LIG    1       -3.016   4.604  -0.079  0.00  0.00    +0.009 C 
ATOM     26  C   LIG    1       -1.068   4.186   1.457  0.00  0.00    +0.009 C 
ENDBRANCH   5  24
ENDBRANCH   1   5
BRANCH   3  27
ATOM     27  C   LIG    1        1.557   0.328   0.184  0.00  0.00    +0.162 C 
BRANCH  27  28
ATOM     28  N   LIG    1        2.197  -0.012   1.458  0.00  0.00    -0.305 N 
ATOM     29  H   LIG    1        2.289  -0.999   1.646  0.00  0.00    +0.149 HD
ATOM     30  C   LIG    1        2.574   0.875   2.396  0.00  0.00    +0.199 C 
ATOM     31  O   LIG    1        2.499   2.098   2.230  0.00  0.00    -0.278 OA
BRANCH  30  32
ATOM     32  C   LIG    1        3.094   0.229   3.714  0.00  0.00    +0.013 C 
BRANCH  32  33
ATOM     33  N   LIG    1        3.731   1.301   4.564  0.00  0.00    +0.386 N 
ATOM     34  H   LIG    1        3.033   1.991   4.806  0.00  0.00    -0.089 HD
ATOM     35  H   LIG    1        4.098   0.880   5.405  0.00  0.00    -0.089 HD
ATOM     36  H   LIG    1        4.483   1.732   4.044  0.00  0.00    -0.089 HD
ENDBRANCH  32  33
BRANCH  32  37
ATOM     37  C   LIG    1        1.969  -0.533   4.471  0.00  0.00    -0.006 C 
BRANCH  37  38
ATOM     38  C   LIG    1        2.438  -1.330   5.709  0.00  0.00    +0.014 C 
BRANCH  38  39
ATOM     39  C   LIG    1        1.313  -2.115   6.416  0.00  0.00    +0.084 C 
BRANCH  39  40
ATOM     40  N   LIG    1        0.834  -3.273   5.636  0.00  0.00    -0.283 NA
ATOM     41  H   LIG    1        0.070  -3.082   5.003  0.00  0.00    +0.125 HD
BRANCH  40  42
ATOM     42  C   LIG    1        1.327  -4.528   5.651  0.00  0.00    +0.167 C 
BRANCH  42  43
ATOM     43  N   LIG    1        0.767  -5.449   4.854  0.00  0.00    -0.297 NA
ATOM     44  H   LIG    1       -0.011  -5.202   4.260  0.00  0.00    +0.121 HD
ATOM     45  H   LIG    1        1.118  -6.397   4.848  0.00  0.00    +0.121 HD
ENDBRANCH  42  43
BRANCH  42  46
ATOM     46  N   LIG    1        2.357  -4.890   6.434  0.00  0.00    -0.297 NA
ATOM     47  H   LIG    1        2.790  -4.214   7.047  0.00  0.00    +0.121 HD
ATOM     48  H   LIG    1        2.698  -5.841   6.419  0.00  0.00    +0.121 HD
ENDBRANCH  42  46
ENDBRANCH  40  42
ENDBRANCH  39  40
ENDBRANCH  38  39
ENDBRANCH  37  38
ENDBRANCH  32  37
ENDBRANCH  30  32
ENDBRANCH  27  28
BRANCH  27  49
ATOM     49  C   LIG    1        1.565  -0.893  -0.791  0.00  0.00    +0.015 C 
ATOM     50  C   LIG    1        0.715  -0.704  -2.073  0.00  0.00    +0.010 C 
BRANCH  49  51
ATOM     51  C   LIG    1        3.016  -1.276  -1.174  0.00  0.00    +0.002 C 
ATOM     52  C   LIG    1        3.144  -2.639  -1.872  0.00  0.00    +0.004 C 
ENDBRANCH  49  51
ENDBRANCH  27  49
ENDBRANCH   3  27
TORSDOF 19
