REMARK  Name = DB11991
REMARK                            x       y       z     vdW  Elec       q    Type
REMARK                         _______ _______ _______ _____ _____    ______ ____
ROOT
ATOM      1  C   LIG    1        1.450   1.453  -0.030  0.00  0.00    +0.185 C 
ENDROOT
BRANCH   1   3
ATOM      2  C   LIG    1       -0.847   2.213  -0.649  0.00  0.00    +0.236 C 
ATOM      3  N   LIG    1       -0.004   1.497   0.118  0.00  0.00    -0.300 N 
ATOM      4  H   LIG    1       -0.389   0.861   0.801  0.00  0.00    +0.150 HD
ATOM      5  O   LIG    1       -0.465   3.001  -1.516  0.00  0.00    -0.274 OA
BRANCH   2   6
ATOM      6  C   LIG    1       -2.375   2.020  -0.447  0.00  0.00    +0.185 C 
BRANCH   6   8
ATOM      7  C   LIG    1       -2.629  -0.277   0.539  0.00  0.00    +0.253 C 
ATOM      8  N   LIG    1       -2.757   1.063   0.605  0.00  0.00    -0.298 N 
ATOM      9  H   LIG    1       -3.167   1.472   1.432  0.00  0.00    +0.150 HD
ATOM     10  O   LIG    1       -2.167  -0.878  -0.433  0.00  0.00    -0.270 OA
BRANCH   7  14
ATOM     11  C   LIG    1       -3.714  -3.804   4.382  0.00  0.00    +0.073 C 
ATOM     12  C   LIG    1       -3.552  -2.605   3.476  0.00  0.00    +0.076 A 
ATOM     13  S   LIG    1       -2.756  -2.673   1.932  0.00  0.00    -0.068 S 
ATOM     14  C   LIG    1       -3.056  -0.971   1.726  0.00  0.00    +0.093 A 
ATOM     15  C   LIG    1       -3.748  -0.516   2.851  0.00  0.00    +0.131 A 
ATOM     16  N   LIG    1       -4.002  -1.413   3.785  0.00  0.00    -0.252 NA
ENDBRANCH   7  14
ENDBRANCH   6   8
BRANCH   6  17
ATOM     17  C   LIG    1       -3.094   3.381  -0.281  0.00  0.00    +0.191 C 
BRANCH  17  18
ATOM     18  O   LIG    1       -4.485   3.149  -0.084  0.00  0.00    -0.381 OA
ATOM     19  C   LIG    1       -5.231   4.337   0.134  0.00  0.00    +0.194 C 
ENDBRANCH  17  18
ENDBRANCH   6  17
ENDBRANCH   2   6
ENDBRANCH   1   3
BRANCH   1  20
ATOM     20  C   LIG    1        1.815   0.202  -0.846  0.00  0.00    +0.236 C 
ATOM     21  N   LIG    1        2.705   0.387  -1.835  0.00  0.00    -0.304 N 
ATOM     22  H   LIG    1        3.054   1.318  -2.011  0.00  0.00    +0.149 HD
ATOM     23  O   LIG    1        1.302  -0.882  -0.563  0.00  0.00    -0.274 OA
BRANCH  21  24
ATOM     24  C   LIG    1        3.156  -0.652  -2.775  0.00  0.00    +0.147 C 
BRANCH  24  25
ATOM     25  C   LIG    1        4.673  -0.525  -2.922  0.00  0.00    +0.187 C 
ATOM     26  O   LIG    1        5.342   0.388  -2.428  0.00  0.00    -0.292 OA
BRANCH  25  27
ATOM     27  C   LIG    1        5.385  -1.617  -3.740  0.00  0.00    +0.149 C 
ATOM     28  C   LIG    1        5.009  -3.079  -3.435  0.00  0.00    +0.052 C 
ATOM     29  O   LIG    1        6.733  -1.411  -4.085  0.00  0.00    -0.361 OA
ATOM     30  C   LIG    1        5.815  -1.284  -5.138  0.00  0.00    +0.203 C 
ENDBRANCH  25  27
ENDBRANCH  24  25
BRANCH  24  31
ATOM     31  C   LIG    1        2.441  -0.499  -4.145  0.00  0.00    +0.065 C 
BRANCH  31  32
ATOM     32  C   LIG    1        0.922  -0.572  -4.097  0.00  0.00    -0.045 A 
ATOM     33  C   LIG    1        0.278  -1.820  -3.958  0.00  0.00    +0.004 A 
ATOM     34  C   LIG    1       -1.101  -1.876  -3.803  0.00  0.00    +0.000 A 
ATOM     35  C   LIG    1       -1.850  -0.707  -3.762  0.00  0.00    +0.000 A 
ATOM     36  C   LIG    1       -1.226   0.530  -3.863  0.00  0.00    +0.000 A 
ATOM     37  C   LIG    1        0.152   0.608  -4.015  0.00  0.00    +0.004 A 
ENDBRANCH  31  32
ENDBRANCH  24  31
ENDBRANCH  21  24
ENDBRANCH   1  20
BRANCH   1  38
ATOM     38  C   LIG    1        2.147   1.440   1.347  0.00  0.00    +0.191 C 
BRANCH  38  39
ATOM     39  O   LIG    1        3.553   1.545   1.147  0.00  0.00    -0.381 OA
ATOM     40  C   LIG    1        4.305   1.438   2.345  0.00  0.00    +0.194 C 
ENDBRANCH  38  39
ENDBRANCH   1  38
TORSDOF 14
