REMARK  Name = DB11993
REMARK                            x       y       z     vdW  Elec       q    Type
REMARK                         _______ _______ _______ _____ _____    ______ ____
ROOT
ATOM      1  C   LIG    1        2.014  -0.206  -1.183  0.00  0.00    +0.267 C 
ATOM      2  O   LIG    1        3.229  -0.136  -1.387  0.00  0.00    -0.268 OA
ATOM      3  N   LIG    1        1.492  -0.243   0.082  0.00  0.00    -0.292 N 
ENDROOT
BRANCH   1   4
ATOM      4  C   LIG    1        1.134  -0.266  -2.340  0.00  0.00    +0.143 A 
ATOM      5  N   LIG    1       -0.059  -0.850  -2.407  0.00  0.00    -0.231 NA
ATOM      6  C   LIG    1       -0.461  -0.733  -3.650  0.00  0.00    +0.199 A 
ATOM      7  N   LIG    1        0.448  -0.100  -4.452  0.00  0.00    -0.339 N 
ATOM      8  C   LIG    1        0.358   0.151  -5.878  0.00  0.00    +0.150 C 
ATOM      9  C   LIG    1        1.499   0.170  -3.617  0.00  0.00    +0.119 A 
ENDBRANCH   1   4
BRANCH   3  10
ATOM     10  C   LIG    1        2.386  -0.351   1.254  0.00  0.00    +0.143 C 
BRANCH  10  11
ATOM     11  C   LIG    1        2.294  -1.674   2.008  0.00  0.00    -0.029 A 
ATOM     12  C   LIG    1        2.241  -2.894   1.323  0.00  0.00    +0.008 A 
ATOM     13  C   LIG    1        2.140  -4.093   2.029  0.00  0.00    +0.040 A 
ATOM     14  C   LIG    1        2.088  -4.083   3.423  0.00  0.00    +0.142 A 
ATOM     15  F   LIG    1        1.988  -5.253   4.096  0.00  0.00    -0.204 F 
ATOM     16  C   LIG    1        2.138  -2.869   4.113  0.00  0.00    +0.076 A 
ATOM     17 CL   LIG    1        2.074  -2.838   5.840  0.00  0.00    -0.081 Cl
ATOM     18  C   LIG    1        2.240  -1.670   3.406  0.00  0.00    +0.028 A 
ENDBRANCH  10  11
ENDBRANCH   3  10
BRANCH   3  19
ATOM     19  C   LIG    1        0.073  -0.091   0.464  0.00  0.00    +0.112 C 
BRANCH  19  20
ATOM     20  C   LIG    1       -0.467   1.337   0.257  0.00  0.00    +0.010 C 
ATOM     21  C   LIG    1       -1.491   1.634  -0.813  0.00  0.00    -0.021 C 
ATOM     22  C   LIG    1       -1.613   3.073  -1.332  0.00  0.00    -0.075 C 
ATOM     23  N   LIG    1       -2.559   3.784  -0.355  0.00  0.00    +0.378 N 
ATOM     24  H   LIG    1       -2.328   4.767  -0.314  0.00  0.00    -0.082 HD
ATOM     25  C   LIG    1       -4.044   3.684  -0.752  0.00  0.00    -0.096 C 
ATOM     26  C   LIG    1       -2.238   3.122   0.992  0.00  0.00    -0.075 C 
ATOM     27  C   LIG    1       -1.883   1.664   0.661  0.00  0.00    -0.021 C 
ENDBRANCH  19  20
ENDBRANCH   3  19
TORSDOF 5
