REMARK  Name = DB11765
REMARK                            x       y       z     vdW  Elec       q    Type
REMARK                         _______ _______ _______ _____ _____    ______ ____
ROOT
ATOM      1  C   LIG    1        0.094  -0.049   0.068  0.00  0.00    +0.174 C 
ENDROOT
BRANCH   1   5
ATOM      2  N   LIG    1       -0.878  -2.302  -2.649  0.00  0.00    -0.232 NA
ATOM      3  C   LIG    1       -1.365  -1.151  -3.092  0.00  0.00    +0.161 A 
ATOM      4  C   LIG    1       -1.091  -0.132  -2.184  0.00  0.00    +0.120 A 
ATOM      5  N   LIG    1       -0.403  -0.704  -1.145  0.00  0.00    -0.324 N 
ATOM      6  C   LIG    1       -0.313  -2.029  -1.498  0.00  0.00    +0.200 A 
BRANCH   3   7
ATOM      7  C   LIG    1       -2.103  -1.085  -4.416  0.00  0.00    +0.436 C 
ATOM      8  F   LIG    1       -1.325  -1.485  -5.422  0.00  0.00    -0.164 F 
ATOM      9  F   LIG    1       -2.504   0.157  -4.689  0.00  0.00    -0.164 F 
ATOM     10  F   LIG    1       -3.187  -1.862  -4.402  0.00  0.00    -0.164 F 
ENDBRANCH   3   7
ENDBRANCH   1   5
BRANCH   1  11
ATOM     11  C   LIG    1        1.637  -0.018   0.107  0.00  0.00    +0.241 C 
ATOM     12  N   LIG    1        2.217   0.943  -0.649  0.00  0.00    -0.269 N 
ATOM     13  H   LIG    1        1.597   1.549  -1.165  0.00  0.00    +0.156 HD
ATOM     14  O   LIG    1        2.253  -0.843   0.785  0.00  0.00    -0.273 OA
BRANCH  12  15
ATOM     15  C   LIG    1        3.584   1.223  -0.825  0.00  0.00    +0.125 A 
ATOM     16  N   LIG    1        4.559   0.494  -0.211  0.00  0.00    -0.239 NA
ATOM     17  C   LIG    1        5.856   0.830  -0.430  0.00  0.00    +0.127 A 
ATOM     18  C   LIG    1        6.257   1.892  -1.259  0.00  0.00    +0.077 A 
ATOM     19  C   LIG    1        5.231   2.627  -1.880  0.00  0.00    +0.020 A 
ATOM     20  C   LIG    1        3.892   2.296  -1.665  0.00  0.00    +0.044 A 
BRANCH  18  21
ATOM     21  C   LIG    1        7.710   2.225  -1.471  0.00  0.00    +0.338 C 
ATOM     22  O   LIG    1        8.521   1.950  -0.555  0.00  0.00    -0.245 OA
BRANCH  21  23
ATOM     23  O   LIG    1        8.043   2.763  -2.553  0.00  0.00    -0.477 OA
ATOM     24  H   LIG    1        8.941   2.981  -2.711  0.00  0.00    +0.295 HD
ENDBRANCH  21  23
ENDBRANCH  18  21
ENDBRANCH  12  15
ENDBRANCH   1  11
BRANCH   1  25
ATOM     25  C   LIG    1       -0.547  -0.681   1.340  0.00  0.00    +0.038 C 
BRANCH  25  26
ATOM     26  C   LIG    1       -2.097  -0.686   1.376  0.00  0.00    -0.009 C 
ATOM     27  C   LIG    1       -2.664  -1.346   2.654  0.00  0.00    +0.003 C 
ATOM     28  C   LIG    1       -3.437  -0.254   3.398  0.00  0.00    +0.000 C 
ATOM     29  C   LIG    1       -3.910   0.687   2.295  0.00  0.00    +0.000 C 
ATOM     30  C   LIG    1       -2.731   0.721   1.320  0.00  0.00    +0.003 C 
ENDBRANCH  25  26
ENDBRANCH   1  25
TORSDOF 8
