REMARK  Name = DB11894
REMARK                            x       y       z     vdW  Elec       q    Type
REMARK                         _______ _______ _______ _____ _____    ______ ____
ROOT
ATOM      1  C   LIG    1        1.464   0.155  -0.444  0.00  0.00    +0.131 A 
ATOM      2  C   LIG    1        2.087   0.840   0.616  0.00  0.00    +0.074 A 
ATOM      3  C   LIG    1        3.443   0.579   0.837  0.00  0.00    +0.072 A 
ATOM      4  N   LIG    1        4.365   1.046   1.753  0.00  0.00    -0.328 N 
ATOM      5  C   LIG    1        4.124   2.061   2.769  0.00  0.00    +0.150 C 
ATOM      6  C   LIG    1        5.573   0.450   1.429  0.00  0.00    +0.148 A 
ATOM      7  N   LIG    1        5.480  -0.403   0.439  0.00  0.00    -0.229 NA
ATOM      8  C   LIG    1        4.173  -0.338   0.042  0.00  0.00    +0.090 A 
ATOM      9  C   LIG    1        3.529  -1.026  -0.995  0.00  0.00    +0.033 A 
ATOM     10  C   LIG    1        2.176  -0.767  -1.215  0.00  0.00    +0.048 A 
ENDROOT
BRANCH   1  11
ATOM     11  O   LIG    1        0.129   0.326  -0.752  0.00  0.00    -0.456 OA
BRANCH  11  18
ATOM     12  C   LIG    1       -3.531   2.606   1.585  0.00  0.00    +0.046 C 
ATOM     13  C   LIG    1       -2.315   2.675   0.667  0.00  0.00    -0.026 A 
ATOM     14  C   LIG    1       -1.868   3.894   0.125  0.00  0.00    +0.031 A 
ATOM     15  C   LIG    1       -0.745   3.913  -0.723  0.00  0.00    -0.026 A 
ATOM     16  C   LIG    1       -0.227   5.209  -1.337  0.00  0.00    +0.046 C 
ATOM     17  C   LIG    1       -0.081   2.718  -1.014  0.00  0.00    +0.051 A 
ATOM     18  C   LIG    1       -0.514   1.509  -0.466  0.00  0.00    +0.129 A 
ATOM     19  C   LIG    1       -1.633   1.492   0.363  0.00  0.00    +0.051 A 
BRANCH  14  20
ATOM     20  N   LIG    1       -2.541   5.085   0.426  0.00  0.00    -0.358 N 
ATOM     21  H   LIG    1       -3.344   5.060   1.038  0.00  0.00    +0.142 HD
ATOM     22  H   LIG    1       -2.210   5.955   0.036  0.00  0.00    +0.142 HD
ENDBRANCH  14  20
ENDBRANCH  11  18
ENDBRANCH   1  11
BRANCH   6  23
ATOM     23  C   LIG    1        6.874   0.731   2.158  0.00  0.00    +0.303 C 
BRANCH  23  24
ATOM     24  O   LIG    1        7.178   2.118   2.035  0.00  0.00    -0.484 OA
BRANCH  24  25
ATOM     25  C   LIG    1        8.288   2.631   2.679  0.00  0.00    +0.121 A 
ATOM     26  C   LIG    1        9.210   1.859   3.402  0.00  0.00    +0.046 A 
ATOM     27  C   LIG    1       10.302   2.466   4.017  0.00  0.00    +0.007 A 
ATOM     28  C   LIG    1       10.481   3.848   3.919  0.00  0.00    -0.046 A 
ATOM     29  C   LIG    1        9.567   4.619   3.199  0.00  0.00    +0.007 A 
ATOM     30  C   LIG    1        8.478   4.010   2.582  0.00  0.00    +0.046 A 
BRANCH  28  31
ATOM     31  C   LIG    1       11.671   4.517   4.596  0.00  0.00    +0.059 C 
BRANCH  31  32
ATOM     32  C   LIG    1       11.318   5.194   5.944  0.00  0.00    +0.146 C 
ATOM     33  S   LIG    1       10.753   4.026   7.204  0.00  0.00    -0.054 S 
ATOM     34  C   LIG    1       12.078   4.503   8.327  0.00  0.00    +0.279 C 
ATOM     35  O   LIG    1       12.250   4.010   9.439  0.00  0.00    -0.263 OA
ATOM     36  N   LIG    1       12.813   5.463   7.755  0.00  0.00    -0.246 N 
ATOM     37  H   LIG    1       13.597   5.852   8.259  0.00  0.00    +0.158 HD
ATOM     38  C   LIG    1       12.531   5.920   6.529  0.00  0.00    +0.234 C 
ATOM     39  O   LIG    1       13.152   6.807   5.945  0.00  0.00    -0.274 OA
ENDBRANCH  31  32
ENDBRANCH  28  31
ENDBRANCH  24  25
ENDBRANCH  23  24
ENDBRANCH   6  23
TORSDOF 8
