REMARK  Name = DB11127
REMARK                            x       y       z     vdW  Elec       q    Type
REMARK                         _______ _______ _______ _____ _____    ______ ____
ROOT
ATOM      1 SE   LIG    1        1.771  -0.079   0.040  0.00  0.00    +0.000 Se
ATOM      2  O   LIG    1        2.178  -1.722  -0.102  0.00  0.00    +0.000 OA
ENDROOT
BRANCH   1   3
ATOM      3  O   LIG    1       -0.112   0.020   0.023  0.00  0.00    +0.000 OA
ATOM      4  H   LIG    1       -0.356   0.948   0.001  0.00  0.00    +0.000 HD
ENDBRANCH   1   3
BRANCH   1   5
ATOM      5  O   LIG    1        2.094   0.409   1.833  0.00  0.00    +0.000 OA
ATOM      6  H   LIG    1        1.966   1.357   1.905  0.00  0.00    +0.000 HD
ENDBRANCH   1   5
TORSDOF 2
