REMARK  Name = DB11889
REMARK                            x       y       z     vdW  Elec       q    Type
REMARK                         _______ _______ _______ _____ _____    ______ ____
ROOT
ATOM      1  C   LIG    1        0.000  -0.026   0.091  0.00  0.00    -0.038 C 
ENDROOT
BRANCH   1   5
ATOM      2  C   LIG    1       -1.627  -1.975   3.581  0.00  0.00    +0.000 A 
ATOM      3  C   LIG    1       -0.763  -0.895   3.741  0.00  0.00    +0.000 A 
ATOM      4  C   LIG    1       -0.241  -0.258   2.618  0.00  0.00    +0.002 A 
ATOM      5  C   LIG    1       -0.587  -0.699   1.334  0.00  0.00    -0.062 A 
ATOM      6  C   LIG    1       -1.453  -1.788   1.186  0.00  0.00    +0.002 A 
ATOM      7  C   LIG    1       -1.973  -2.425   2.309  0.00  0.00    +0.000 A 
ENDBRANCH   1   5
BRANCH   1   8
ATOM      8  N   LIG    1       -0.493   1.419  -0.082  0.00  0.00    +0.383 N 
ATOM      9  H   LIG    1       -0.154   1.995   0.675  0.00  0.00    -0.089 HD
ATOM     10  H   LIG    1       -0.155   1.798  -0.955  0.00  0.00    -0.089 HD
ATOM     11  H   LIG    1       -1.503   1.442  -0.090  0.00  0.00    -0.089 HD
ENDBRANCH   1   8
BRANCH   1  12
ATOM     12  C   LIG    1        1.549  -0.054   0.016  0.00  0.00    +0.044 C 
BRANCH  12  13
ATOM     13  C   LIG    1        2.118  -1.466  -0.046  0.00  0.00    +0.040 A 
ATOM     14  N   LIG    1        2.437  -2.041   1.145  0.00  0.00    -0.260 NA
ATOM     15  C   LIG    1        2.929  -3.306   1.129  0.00  0.00    +0.111 A 
ATOM     16  C   LIG    1        3.119  -4.031  -0.050  0.00  0.00    +0.020 A 
ATOM     17  C   LIG    1        2.789  -3.426  -1.264  0.00  0.00    +0.003 A 
ATOM     18  C   LIG    1        2.280  -2.125  -1.269  0.00  0.00    +0.023 A 
ENDBRANCH  12  13
ENDBRANCH   1  12
TORSDOF 4
