REMARK  Name = DB11873
REMARK                            x       y       z     vdW  Elec       q    Type
REMARK                         _______ _______ _______ _____ _____    ______ ____
ROOT
ATOM      1  C   LIG    1        1.844  -1.883  -0.090  0.00  0.00    +0.020 A 
ATOM      2  C   LIG    1        2.062  -2.557  -1.311  0.00  0.00    +0.014 A 
ATOM      3  C   LIG    1        2.349  -3.927  -1.242  0.00  0.00    +0.120 A 
ATOM      4  N   LIG    1        2.427  -4.626  -0.082  0.00  0.00    -0.263 NA
ATOM      5  C   LIG    1        2.220  -3.951   1.074  0.00  0.00    +0.112 A 
ATOM      6  C   LIG    1        1.931  -2.589   1.114  0.00  0.00    +0.035 A 
ENDROOT
BRANCH   2   7
ATOM      7  C   LIG    1        2.012  -1.882  -2.640  0.00  0.00    -0.008 A 
ATOM      8  C   LIG    1        1.013  -2.185  -3.623  0.00  0.00    -0.009 A 
ATOM      9  C   LIG    1       -0.023  -3.134  -3.379  0.00  0.00    +0.009 A 
ATOM     10  C   LIG    1       -0.987  -3.413  -4.340  0.00  0.00    +0.001 A 
ATOM     11  C   LIG    1       -0.962  -2.768  -5.566  0.00  0.00    +0.001 A 
ATOM     12  C   LIG    1        0.025  -1.832  -5.848  0.00  0.00    +0.010 A 
ATOM     13  C   LIG    1        1.037  -1.510  -4.892  0.00  0.00    +0.000 A 
ATOM     14  C   LIG    1        2.068  -0.545  -5.144  0.00  0.00    +0.059 A 
ATOM     15  C   LIG    1        3.018  -0.279  -4.162  0.00  0.00    +0.020 A 
ATOM     16  C   LIG    1        2.989  -0.934  -2.942  0.00  0.00    +0.010 A 
BRANCH  14  17
ATOM     17  C   LIG    1        2.174   0.187  -6.405  0.00  0.00    +0.100 C 
ATOM     18  N   LIG    1        2.258   0.767  -7.403  0.00  0.00    -0.191 NA
ENDBRANCH  14  17
ENDBRANCH   2   7
BRANCH   1  19
ATOM     19  S   LIG    1        1.459  -0.150  -0.034  0.00  0.00    -0.107 S 
BRANCH  19  21
ATOM     20  C   LIG    1       -1.128  -0.801  -0.878  0.00  0.00    +0.034 C 
ATOM     21  C   LIG    1       -0.360   0.026   0.192  0.00  0.00    +0.112 C 
ATOM     22  C   LIG    1       -0.753   1.517   0.030  0.00  0.00    +0.034 C 
BRANCH  21  23
ATOM     23  C   LIG    1       -0.680  -0.419   1.670  0.00  0.00    +0.321 C 
ATOM     24  O   LIG    1       -1.574  -1.276   1.871  0.00  0.00    -0.249 OA
BRANCH  23  25
ATOM     25  O   LIG    1       -0.057   0.122   2.617  0.00  0.00    -0.480 OA
ATOM     26  H   LIG    1        0.607   0.759   2.437  0.00  0.00    +0.295 HD
ENDBRANCH  23  25
ENDBRANCH  21  23
ENDBRANCH  19  21
ENDBRANCH   1  19
TORSDOF 6
