REMARK  Name = DB11168
REMARK                            x       y       z     vdW  Elec       q    Type
REMARK                         _______ _______ _______ _____ _____    ______ ____
ROOT
ATOM      1  C   LIG    1        1.502  -0.041   0.040  0.00  0.00    +0.253 C 
ENDROOT
BRANCH   1   2
ATOM      2  O   LIG    1        2.101   0.441  -1.163  0.00  0.00    -0.378 OA
ATOM      3  H   LIG    1        2.626   1.215  -0.942  0.00  0.00    +0.211 HD
ENDBRANCH   1   2
BRANCH   1   4
ATOM      4  C   LIG    1        2.048   0.702   1.303  0.00  0.00    +0.336 C 
ATOM      5  O   LIG    1        1.694   0.250   2.417  0.00  0.00    -0.248 OA
BRANCH   4   6
ATOM      6  O   LIG    1        2.809   1.691   1.173  0.00  0.00    -0.479 OA
ATOM      7  H   LIG    1        3.044   1.992   0.318  0.00  0.00    +0.295 HD
ENDBRANCH   4   6
ENDBRANCH   1   4
BRANCH   1   8
ATOM      8  C   LIG    1       -0.058   0.002  -0.059  0.00  0.00    +0.179 C 
BRANCH   8   9
ATOM      9  O   LIG    1       -0.542   1.339  -0.063  0.00  0.00    -0.386 OA
ATOM     10  H   LIG    1       -0.188   1.790   0.707  0.00  0.00    +0.210 HD
ENDBRANCH   8   9
BRANCH   8  11
ATOM     11  C   LIG    1       -0.606  -0.729  -1.309  0.00  0.00    +0.190 C 
BRANCH  11  12
ATOM     12  O   LIG    1       -2.000  -0.953  -1.216  0.00  0.00    -0.392 OA
ATOM     13  H   LIG    1       -2.293  -1.389  -2.019  0.00  0.00    +0.210 HD
ENDBRANCH  11  12
ENDBRANCH   8  11
ENDBRANCH   1   8
TORSDOF 7
