REMARK  Name = DB11949
REMARK                            x       y       z     vdW  Elec       q    Type
REMARK                         _______ _______ _______ _____ _____    ______ ____
ROOT
ATOM      1  C   LIG    1        0.674  -2.729   1.517  0.00  0.00    +0.091 C 
ATOM      2  N   LIG    1       -0.188  -2.554   0.303  0.00  0.00    -0.282 N 
ATOM      3  C   LIG    1       -0.666  -1.304   0.007  0.00  0.00    +0.305 C 
ATOM      4  N   LIG    1        0.169  -0.234   0.162  0.00  0.00    -0.282 N 
ATOM      5  C   LIG    1       -0.406   0.993   0.733  0.00  0.00    +0.134 C 
ATOM      6  O   LIG    1       -1.825  -1.128  -0.385  0.00  0.00    -0.252 OA
ATOM      7  C   LIG    1       -1.036  -3.690  -0.158  0.00  0.00    +0.091 C 
ATOM      8  C   LIG    1       -0.255  -5.024  -0.133  0.00  0.00    -0.063 C 
ATOM      9  N   LIG    1        0.447  -5.234   1.214  0.00  0.00    +0.381 N 
ATOM     10  H   LIG    1       -0.229  -5.258   1.965  0.00  0.00    -0.086 HD
ATOM     11  H   LIG    1        0.942  -6.114   1.212  0.00  0.00    -0.086 HD
ATOM     12  C   LIG    1        1.429  -4.080   1.424  0.00  0.00    -0.055 C 
ENDROOT
BRANCH   1  15
ATOM     13  C   LIG    1        2.213  -1.363   3.715  0.00  0.00    +0.044 C 
ATOM     14  C   LIG    1        0.779  -1.836   3.925  0.00  0.00    -0.043 A 
ATOM     15  C   LIG    1        0.051  -2.495   2.910  0.00  0.00    -0.026 A 
ATOM     16  C   LIG    1       -1.265  -2.897   3.181  0.00  0.00    +0.008 A 
ATOM     17  C   LIG    1       -1.845  -2.664   4.426  0.00  0.00    +0.039 A 
ATOM     18  C   LIG    1       -1.119  -2.021   5.423  0.00  0.00    +0.124 A 
ATOM     19  F   LIG    1       -1.682  -1.793   6.631  0.00  0.00    -0.205 F 
ATOM     20  C   LIG    1        0.187  -1.610   5.173  0.00  0.00    +0.042 A 
ENDBRANCH   1  15
BRANCH   4  21
ATOM     21  C   LIG    1        1.592  -0.117  -0.294  0.00  0.00    +0.104 C 
ATOM     22  C   LIG    1        1.908   1.204  -1.037  0.00  0.00    +0.033 C 
BRANCH  21  23
ATOM     23  C   LIG    1        2.188  -1.280  -1.103  0.00  0.00    -0.026 A 
ATOM     24  C   LIG    1        3.370  -1.888  -0.669  0.00  0.00    +0.017 A 
ATOM     25  C   LIG    1        3.926  -2.961  -1.371  0.00  0.00    +0.056 A 
ATOM     26  C   LIG    1        3.287  -3.421  -2.529  0.00  0.00    +0.024 A 
ATOM     27  C   LIG    1        2.112  -2.817  -2.989  0.00  0.00    +0.056 A 
ATOM     28  C   LIG    1        1.578  -1.737  -2.277  0.00  0.00    +0.017 A 
BRANCH  25  29
ATOM     29  C   LIG    1        5.207  -3.618  -0.861  0.00  0.00    +0.417 C 
ATOM     30  F   LIG    1        5.772  -4.404  -1.778  0.00  0.00    -0.166 F 
ATOM     31  F   LIG    1        4.917  -4.361   0.207  0.00  0.00    -0.166 F 
ATOM     32  F   LIG    1        6.098  -2.690  -0.506  0.00  0.00    -0.166 F 
ENDBRANCH  25  29
BRANCH  27  33
ATOM     33  C   LIG    1        1.433  -3.349  -4.249  0.00  0.00    +0.417 C 
ATOM     34  F   LIG    1        0.238  -2.792  -4.457  0.00  0.00    -0.166 F 
ATOM     35  F   LIG    1        1.259  -4.668  -4.149  0.00  0.00    -0.166 F 
ATOM     36  F   LIG    1        2.202  -3.095  -5.307  0.00  0.00    -0.166 F 
ENDBRANCH  27  33
ENDBRANCH  21  23
ENDBRANCH   4  21
TORSDOF 5
