REMARK  Name = DB11376
REMARK                            x       y       z     vdW  Elec       q    Type
REMARK                         _______ _______ _______ _____ _____    ______ ____
ROOT
ATOM      1  N   LIG    1       -1.002   3.296  -3.658  0.00  0.00    -0.319 N 
ATOM      2  C   LIG    1       -0.623   1.869  -3.587  0.00  0.00    +0.088 C 
ATOM      3  C   LIG    1       -0.896   1.234  -2.204  0.00  0.00    -0.060 C 
ATOM      4  N   LIG    1       -0.088   1.998  -1.132  0.00  0.00    +0.382 N 
ATOM      5  H   LIG    1        0.895   1.921  -1.352  0.00  0.00    -0.082 HD
ATOM      6  C   LIG    1       -0.476   3.491  -1.207  0.00  0.00    -0.060 C 
ATOM      7  C   LIG    1       -0.207   4.008  -2.639  0.00  0.00    +0.088 C 
ENDROOT
BRANCH   1  10
ATOM      8  C   LIG    1       -3.909   5.452  -4.459  0.00  0.00    +0.005 A 
ATOM      9  C   LIG    1       -2.604   5.077  -4.132  0.00  0.00    +0.043 A 
ATOM     10  C   LIG    1       -2.299   3.716  -3.964  0.00  0.00    +0.121 A 
ATOM     11  N   LIG    1       -3.255   2.757  -4.140  0.00  0.00    -0.240 NA
ATOM     12  C   LIG    1       -4.519   3.137  -4.457  0.00  0.00    +0.113 A 
ATOM     13  C   LIG    1       -4.886   4.471  -4.623  0.00  0.00    +0.020 A 
ENDBRANCH   1  10
BRANCH   4  14
ATOM     14  C   LIG    1       -0.337   1.456   0.296  0.00  0.00    -0.078 C 
BRANCH  14  15
ATOM     15  C   LIG    1        0.217   0.030   0.479  0.00  0.00    -0.011 C 
BRANCH  15  16
ATOM     16  C   LIG    1        1.730  -0.088   0.184  0.00  0.00    +0.078 C 
BRANCH  16  17
ATOM     17  C   LIG    1        2.335  -1.489   0.404  0.00  0.00    +0.163 C 
ATOM     18  O   LIG    1        1.603  -2.418   0.756  0.00  0.00    -0.292 OA
BRANCH  17  19
ATOM     19  C   LIG    1        3.810  -1.654   0.185  0.00  0.00    +0.018 A 
ATOM     20  C   LIG    1        4.402  -2.907   0.408  0.00  0.00    +0.014 A 
ATOM     21  C   LIG    1        5.768  -3.089   0.212  0.00  0.00    +0.039 A 
ATOM     22  C   LIG    1        6.555  -2.020  -0.208  0.00  0.00    +0.123 A 
ATOM     23  F   LIG    1        7.882  -2.197  -0.398  0.00  0.00    -0.205 F 
ATOM     24  C   LIG    1        5.985  -0.771  -0.435  0.00  0.00    +0.039 A 
ATOM     25  C   LIG    1        4.618  -0.587  -0.240  0.00  0.00    +0.014 A 
ENDBRANCH  17  19
ENDBRANCH  16  17
ENDBRANCH  15  16
ENDBRANCH  14  15
ENDBRANCH   4  14
TORSDOF 6
