REMARK  Name = DB11982
REMARK                            x       y       z     vdW  Elec       q    Type
REMARK                         _______ _______ _______ _____ _____    ______ ____
ROOT
ATOM      1  C   LIG    1       -3.401   1.623   0.351  0.00  0.00    +0.121 A 
ATOM      2  N   LIG    1       -4.694   1.173   0.143  0.00  0.00    -0.286 N 
ATOM      3  C   LIG    1       -5.882   1.827  -0.117  0.00  0.00    +0.205 A 
ATOM      4  N   LIG    1       -6.901   1.007  -0.246  0.00  0.00    -0.243 NA
ATOM      5  C   LIG    1       -6.428  -0.209  -0.107  0.00  0.00    +0.138 A 
ATOM      6  C   LIG    1       -5.031  -0.194   0.119  0.00  0.00    +0.067 A 
ATOM      7  C   LIG    1       -4.011  -1.136   0.300  0.00  0.00    +0.028 A 
ATOM      8  C   LIG    1       -2.702  -0.697   0.467  0.00  0.00    +0.018 A 
ATOM      9  C   LIG    1       -2.368   0.664   0.486  0.00  0.00    +0.077 A 
ENDROOT
BRANCH   9  10
ATOM     10  C   LIG    1       -0.916   1.053   0.689  0.00  0.00    +0.270 C 
ATOM     11  N   LIG    1       -0.020   0.315   0.004  0.00  0.00    -0.190 N 
ATOM     12  H   LIG    1       -0.261  -0.231  -0.811  0.00  0.00    +0.183 HD
ATOM     13  O   LIG    1       -0.609   1.993   1.427  0.00  0.00    -0.268 OA
BRANCH  11  14
ATOM     14  O   LIG    1        1.318   0.716  -0.009  0.00  0.00    -0.277 OA
BRANCH  14  15
ATOM     15  C   LIG    1        2.143  -0.237   0.662  0.00  0.00    +0.218 C 
BRANCH  15  16
ATOM     16  C   LIG    1        1.939  -0.246   2.192  0.00  0.00    +0.186 C 
BRANCH  16  17
ATOM     17  O   LIG    1        2.875  -1.102   2.810  0.00  0.00    -0.393 OA
ATOM     18  H   LIG    1        2.659  -2.009   2.582  0.00  0.00    +0.209 HD
ENDBRANCH  16  17
ENDBRANCH  15  16
ENDBRANCH  14  15
ENDBRANCH  11  14
ENDBRANCH   9  10
BRANCH   1  19
ATOM     19  N   LIG    1       -3.118   3.007   0.353  0.00  0.00    -0.298 N 
ATOM     20  H   LIG    1       -2.190   3.239   0.029  0.00  0.00    +0.154 HD
BRANCH  19  27
ATOM     21  C   LIG    1       -5.296   4.929   2.686  0.00  0.00    +0.016 A 
ATOM     22  C   LIG    1       -4.990   6.234   2.303  0.00  0.00    +0.016 A 
ATOM     23  I   LIG    1       -5.915   7.849   3.257  0.00  0.00    -0.044 I 
ATOM     24  C   LIG    1       -4.065   6.462   1.285  0.00  0.00    +0.054 A 
ATOM     25  C   LIG    1       -3.446   5.386   0.645  0.00  0.00    +0.145 A 
ATOM     26  F   LIG    1       -2.551   5.634  -0.341  0.00  0.00    -0.204 F 
ATOM     27  C   LIG    1       -3.753   4.070   1.019  0.00  0.00    +0.068 A 
ATOM     28  C   LIG    1       -4.679   3.853   2.049  0.00  0.00    +0.027 A 
ENDBRANCH  19  27
ENDBRANCH   1  19
TORSDOF 7
