REMARK  Name = DB11089
REMARK                            x       y       z     vdW  Elec       q    Type
REMARK                         _______ _______ _______ _____ _____    ______ ____
ROOT
ATOM      1  C   LIG    1       -0.281   0.377   0.574  0.00  0.00    +0.278 C 
ENDROOT
BRANCH   1   2
ATOM      2  S   LIG    1       -0.559   2.246   0.834  0.00  0.00    +0.094 S 
ATOM      3  O   LIG    1       -0.262   2.960  -0.413  0.00  0.00    -0.147 OA
ATOM      4  O   LIG    1        0.043   2.663   2.105  0.00  0.00    -0.147 OA
BRANCH   2   5
ATOM      5  O   LIG    1       -2.210   2.226   1.021  0.00  0.00    -0.253 OA
ATOM      6  H   LIG    1       -2.653   2.054   0.168  0.00  0.00    +0.244 HD
ENDBRANCH   2   5
ENDBRANCH   1   2
BRANCH   1   7
ATOM      7  C   LIG    1       -0.898  -0.508   1.664  0.00  0.00    +0.335 C 
ATOM      8  O   LIG    1       -1.248  -0.062   2.759  0.00  0.00    -0.249 OA
BRANCH   7   9
ATOM      9  O   LIG    1       -0.979  -1.794   1.273  0.00  0.00    -0.463 OA
BRANCH   9  10
ATOM     10  C   LIG    1       -1.450  -2.804   2.158  0.00  0.00    +0.235 C 
BRANCH  10  11
ATOM     11  C   LIG    1       -1.305  -4.202   1.510  0.00  0.00    +0.026 C 
BRANCH  11  12
ATOM     12  C   LIG    1       -2.255  -4.399   0.302  0.00  0.00    +0.003 C 
ATOM     13  C   LIG    1       -3.752  -4.304   0.639  0.00  0.00    +0.004 C 
ENDBRANCH  11  12
BRANCH  11  14
ATOM     14  C   LIG    1        0.158  -4.526   1.108  0.00  0.00    +0.007 C 
BRANCH  14  15
ATOM     15  C   LIG    1        1.179  -4.456   2.264  0.00  0.00    +0.000 C 
BRANCH  15  16
ATOM     16  C   LIG    1        2.611  -4.862   1.864  0.00  0.00    -0.003 C 
ATOM     17  C   LIG    1        3.282  -3.904   0.867  0.00  0.00    +0.004 C 
ENDBRANCH  15  16
ENDBRANCH  14  15
ENDBRANCH  11  14
ENDBRANCH  10  11
ENDBRANCH   9  10
ENDBRANCH   7   9
ENDBRANCH   1   7
BRANCH   1  18
ATOM     18  C   LIG    1        1.235   0.090   0.426  0.00  0.00    +0.161 C 
BRANCH  18  19
ATOM     19  C   LIG    1        1.797   0.505  -0.935  0.00  0.00    +0.310 C 
ATOM     20  O   LIG    1        1.479  -0.089  -1.966  0.00  0.00    -0.251 OA
BRANCH  19  21
ATOM     21  O   LIG    1        2.622   1.567  -0.847  0.00  0.00    -0.464 OA
BRANCH  21  22
ATOM     22  C   LIG    1        3.227   2.114  -2.013  0.00  0.00    +0.235 C 
BRANCH  22  23
ATOM     23  C   LIG    1        4.111   3.330  -1.658  0.00  0.00    +0.026 C 
BRANCH  23  24
ATOM     24  C   LIG    1        5.207   2.992  -0.610  0.00  0.00    +0.003 C 
ATOM     25  C   LIG    1        6.268   1.978  -1.072  0.00  0.00    +0.004 C 
ENDBRANCH  23  24
BRANCH  23  26
ATOM     26  C   LIG    1        4.657   3.985  -2.952  0.00  0.00    +0.007 C 
BRANCH  26  27
ATOM     27  C   LIG    1        5.432   5.301  -2.737  0.00  0.00    +0.000 C 
BRANCH  27  28
ATOM     28  C   LIG    1        5.848   5.972  -4.057  0.00  0.00    -0.003 C 
ATOM     29  C   LIG    1        6.618   7.283  -3.846  0.00  0.00    +0.004 C 
ENDBRANCH  27  28
ENDBRANCH  26  27
ENDBRANCH  23  26
ENDBRANCH  22  23
ENDBRANCH  21  22
ENDBRANCH  19  21
ENDBRANCH  18  19
ENDBRANCH   1  18
TORSDOF 19
