REMARK  Name = DB11387
REMARK                            x       y       z     vdW  Elec       q    Type
REMARK                         _______ _______ _______ _____ _____    ______ ____
ROOT
ATOM      1  C   LIG    1        0.383   0.062  -0.048  0.00  0.00    +0.261 C 
ATOM      2 CL   LIG    1       -1.274  -0.563   0.139  0.00  0.00    -0.087 Cl
ATOM      3 CL   LIG    1        0.363   1.719  -0.700  0.00  0.00    -0.087 Cl
ATOM      4 CL   LIG    1        1.259   0.003   1.501  0.00  0.00    -0.087 Cl
ENDROOT
TORSDOF 0
