REMARK  Name = DB11787
REMARK                            x       y       z     vdW  Elec       q    Type
REMARK                         _______ _______ _______ _____ _____    ______ ____
ROOT
ATOM      1  N   LIG    1       -3.033   1.904  -0.009  0.00  0.00    -0.296 N 
ATOM      2  C   LIG    1       -4.255   1.264  -0.162  0.00  0.00    +0.195 A 
ATOM      3  N   LIG    1       -4.166  -0.038  -0.293  0.00  0.00    -0.213 NA
ATOM      4  C   LIG    1       -2.825  -0.299  -0.222  0.00  0.00    +0.110 A 
ATOM      5  C   LIG    1       -2.118  -1.511  -0.281  0.00  0.00    +0.034 A 
ATOM      6  C   LIG    1       -0.725  -1.446  -0.174  0.00  0.00    +0.032 A 
ATOM      7  C   LIG    1       -0.089  -0.204  -0.019  0.00  0.00    +0.092 A 
ATOM      8  N   LIG    1       -0.762   0.978   0.044  0.00  0.00    -0.226 NA
ATOM      9  C   LIG    1       -2.090   0.894  -0.055  0.00  0.00    +0.162 A 
ENDROOT
BRANCH   7  10
ATOM     10  C   LIG    1        1.404  -0.082   0.053  0.00  0.00    +0.093 A 
ATOM     11  N   LIG    1        2.239  -1.106  -0.312  0.00  0.00    -0.340 N 
ATOM     12  H   LIG    1        1.950  -2.022  -0.625  0.00  0.00    +0.167 HD
ATOM     13  C   LIG    1        3.530  -0.661  -0.224  0.00  0.00    +0.114 A 
ATOM     14  N   LIG    1        3.559   0.590   0.170  0.00  0.00    -0.231 NA
ATOM     15  C   LIG    1        2.300   0.955   0.389  0.00  0.00    +0.098 A 
BRANCH  15  16
ATOM     16  C   LIG    1        2.012   2.342   0.880  0.00  0.00    +0.003 A 
ATOM     17  C   LIG    1        1.047   2.559   1.870  0.00  0.00    +0.013 A 
ATOM     18  C   LIG    1        0.763   3.850   2.305  0.00  0.00    +0.039 A 
ATOM     19  C   LIG    1        1.452   4.930   1.760  0.00  0.00    +0.123 A 
ATOM     20  F   LIG    1        1.173   6.185   2.179  0.00  0.00    -0.205 F 
ATOM     21  C   LIG    1        2.431   4.726   0.790  0.00  0.00    +0.039 A 
ATOM     22  C   LIG    1        2.713   3.435   0.353  0.00  0.00    +0.013 A 
ENDBRANCH  15  16
BRANCH  13  23
ATOM     23  C   LIG    1        4.748  -1.509  -0.618  0.00  0.00    +0.020 C 
ATOM     24  C   LIG    1        4.556  -2.978  -0.165  0.00  0.00    +0.018 C 
ATOM     25  C   LIG    1        4.912  -1.469  -2.153  0.00  0.00    +0.018 C 
ATOM     26  C   LIG    1        6.040  -0.965   0.041  0.00  0.00    +0.018 C 
ENDBRANCH  13  23
ENDBRANCH   7  10
BRANCH   2  27
ATOM     27  N   LIG    1       -5.445   1.937  -0.164  0.00  0.00    -0.329 N 
ATOM     28  H   LIG    1       -5.488   2.941  -0.074  0.00  0.00    +0.145 HD
ATOM     29  H   LIG    1       -6.323   1.449  -0.267  0.00  0.00    +0.145 HD
ENDBRANCH   2  27
BRANCH   1  30
ATOM     30  C   LIG    1       -2.780   3.339   0.190  0.00  0.00    +0.132 C 
BRANCH  30  32
ATOM     31  C   LIG    1       -2.235   5.614  -0.723  0.00  0.00    +0.012 C 
ATOM     32  C   LIG    1       -2.440   4.131  -1.112  0.00  0.00    -0.020 C 
ATOM     33  C   LIG    1       -1.137   3.622  -1.773  0.00  0.00    +0.012 C 
ATOM     34  C   LIG    1       -3.594   4.044  -2.138  0.00  0.00    +0.012 C 
ENDBRANCH  30  32
ENDBRANCH   1  30
TORSDOF 6
