REMARK  Name = DB11984
REMARK                            x       y       z     vdW  Elec       q    Type
REMARK                         _______ _______ _______ _____ _____    ______ ____
ROOT
ATOM      1  C   LIG    1        0.041   0.270   0.471  0.00  0.00    +0.221 C 
ENDROOT
BRANCH   1   6
ATOM      2  C   LIG    1       -2.517   1.428  -3.268  0.00  0.00    +0.080 C 
ATOM      3  C   LIG    1       -1.933   0.140  -2.626  0.00  0.00    +0.041 C 
ATOM      4  C   LIG    1       -2.431  -0.108  -1.189  0.00  0.00    +0.109 C 
ATOM      5  N   LIG    1       -2.170   1.118  -0.419  0.00  0.00    -0.299 N 
ATOM      6  C   LIG    1       -0.994   1.396   0.215  0.00  0.00    +0.246 C 
ATOM      7  O   LIG    1       -0.756   2.516   0.678  0.00  0.00    -0.273 OA
ATOM      8  C   LIG    1       -3.053   2.217  -0.842  0.00  0.00    +0.109 C 
ATOM      9  C   LIG    1       -2.617   2.623  -2.274  0.00  0.00    +0.041 C 
BRANCH   2  11
ATOM     10  C   LIG    1       -0.477   2.001  -4.650  0.00  0.00    +0.111 C 
ATOM     11  N   LIG    1       -1.942   1.761  -4.587  0.00  0.00    -0.282 N 
ATOM     12  C   LIG    1       -2.782   1.918  -5.662  0.00  0.00    +0.302 C 
ATOM     13  O   LIG    1       -4.005   2.037  -5.585  0.00  0.00    -0.253 OA
ATOM     14  N   LIG    1       -2.193   1.994  -6.882  0.00  0.00    -0.299 N 
ATOM     15  H   LIG    1       -2.788   2.264  -7.652  0.00  0.00    +0.150 HD
ATOM     16  C   LIG    1       -0.751   1.913  -7.144  0.00  0.00    +0.107 C 
ATOM     17  C   LIG    1       -0.040   2.618  -5.986  0.00  0.00    +0.038 C 
ENDBRANCH   2  11
ENDBRANCH   1   6
BRANCH   1  18
ATOM     18  O   LIG    1        0.411   0.282   1.840  0.00  0.00    -0.381 OA
ATOM     19  H   LIG    1       -0.353   0.042   2.368  0.00  0.00    +0.210 HD
ENDBRANCH   1  18
BRANCH   1  20
ATOM     20  C   LIG    1        1.316   0.494  -0.378  0.00  0.00    +0.212 C 
BRANCH  20  21
ATOM     21  S   LIG    1        2.220  -1.135  -0.721  0.00  0.00    -0.000 S 
ATOM     22  O   LIG    1        2.176  -1.981   0.478  0.00  0.00    -0.169 OA
ATOM     23  O   LIG    1        3.504  -0.822  -1.358  0.00  0.00    -0.169 OA
BRANCH  21  24
ATOM     24  C   LIG    1        1.190  -1.896  -1.972  0.00  0.00    +0.089 A 
ATOM     25  C   LIG    1        1.320  -1.490  -3.301  0.00  0.00    +0.035 A 
ATOM     26  C   LIG    1        0.472  -2.023  -4.301  0.00  0.00    -0.016 A 
ATOM     27  C   LIG    1        0.557  -1.604  -5.652  0.00  0.00    +0.010 A 
ATOM     28  C   LIG    1       -0.306  -2.132  -6.608  0.00  0.00    +0.020 A 
ATOM     29  C   LIG    1       -1.261  -3.080  -6.253  0.00  0.00    +0.042 A 
ATOM     30 CL   LIG    1       -2.324  -3.716  -7.454  0.00  0.00    -0.084 Cl
ATOM     31  C   LIG    1       -1.366  -3.518  -4.935  0.00  0.00    +0.028 A 
ATOM     32  C   LIG    1       -0.507  -2.997  -3.936  0.00  0.00    -0.016 A 
ATOM     33  C   LIG    1       -0.600  -3.407  -2.583  0.00  0.00    +0.010 A 
ATOM     34  C   LIG    1        0.240  -2.853  -1.620  0.00  0.00    +0.027 A 
ENDBRANCH  21  24
ENDBRANCH  20  21
ENDBRANCH   1  20
TORSDOF 6
