REMARK  Name = DB11180
REMARK                            x       y       z     vdW  Elec       q    Type
REMARK                         _______ _______ _______ _____ _____    ______ ____
ROOT
ATOM      1  C   LIG    1        0.198  -0.395   0.253  0.00  0.00    +0.035 C 
ENDROOT
BRANCH   1   2
ATOM      2  P   LIG    1       -0.417   1.293  -0.326  0.00  0.00    -0.101 P 
BRANCH   2   3
ATOM      3  C   LIG    1       -2.218   1.097   0.217  0.00  0.00    +0.058 C 
BRANCH   3   4
ATOM      4  C   LIG    1       -3.213   2.038  -0.476  0.00  0.00    +0.164 C 
BRANCH   4   5
ATOM      5  O   LIG    1       -3.102   1.883  -1.886  0.00  0.00    -0.380 OA
BRANCH   5   7
ATOM      6  C   LIG    1       -3.367   4.191  -2.697  0.00  0.00    +0.034 C 
ATOM      7  C   LIG    1       -3.918   2.756  -2.660  0.00  0.00    +0.156 C 
ENDBRANCH   5   7
ENDBRANCH   4   5
ENDBRANCH   3   4
ENDBRANCH   2   3
BRANCH   2   8
ATOM      8  C   LIG    1        0.324   2.340   1.068  0.00  0.00    +0.058 C 
BRANCH   8   9
ATOM      9  C   LIG    1        0.054   3.849   1.015  0.00  0.00    +0.164 C 
BRANCH   9  10
ATOM     10  O   LIG    1       -1.319   4.114   1.261  0.00  0.00    -0.380 OA
BRANCH  10  11
ATOM     11  C   LIG    1       -1.655   5.492   1.187  0.00  0.00    +0.156 C 
ATOM     12  C   LIG    1       -3.138   5.663   1.530  0.00  0.00    +0.034 C 
ENDBRANCH  10  11
ENDBRANCH   9  10
ENDBRANCH   8   9
ENDBRANCH   2   8
ENDBRANCH   1   2
BRANCH   1  13
ATOM     13  C   LIG    1        1.702  -0.611   0.044  0.00  0.00    +0.035 C 
BRANCH  13  14
ATOM     14  P   LIG    1        2.270  -2.409   0.212  0.00  0.00    -0.101 P 
BRANCH  14  15
ATOM     15  C   LIG    1        2.043  -2.692   2.069  0.00  0.00    +0.058 C 
BRANCH  15  16
ATOM     16  C   LIG    1        0.804  -3.508   2.467  0.00  0.00    +0.164 C 
BRANCH  16  17
ATOM     17  O   LIG    1       -0.371  -2.854   2.016  0.00  0.00    -0.380 OA
BRANCH  17  18
ATOM     18  C   LIG    1       -1.575  -3.545   2.309  0.00  0.00    +0.156 C 
ATOM     19  C   LIG    1       -2.743  -2.740   1.732  0.00  0.00    +0.034 C 
ENDBRANCH  17  18
ENDBRANCH  16  17
ENDBRANCH  15  16
ENDBRANCH  14  15
BRANCH  14  20
ATOM     20  C   LIG    1        4.138  -2.119   0.189  0.00  0.00    +0.058 C 
BRANCH  20  21
ATOM     21  C   LIG    1        4.653  -1.743  -1.206  0.00  0.00    +0.164 C 
BRANCH  21  22
ATOM     22  O   LIG    1        6.061  -1.564  -1.145  0.00  0.00    -0.380 OA
BRANCH  22  23
ATOM     23  C   LIG    1        6.643  -1.209  -2.392  0.00  0.00    +0.156 C 
ATOM     24  C   LIG    1        8.154  -1.049  -2.206  0.00  0.00    +0.034 C 
ENDBRANCH  22  23
ENDBRANCH  21  22
ENDBRANCH  20  21
ENDBRANCH  14  20
ENDBRANCH  13  14
ENDBRANCH   1  13
TORSDOF 19
