REMARK  Name = DB11968
REMARK                            x       y       z     vdW  Elec       q    Type
REMARK                         _______ _______ _______ _____ _____    ______ ____
ROOT
ATOM      1  N   LIG    1        1.348  -0.109   0.091  0.00  0.00    -0.297 NA
ATOM      2  C   LIG    1        1.957  -0.551  -1.171  0.00  0.00    +0.100 C 
ATOM      3  C   LIG    1        3.498  -0.463  -1.089  0.00  0.00    +0.100 C 
ATOM      4  N   LIG    1        4.003  -1.342  -0.025  0.00  0.00    -0.297 NA
ATOM      5  C   LIG    1        3.405  -0.902   1.245  0.00  0.00    +0.100 C 
ATOM      6  C   LIG    1        1.859  -0.963   1.175  0.00  0.00    +0.100 C 
ENDROOT
BRANCH   1   7
ATOM      7  C   LIG    1       -0.117  -0.144  -0.037  0.00  0.00    +0.120 C 
BRANCH   7   8
ATOM      8  C   LIG    1       -0.893   0.578   1.097  0.00  0.00    +0.159 C 
BRANCH   8  19
ATOM      9  C   LIG    1       -1.383   3.299  -0.109  0.00  0.00    +0.044 C 
ATOM     10  C   LIG    1       -2.519   2.295   0.061  0.00  0.00    -0.038 A 
ATOM     11  C   LIG    1       -3.815   2.627  -0.356  0.00  0.00    +0.007 A 
ATOM     12  C   LIG    1       -4.379   3.876  -0.970  0.00  0.00    +0.269 C 
ATOM     13  O   LIG    1       -5.757   3.603  -1.163  0.00  0.00    -0.456 OA
ATOM     14  C   LIG    1       -6.085   2.357  -0.750  0.00  0.00    +0.340 C 
ATOM     15  O   LIG    1       -7.228   1.911  -0.826  0.00  0.00    -0.245 OA
ATOM     16  C   LIG    1       -4.854   1.725  -0.235  0.00  0.00    +0.066 A 
ATOM     17  C   LIG    1       -4.640   0.458   0.300  0.00  0.00    +0.016 A 
ATOM     18  C   LIG    1       -3.358   0.109   0.719  0.00  0.00    +0.007 A 
ATOM     19  C   LIG    1       -2.288   1.015   0.618  0.00  0.00    -0.015 A 
ENDBRANCH   8  19
BRANCH   8  20
ATOM     20  O   LIG    1       -0.945  -0.217   2.269  0.00  0.00    -0.386 OA
ATOM     21  H   LIG    1       -0.065  -0.561   2.440  0.00  0.00    +0.210 HD
ENDBRANCH   8  20
ENDBRANCH   7   8
ENDBRANCH   1   7
BRANCH   4  22
ATOM     22  C   LIG    1        5.474  -1.301   0.003  0.00  0.00    +0.120 C 
BRANCH  22  23
ATOM     23  C   LIG    1        6.132  -2.561   0.625  0.00  0.00    +0.159 C 
BRANCH  23  24
ATOM     24  C   LIG    1        7.620  -2.638   0.245  0.00  0.00    -0.015 A 
ATOM     25  C   LIG    1        8.069  -3.366  -0.882  0.00  0.00    -0.038 A 
ATOM     26  C   LIG    1        7.089  -4.105  -1.787  0.00  0.00    +0.044 C 
ATOM     27  C   LIG    1        9.440  -3.387  -1.172  0.00  0.00    +0.007 A 
ATOM     28  C   LIG    1       10.220  -4.054  -2.266  0.00  0.00    +0.269 C 
ATOM     29  O   LIG    1       11.573  -3.702  -2.024  0.00  0.00    -0.456 OA
ATOM     30  C   LIG    1       11.698  -2.912  -0.932  0.00  0.00    +0.340 C 
ATOM     31  O   LIG    1       12.783  -2.486  -0.541  0.00  0.00    -0.245 OA
ATOM     32  C   LIG    1       10.344  -2.705  -0.381  0.00  0.00    +0.066 A 
ATOM     33  C   LIG    1        9.918  -1.976   0.725  0.00  0.00    +0.016 A 
ATOM     34  C   LIG    1        8.558  -1.943   1.029  0.00  0.00    +0.007 A 
ENDBRANCH  23  24
BRANCH  23  35
ATOM     35  O   LIG    1        5.927  -2.623   2.025  0.00  0.00    -0.386 OA
ATOM     36  H   LIG    1        4.997  -2.462   2.201  0.00  0.00    +0.210 HD
ENDBRANCH  23  35
ENDBRANCH  22  23
ENDBRANCH   4  22
TORSDOF 8
