REMARK  Name = DB11886
REMARK                            x       y       z     vdW  Elec       q    Type
REMARK                         _______ _______ _______ _____ _____    ______ ____
ROOT
ATOM      1  C   LIG    1        1.938   1.496  -0.208  0.00  0.00    +0.133 A 
ATOM      2  C   LIG    1        3.144   1.726  -0.903  0.00  0.00    +0.088 A 
ATOM      3  C   LIG    1        3.797   2.956  -0.731  0.00  0.00    +0.128 A 
ATOM      4  N   LIG    1        3.285   3.927   0.066  0.00  0.00    -0.221 NA
ATOM      5  C   LIG    1        2.125   3.637   0.703  0.00  0.00    +0.225 A 
ATOM      6  N   LIG    1        1.436   2.474   0.609  0.00  0.00    -0.220 NA
ENDROOT
BRANCH   1  10
ATOM      7  C   LIG    1       -0.086   0.070  -0.120  0.00  0.00    +0.312 C 
ATOM      8  N   LIG    1       -0.570  -1.185  -0.293  0.00  0.00    -0.266 N 
ATOM      9  H   LIG    1        0.062  -1.884  -0.656  0.00  0.00    +0.156 HD
ATOM     10  N   LIG    1        1.265   0.233  -0.347  0.00  0.00    -0.243 N 
ATOM     11  C   LIG    1        2.108  -0.928  -0.728  0.00  0.00    +0.141 C 
ATOM     12  O   LIG    1       -0.845   0.994   0.186  0.00  0.00    -0.252 OA
BRANCH   8  13
ATOM     13  C   LIG    1       -1.906  -1.595  -0.122  0.00  0.00    +0.079 A 
ATOM     14  C   LIG    1       -2.573  -2.146  -1.228  0.00  0.00    +0.105 A 
ATOM     15 CL   LIG    1       -1.772  -2.292  -2.764  0.00  0.00    -0.078 Cl
ATOM     16  C   LIG    1       -3.901  -2.574  -1.116  0.00  0.00    +0.144 A 
ATOM     17  C   LIG    1       -4.548  -2.461   0.124  0.00  0.00    +0.094 A 
ATOM     18  C   LIG    1       -3.889  -1.942   1.249  0.00  0.00    +0.144 A 
ATOM     19  C   LIG    1       -2.560  -1.516   1.123  0.00  0.00    +0.105 A 
ATOM     20 CL   LIG    1       -1.735  -0.954   2.546  0.00  0.00    -0.078 Cl
BRANCH  16  21
ATOM     21  O   LIG    1       -4.502  -3.091  -2.251  0.00  0.00    -0.493 OA
ATOM     22  C   LIG    1       -5.853  -3.535  -2.194  0.00  0.00    +0.277 C 
ENDBRANCH  16  21
BRANCH  18  23
ATOM     23  O   LIG    1       -4.476  -1.836   2.498  0.00  0.00    -0.493 OA
ATOM     24  C   LIG    1       -5.814  -2.282   2.691  0.00  0.00    +0.277 C 
ENDBRANCH  18  23
ENDBRANCH   8  13
ENDBRANCH   1  10
BRANCH   3  25
ATOM     25  N   LIG    1        4.994   3.272  -1.391  0.00  0.00    -0.299 N 
ATOM     26  H   LIG    1        5.311   4.222  -1.261  0.00  0.00    +0.154 HD
BRANCH  25  27
ATOM     27  C   LIG    1        5.868   2.445  -2.114  0.00  0.00    +0.032 A 
ATOM     28  C   LIG    1        6.407   2.917  -3.309  0.00  0.00    +0.025 A 
ATOM     29  C   LIG    1        7.275   2.116  -4.048  0.00  0.00    +0.025 A 
ATOM     30  C   LIG    1        7.628   0.836  -3.596  0.00  0.00    +0.030 A 
ATOM     31  C   LIG    1        7.099   0.384  -2.381  0.00  0.00    +0.025 A 
ATOM     32  C   LIG    1        6.229   1.181  -1.642  0.00  0.00    +0.025 A 
BRANCH  30  33
ATOM     33  N   LIG    1        8.484   0.014  -4.327  0.00  0.00    -0.327 N 
ATOM     34  C   LIG    1        8.742   0.227  -5.763  0.00  0.00    +0.120 C 
ATOM     35  C   LIG    1        9.326  -1.013  -6.479  0.00  0.00    +0.103 C 
ATOM     36  N   LIG    1       10.554  -1.469  -5.822  0.00  0.00    -0.300 NA
ATOM     37  C   LIG    1       10.210  -1.828  -4.445  0.00  0.00    +0.103 C 
ATOM     38  C   LIG    1        9.652  -0.608  -3.676  0.00  0.00    +0.120 C 
BRANCH  36  39
ATOM     39  C   LIG    1       11.145  -2.629  -6.497  0.00  0.00    +0.081 C 
ATOM     40  C   LIG    1       11.718  -2.289  -7.884  0.00  0.00    +0.020 C 
ENDBRANCH  36  39
ENDBRANCH  30  33
ENDBRANCH  25  27
ENDBRANCH   3  25
TORSDOF 8
