REMARK  Name = DB11952
REMARK                            x       y       z     vdW  Elec       q    Type
REMARK                         _______ _______ _______ _____ _____    ______ ____
ROOT
ATOM      1  C   LIG    1        1.560  -0.060  -0.225  0.00  0.00    +0.048 A 
ATOM      2  N   LIG    1        1.974  -0.043   1.115  0.00  0.00    -0.279 N 
ATOM      3  C   LIG    1        3.297  -0.143   1.514  0.00  0.00    +0.265 A 
ATOM      4  O   LIG    1        3.604  -0.287   2.703  0.00  0.00    -0.267 OA
ATOM      5  C   LIG    1        4.324  -0.047   0.376  0.00  0.00    +0.065 A 
ATOM      6  C   LIG    1        5.716   0.042   0.631  0.00  0.00    +0.054 A 
ATOM      7 CL   LIG    1        6.423   0.059   2.216  0.00  0.00    -0.083 Cl
ATOM      8  C   LIG    1        6.612   0.133  -0.438  0.00  0.00    +0.021 A 
ATOM      9  C   LIG    1        6.159   0.145  -1.753  0.00  0.00    +0.002 A 
ATOM     10  C   LIG    1        4.797   0.068  -2.017  0.00  0.00    +0.009 A 
ATOM     11  C   LIG    1        3.888  -0.029  -0.963  0.00  0.00    -0.010 A 
ATOM     12  C   LIG    1        2.455  -0.076  -1.235  0.00  0.00    +0.032 A 
ENDROOT
BRANCH   2  13
ATOM     13  C   LIG    1        1.021   0.208   2.133  0.00  0.00    +0.050 A 
ATOM     14  C   LIG    1        0.405  -0.862   2.794  0.00  0.00    +0.026 A 
ATOM     15  C   LIG    1       -0.544  -0.608   3.781  0.00  0.00    +0.002 A 
ATOM     16  C   LIG    1       -0.870   0.707   4.106  0.00  0.00    +0.000 A 
ATOM     17  C   LIG    1       -0.252   1.775   3.458  0.00  0.00    +0.002 A 
ATOM     18  C   LIG    1        0.698   1.528   2.471  0.00  0.00    +0.026 A 
ENDBRANCH   2  13
BRANCH   1  20
ATOM     19  C   LIG    1       -0.331  -0.936  -1.804  0.00  0.00    +0.034 C 
ATOM     20  C   LIG    1        0.043  -0.171  -0.515  0.00  0.00    +0.116 C 
BRANCH  20  21
ATOM     21  N   LIG    1       -0.636   1.124  -0.494  0.00  0.00    -0.319 N 
ATOM     22  H   LIG    1       -0.211   1.891  -0.995  0.00  0.00    +0.148 HD
BRANCH  21  23
ATOM     23  C   LIG    1       -1.867   1.343   0.150  0.00  0.00    +0.150 A 
ATOM     24  N   LIG    1       -2.511   0.321   0.785  0.00  0.00    -0.219 NA
ATOM     25  C   LIG    1       -3.680   0.609   1.417  0.00  0.00    +0.225 A 
ATOM     26  N   LIG    1       -4.310   1.812   1.502  0.00  0.00    -0.216 NA
ATOM     27  C   LIG    1       -3.648   2.783   0.865  0.00  0.00    +0.163 A 
ATOM     28  N   LIG    1       -3.962   4.114   0.734  0.00  0.00    -0.329 N 
ATOM     29  H   LIG    1       -4.758   4.625   1.090  0.00  0.00    +0.168 HD
ATOM     30  C   LIG    1       -2.950   4.678  -0.009  0.00  0.00    +0.198 A 
ATOM     31  N   LIG    1       -2.014   3.832  -0.367  0.00  0.00    -0.231 NA
ATOM     32  C   LIG    1       -2.425   2.635   0.165  0.00  0.00    +0.147 A 
ENDBRANCH  21  23
ENDBRANCH  20  21
ENDBRANCH   1  20
TORSDOF 4
