REMARK  Name = DB11965
REMARK                            x       y       z     vdW  Elec       q    Type
REMARK                         _______ _______ _______ _____ _____    ______ ____
ROOT
ATOM      1  C   LIG    1        1.172  -0.464  -0.000  0.00  0.00    +0.082 C 
ENDROOT
BRANCH   1   2
ATOM      2  C   LIG    1       -0.363  -0.427   0.031  0.00  0.00    +0.232 C 
BRANCH   2   3
ATOM      3  O   LIG    1       -0.801   0.928   0.058  0.00  0.00    -0.488 OA
BRANCH   3   5
ATOM      4  C   LIG    1       -2.526   2.551   0.180  0.00  0.00    +0.162 A 
ATOM      5  C   LIG    1       -2.155   1.208   0.137  0.00  0.00    +0.164 A 
ATOM      6  C   LIG    1       -3.155   0.227   0.174  0.00  0.00    +0.075 A 
ATOM      7  C   LIG    1       -4.521   0.528   0.267  0.00  0.00    +0.055 A 
ATOM      8  N   LIG    1       -5.326  -0.582   0.275  0.00  0.00    -0.359 N 
ATOM      9  H   LIG    1       -4.888  -1.450   0.121  0.00  0.00    +0.165 HD
ATOM     10  C   LIG    1       -6.689  -0.602   0.476  0.00  0.00    +0.105 A 
ATOM     11  C   LIG    1       -7.538   0.392   0.773  0.00  0.00    +0.042 A 
ATOM     12  N   LIG    1       -7.315   1.731   0.956  0.00  0.00    -0.306 N 
ATOM     13  C   LIG    1       -6.317   2.469   0.392  0.00  0.00    +0.261 A 
ATOM     14  O   LIG    1       -6.517   3.624  -0.003  0.00  0.00    -0.267 OA
ATOM     15  C   LIG    1       -8.557   2.401   1.355  0.00  0.00    +0.155 C 
ATOM     16  C   LIG    1       -9.368   1.301   1.973  0.00  0.00    -0.051 C 
ATOM     17  C   LIG    1      -10.148   1.318   3.065  0.00  0.00    +0.010 C 
ATOM     18  C   LIG    1       -9.014   0.165   1.058  0.00  0.00    +0.087 C 
ATOM     19  C   LIG    1       -4.896   1.897   0.321  0.00  0.00    +0.066 A 
ATOM     20  C   LIG    1       -3.885   2.877   0.267  0.00  0.00    +0.064 A 
BRANCH   4  22
ATOM     21  C   LIG    1       -1.820   4.875   0.170  0.00  0.00    +0.277 C 
ATOM     22  O   LIG    1       -1.506   3.487   0.134  0.00  0.00    -0.491 OA
ENDBRANCH   4  22
ENDBRANCH   3   5
ENDBRANCH   2   3
ENDBRANCH   1   2
BRANCH   1  23
ATOM     23  C   LIG    1        1.718  -1.899  -0.032  0.00  0.00    +0.232 C 
BRANCH  23  24
ATOM     24  O   LIG    1        3.142  -1.860  -0.057  0.00  0.00    -0.488 OA
BRANCH  24  25
ATOM     25  C   LIG    1        3.858  -3.043  -0.137  0.00  0.00    +0.164 A 
ATOM     26  C   LIG    1        5.247  -2.945  -0.180  0.00  0.00    +0.162 A 
ATOM     27  C   LIG    1        6.008  -4.118  -0.267  0.00  0.00    +0.064 A 
ATOM     28  C   LIG    1        5.420  -5.398  -0.321  0.00  0.00    +0.066 A 
ATOM     29  C   LIG    1        6.433  -6.548  -0.393  0.00  0.00    +0.261 A 
ATOM     30  N   LIG    1        6.070  -7.734  -0.957  0.00  0.00    -0.306 N 
ATOM     31  C   LIG    1        4.883  -8.390  -0.772  0.00  0.00    +0.042 A 
ATOM     32  C   LIG    1        3.662  -7.921  -0.476  0.00  0.00    +0.105 A 
ATOM     33  N   LIG    1        3.227  -6.630  -0.275  0.00  0.00    -0.359 N 
ATOM     34  H   LIG    1        2.262  -6.506  -0.122  0.00  0.00    +0.165 HD
ATOM     35  C   LIG    1        5.161  -9.858  -1.057  0.00  0.00    +0.087 C 
ATOM     36  C   LIG    1        6.349  -9.813  -1.973  0.00  0.00    -0.051 C 
ATOM     37  C   LIG    1        6.624 -10.543  -3.066  0.00  0.00    +0.010 C 
ATOM     38  C   LIG    1        7.116  -8.681  -1.356  0.00  0.00    +0.155 C 
ATOM     39  O   LIG    1        7.590  -6.350   0.002  0.00  0.00    -0.267 OA
ATOM     40  C   LIG    1        4.005  -5.500  -0.268  0.00  0.00    +0.055 A 
ATOM     41  C   LIG    1        3.266  -4.313  -0.174  0.00  0.00    +0.075 A 
BRANCH  26  42
ATOM     42  O   LIG    1        5.790  -1.672  -0.134  0.00  0.00    -0.491 OA
ATOM     43  C   LIG    1        7.203  -1.505  -0.168  0.00  0.00    +0.277 C 
ENDBRANCH  26  42
ENDBRANCH  24  25
ENDBRANCH  23  24
ENDBRANCH   1  23
TORSDOF 8
