REMARK  Name = DB11342
REMARK                            x       y       z     vdW  Elec       q    Type
REMARK                         _______ _______ _______ _____ _____    ______ ____
ROOT
ATOM      1  O   HOH    1        0.000   0.000   0.000  0.00  0.00    -0.410 OA
ATOM      2  H   HOH    0        0.000   0.000   0.000  0.00  0.00    +0.205 HD
ATOM      3  H   HOH    0        0.000   0.000   0.000  0.00  0.00    +0.205 HD
ENDROOT
TORSDOF 0
