REMARK  Name = DB11763
REMARK                            x       y       z     vdW  Elec       q    Type
REMARK                         _______ _______ _______ _____ _____    ______ ____
ROOT
ATOM      1  C   LIG    1        1.266  -0.194   0.104  0.00  0.00    +0.076 A 
ATOM      2  N   LIG    1        1.794   0.970   0.579  0.00  0.00    -0.214 NA
ATOM      3  C   LIG    1        3.144   1.045   0.727  0.00  0.00    +0.220 A 
ATOM      4  N   LIG    1        4.009   0.036   0.449  0.00  0.00    -0.223 NA
ATOM      5  C   LIG    1        3.470  -1.116  -0.026  0.00  0.00    +0.116 A 
ATOM      6  C   LIG    1        2.096  -1.278  -0.219  0.00  0.00    +0.048 A 
ENDROOT
BRANCH   1   8
ATOM      7  C   LIG    1       -0.919  -1.442   0.065  0.00  0.00    +0.011 A 
ATOM      8  C   LIG    1       -0.220  -0.235  -0.060  0.00  0.00    +0.001 A 
ATOM      9  C   LIG    1       -0.950   0.929  -0.339  0.00  0.00    +0.011 A 
ATOM     10  C   LIG    1       -2.333   0.891  -0.482  0.00  0.00    +0.014 A 
ATOM     11  C   LIG    1       -3.030  -0.319  -0.348  0.00  0.00    +0.037 A 
ATOM     12  C   LIG    1       -2.304  -1.485  -0.078  0.00  0.00    +0.014 A 
BRANCH  11  13
ATOM     13  C   LIG    1       -4.534  -0.387  -0.498  0.00  0.00    +0.245 C 
ATOM     14  N   LIG    1       -5.208   0.767  -0.334  0.00  0.00    -0.298 N 
ATOM     15  H   LIG    1       -4.682   1.618  -0.198  0.00  0.00    +0.150 HD
ATOM     16  O   LIG    1       -5.100  -1.458  -0.726  0.00  0.00    -0.270 OA
BRANCH  14  17
ATOM     17  C   LIG    1       -6.655   0.912  -0.466  0.00  0.00    +0.223 C 
BRANCH  17  18
ATOM     18  C   LIG    1       -7.134   0.665  -1.837  0.00  0.00    +0.081 C 
ATOM     19  N   LIG    1       -7.510   0.471  -2.914  0.00  0.00    -0.195 NA
ENDBRANCH  17  18
ENDBRANCH  14  17
ENDBRANCH  11  13
ENDBRANCH   1   8
BRANCH   3  20
ATOM     20  N   LIG    1        3.723   2.219   1.235  0.00  0.00    -0.284 N 
ATOM     21  H   LIG    1        4.713   2.143   1.420  0.00  0.00    +0.155 HD
BRANCH  20  22
ATOM     22  C   LIG    1        3.180   3.490   1.493  0.00  0.00    +0.034 A 
ATOM     23  C   LIG    1        3.765   4.261   2.497  0.00  0.00    +0.025 A 
ATOM     24  C   LIG    1        3.266   5.527   2.789  0.00  0.00    +0.025 A 
ATOM     25  C   LIG    1        2.179   6.055   2.079  0.00  0.00    +0.030 A 
ATOM     26  C   LIG    1        1.613   5.280   1.055  0.00  0.00    +0.025 A 
ATOM     27  C   LIG    1        2.109   4.013   0.762  0.00  0.00    +0.025 A 
BRANCH  25  28
ATOM     28  N   LIG    1        1.694   7.324   2.397  0.00  0.00    -0.326 N 
ATOM     29  C   LIG    1        0.788   8.051   1.488  0.00  0.00    +0.133 C 
ATOM     30  C   LIG    1        0.659   9.550   1.831  0.00  0.00    +0.178 C 
ATOM     31  O   LIG    1        0.254   9.705   3.183  0.00  0.00    -0.377 OA
ATOM     32  C   LIG    1        1.187   9.126   4.082  0.00  0.00    +0.178 C 
ATOM     33  C   LIG    1        1.331   7.616   3.797  0.00  0.00    +0.133 C 
ENDBRANCH  25  28
ENDBRANCH  20  22
ENDBRANCH   3  20
TORSDOF 7
