REMARK  Name = DB11755
REMARK                            x       y       z     vdW  Elec       q    Type
REMARK                         _______ _______ _______ _____ _____    ______ ____
ROOT
ATOM      1  C   LIG    1        1.530  -0.002  -0.058  0.00  0.00    -0.040 A 
ATOM      2  C   LIG    1        2.247  -0.188   1.122  0.00  0.00    +0.049 A 
ATOM      3  C   LIG    1        3.640  -0.205   1.101  0.00  0.00    +0.129 A 
ATOM      4  O   LIG    1        4.235  -0.389   2.337  0.00  0.00    -0.486 OA
ATOM      5  C   LIG    1        5.590   0.062   2.504  0.00  0.00    +0.109 C 
ATOM      6  C   LIG    1        6.007  -0.546   3.860  0.00  0.00    +0.055 C 
ATOM      7  C   LIG    1        5.638   1.612   2.509  0.00  0.00    +0.055 C 
ATOM      8  C   LIG    1        6.407  -0.578   1.339  0.00  0.00    +0.044 C 
ATOM      9  C   LIG    1        7.943  -0.411   1.383  0.00  0.00    +0.012 C 
ATOM     10  C   LIG    1        8.626  -1.354   0.364  0.00  0.00    +0.030 C 
ATOM     11  C   LIG    1        7.876  -1.419  -0.971  0.00  0.00    -0.076 C 
ATOM     12  C   LIG    1        8.556  -2.191  -2.088  0.00  0.00    +0.039 C 
ATOM     13  C   LIG    1        6.643  -0.882  -1.128  0.00  0.00    -0.019 C 
ATOM     14  C   LIG    1        5.903  -0.082  -0.048  0.00  0.00    +0.056 C 
ATOM     15  C   LIG    1        4.364  -0.076  -0.105  0.00  0.00    +0.043 A 
ATOM     16  C   LIG    1        3.618   0.157  -1.278  0.00  0.00    +0.124 A 
ATOM     17  C   LIG    1        2.223   0.178  -1.255  0.00  0.00    +0.049 A 
ENDROOT
BRANCH  16  18
ATOM     18  O   LIG    1        4.230   0.411  -2.478  0.00  0.00    -0.506 OA
ATOM     19  H   LIG    1        3.604   0.563  -3.189  0.00  0.00    +0.292 HD
ENDBRANCH  16  18
BRANCH   1  20
ATOM     20  C   LIG    1        0.009   0.030  -0.038  0.00  0.00    +0.035 C 
BRANCH  20  22
ATOM     21  C   LIG    1       -2.084   1.486   0.199  0.00  0.00    +0.004 C 
ATOM     22  C   LIG    1       -0.550   1.448   0.173  0.00  0.00    +0.001 C 
ENDBRANCH  20  22
ENDBRANCH   1  20
TORSDOF 3
