REMARK  Name = DB11745
REMARK                            x       y       z     vdW  Elec       q    Type
REMARK                         _______ _______ _______ _____ _____    ______ ____
ROOT
ATOM      1  C   LIG    1        5.602  -0.694   1.418  0.00  0.00    +0.152 A 
ATOM      2  N   LIG    1        6.351   0.419   1.682  0.00  0.00    -0.218 NA
ATOM      3  C   LIG    1        7.671   0.264   1.956  0.00  0.00    +0.225 A 
ATOM      4  N   LIG    1        8.376  -0.893   2.011  0.00  0.00    -0.216 NA
ATOM      5  C   LIG    1        7.630  -1.978   1.765  0.00  0.00    +0.170 A 
ATOM      6  N   LIG    1        8.018  -3.310   1.714  0.00  0.00    -0.277 N 
ATOM      7  C   LIG    1        6.854  -4.015   1.421  0.00  0.00    +0.149 A 
ATOM      8  N   LIG    1        5.805  -3.244   1.259  0.00  0.00    -0.222 NA
ATOM      9  C   LIG    1        6.242  -1.964   1.462  0.00  0.00    +0.149 A 
ENDROOT
BRANCH   6  10
ATOM     10  C   LIG    1        9.314  -3.835   1.940  0.00  0.00    +0.050 A 
ATOM     11  C   LIG    1        9.842  -4.790   1.063  0.00  0.00    +0.028 A 
ATOM     12  C   LIG    1       11.127  -5.285   1.266  0.00  0.00    +0.022 A 
ATOM     13  C   LIG    1       11.889  -4.816   2.335  0.00  0.00    +0.041 A 
ATOM     14 CL   LIG    1       13.483  -5.430   2.584  0.00  0.00    -0.084 Cl
ATOM     15  C   LIG    1       11.376  -3.852   3.201  0.00  0.00    +0.022 A 
ATOM     16  C   LIG    1       10.091  -3.355   3.001  0.00  0.00    +0.028 A 
ENDBRANCH   6  10
BRANCH   7  17
ATOM     17  C   LIG    1        6.748  -5.506   1.328  0.00  0.00    +0.036 A 
ATOM     18  C   LIG    1        6.243  -6.160   0.189  0.00  0.00    +0.052 A 
ATOM     19 CL   LIG    1        5.739  -5.284  -1.216  0.00  0.00    -0.083 Cl
ATOM     20  C   LIG    1        6.160  -7.555   0.166  0.00  0.00    +0.021 A 
ATOM     21  C   LIG    1        6.574  -8.305   1.265  0.00  0.00    +0.001 A 
ATOM     22  C   LIG    1        7.074  -7.663   2.395  0.00  0.00    +0.001 A 
ATOM     23  C   LIG    1        7.159  -6.272   2.427  0.00  0.00    +0.013 A 
ENDBRANCH   7  17
BRANCH   1  27
ATOM     24  C   LIG    1        1.454  -0.012   0.046  0.00  0.00    +0.013 C 
ATOM     25  C   LIG    1        1.835  -1.367   0.682  0.00  0.00    +0.016 C 
ATOM     26  C   LIG    1        3.364  -1.611   0.694  0.00  0.00    +0.105 C 
ATOM     27  N   LIG    1        4.232  -0.503   1.161  0.00  0.00    -0.313 N 
ATOM     28  C   LIG    1        3.710   0.858   0.870  0.00  0.00    +0.105 C 
ATOM     29  C   LIG    1        2.177   1.042   0.911  0.00  0.00    +0.016 C 
BRANCH  24  30
ATOM     30  C   LIG    1        1.767   0.129  -1.480  0.00  0.00    +0.200 C 
ATOM     31  N   LIG    1        2.077  -0.962  -2.189  0.00  0.00    -0.330 N 
ATOM     32  H   LIG    1        2.284  -0.881  -3.175  0.00  0.00    +0.145 HD
ATOM     33  H   LIG    1        2.124  -1.867  -1.746  0.00  0.00    +0.145 HD
ATOM     34  O   LIG    1        1.736   1.233  -2.023  0.00  0.00    -0.278 OA
ENDBRANCH  24  30
BRANCH  24  35
ATOM     35  N   LIG    1       -0.073   0.144   0.281  0.00  0.00    +0.388 N 
ATOM     36  H   LIG    1       -0.533  -0.641  -0.159  0.00  0.00    -0.084 HD
ATOM     37  H   LIG    1       -0.225   0.051   1.275  0.00  0.00    -0.084 HD
BRANCH  35  39
ATOM     38  C   LIG    1       -2.250   1.387   0.307  0.00  0.00    -0.017 C 
ATOM     39  C   LIG    1       -0.793   1.432  -0.171  0.00  0.00    -0.085 C 
ENDBRANCH  35  39
ENDBRANCH  24  35
ENDBRANCH   1  27
TORSDOF 6
