REMARK  Name = DB11865
REMARK                            x       y       z     vdW  Elec       q    Type
REMARK                         _______ _______ _______ _____ _____    ______ ____
ROOT
ATOM      1  C   LIG    1       -2.627   3.312  -1.047  0.00  0.00    +0.248 A 
ATOM      2  N   LIG    1       -2.501   4.661  -1.210  0.00  0.00    -0.198 NA
ATOM      3  C   LIG    1       -1.390   5.231  -0.688  0.00  0.00    +0.247 A 
ATOM      4  N   LIG    1       -0.384   4.615  -0.019  0.00  0.00    -0.155 NA
ATOM      5  N   LIG    1       -0.566   3.286   0.108  0.00  0.00    -0.229 N 
ATOM      6  C   LIG    1        0.291   2.424   0.738  0.00  0.00    +0.159 A 
ATOM      7  C   LIG    1       -0.241   1.136   0.657  0.00  0.00    +0.144 A 
ATOM      8  C   LIG    1       -1.456   1.173  -0.030  0.00  0.00    +0.023 A 
ATOM      9  C   LIG    1       -2.377   0.018  -0.352  0.00  0.00    +0.050 C 
ATOM     10  C   LIG    1       -1.660   2.539  -0.376  0.00  0.00    +0.134 A 
ENDROOT
BRANCH   1  11
ATOM     11  O   LIG    1       -3.729   2.640  -1.544  0.00  0.00    -0.433 OA
BRANCH  11  19
ATOM     12  C   LIG    1       -8.160   5.476  -6.800  0.00  0.00    +0.063 C 
ATOM     13  C   LIG    1       -7.336   4.957  -5.647  0.00  0.00    +0.014 A 
ATOM     14  N   LIG    1       -7.694   5.226  -4.348  0.00  0.00    -0.358 N 
ATOM     15  H   LIG    1       -8.511   5.775  -4.122  0.00  0.00    +0.166 HD
ATOM     16  C   LIG    1       -6.806   4.655  -3.460  0.00  0.00    +0.050 A 
ATOM     17  C   LIG    1       -6.770   4.660  -2.062  0.00  0.00    +0.030 A 
ATOM     18  C   LIG    1       -5.721   3.971  -1.453  0.00  0.00    +0.051 A 
ATOM     19  C   LIG    1       -4.741   3.309  -2.195  0.00  0.00    +0.166 A 
ATOM     20  C   LIG    1       -4.782   3.306  -3.591  0.00  0.00    +0.175 A 
ATOM     21  F   LIG    1       -3.831   2.659  -4.303  0.00  0.00    -0.201 F 
ATOM     22  C   LIG    1       -5.823   3.984  -4.245  0.00  0.00    +0.039 A 
ATOM     23  C   LIG    1       -6.183   4.193  -5.617  0.00  0.00    +0.033 A 
ENDBRANCH  11  19
ENDBRANCH   1  11
BRANCH   7  24
ATOM     24  O   LIG    1        0.311  -0.013   1.162  0.00  0.00    -0.486 OA
BRANCH  24  25
ATOM     25  C   LIG    1        1.731  -0.118   1.051  0.00  0.00    +0.273 C 
BRANCH  25  26
ATOM     26  C   LIG    1        2.133  -1.599   0.927  0.00  0.00    +0.211 C 
ATOM     27  C   LIG    1        1.662  -2.444   2.130  0.00  0.00    +0.055 C 
BRANCH  26  28
ATOM     28  O   LIG    1        1.594  -2.087  -0.303  0.00  0.00    -0.459 OA
BRANCH  28  29
ATOM     29  C   LIG    1        2.055  -3.207  -0.912  0.00  0.00    +0.293 C 
ATOM     30  O   LIG    1        2.995  -3.890  -0.485  0.00  0.00    -0.253 OA
BRANCH  29  31
ATOM     31  C   LIG    1        1.263  -3.458  -2.200  0.00  0.00    +0.033 C 
ATOM     32  C   LIG    1       -0.235  -3.719  -1.923  0.00  0.00    -0.003 C 
BRANCH  31  33
ATOM     33  N   LIG    1        1.898  -4.623  -2.913  0.00  0.00    +0.387 N 
ATOM     34  H   LIG    1        1.829  -5.443  -2.328  0.00  0.00    -0.089 HD
ATOM     35  H   LIG    1        1.416  -4.781  -3.787  0.00  0.00    -0.089 HD
ATOM     36  H   LIG    1        2.870  -4.411  -3.089  0.00  0.00    -0.089 HD
ENDBRANCH  31  33
ENDBRANCH  29  31
ENDBRANCH  28  29
ENDBRANCH  26  28
ENDBRANCH  25  26
ENDBRANCH  24  25
ENDBRANCH   7  24
TORSDOF 9
