REMARK  Name = DB11761
REMARK                            x       y       z     vdW  Elec       q    Type
REMARK                         _______ _______ _______ _____ _____    ______ ____
ROOT
ATOM      1  C   LIG    1        0.584   0.905  -0.952  0.00  0.00    +0.020 C 
ENDROOT
BRANCH   1   2
ATOM      2  C   LIG    1       -0.646   1.621  -0.353  0.00  0.00    +0.106 C 
BRANCH   2   6
ATOM      3  N   LIG    1       -0.419   5.216  -0.808  0.00  0.00    -0.297 N 
ATOM      4  H   LIG    1       -1.183   5.250  -1.469  0.00  0.00    +0.150 HD
ATOM      5  C   LIG    1       -0.204   4.074  -0.135  0.00  0.00    +0.300 C 
ATOM      6  N   LIG    1       -0.784   3.026  -0.742  0.00  0.00    -0.299 N 
ATOM      7  H   LIG    1       -1.413   3.211  -1.511  0.00  0.00    +0.150 HD
ATOM      8  O   LIG    1        0.492   3.991   0.878  0.00  0.00    -0.253 OA
BRANCH   3   9
ATOM      9  C   LIG    1        0.404   6.422  -0.706  0.00  0.00    +0.133 C 
BRANCH   9  10
ATOM     10  C   LIG    1        1.536   6.474  -1.748  0.00  0.00    +0.178 C 
BRANCH  10  11
ATOM     11  O   LIG    1        2.366   5.326  -1.626  0.00  0.00    -0.376 OA
BRANCH  11  12
ATOM     12  C   LIG    1        3.494   5.333  -2.489  0.00  0.00    +0.188 C 
BRANCH  12  13
ATOM     13  C   LIG    1        4.193   3.973  -2.390  0.00  0.00    +0.188 C 
BRANCH  13  14
ATOM     14  O   LIG    1        5.327   3.959  -3.246  0.00  0.00    -0.376 OA
BRANCH  14  15
ATOM     15  C   LIG    1        6.124   2.790  -3.115  0.00  0.00    +0.176 C 
BRANCH  15  16
ATOM     16  C   LIG    1        7.254   2.824  -4.152  0.00  0.00    +0.134 C 
BRANCH  16  17
ATOM     17  N   LIG    1        6.753   2.660  -5.530  0.00  0.00    -0.188 NA
ATOM     18  H   LIG    1        6.538   3.497  -6.079  0.00  0.00    +0.148 HD
BRANCH  17  19
ATOM     19  S   LIG    1        6.737   1.083  -6.313  0.00  0.00    +0.058 S 
ATOM     20  O   LIG    1        6.333   0.083  -5.318  0.00  0.00    -0.153 OA
ATOM     21  O   LIG    1        6.010   1.226  -7.578  0.00  0.00    -0.153 OA
BRANCH  19  24
ATOM     22  C   LIG    1       10.463   1.478  -7.901  0.00  0.00    -0.037 A 
ATOM     23  C   LIG    1        9.118   1.680  -7.569  0.00  0.00    +0.032 A 
ATOM     24  C   LIG    1        8.448   0.777  -6.739  0.00  0.00    +0.106 A 
ATOM     25  C   LIG    1        9.120  -0.343  -6.242  0.00  0.00    +0.028 A 
ATOM     26  C   LIG    1       10.459  -0.553  -6.572  0.00  0.00    +0.002 A 
ATOM     27  C   LIG    1       11.127   0.352  -7.395  0.00  0.00    +0.004 A 
BRANCH  22  31
ATOM     28  C   LIG    1       12.662   0.443 -11.636  0.00  0.00    +0.105 C 
ATOM     29  N   LIG    1       12.587   1.102 -10.337  0.00  0.00    -0.300 NA
ATOM     30  C   LIG    1       11.381   1.925 -10.245  0.00  0.00    +0.097 C 
ATOM     31  C   LIG    1       11.191   2.480  -8.806  0.00  0.00    +0.063 C 
ATOM     32  C   LIG    1       12.503   2.978  -8.176  0.00  0.00    -0.032 A 
ATOM     33  C   LIG    1       12.484   3.695  -6.973  0.00  0.00    +0.024 A 
ATOM     34  C   LIG    1       13.662   4.117  -6.366  0.00  0.00    +0.043 A 
ATOM     35 CL   LIG    1       13.605   4.994  -4.881  0.00  0.00    -0.083 Cl
ATOM     36  C   LIG    1       14.884   3.828  -6.960  0.00  0.00    +0.040 A 
ATOM     37  C   LIG    1       14.929   3.122  -8.161  0.00  0.00    +0.047 A 
ATOM     38 CL   LIG    1       16.477   2.815  -8.868  0.00  0.00    -0.083 Cl
ATOM     39  C   LIG    1       13.746   2.685  -8.782  0.00  0.00    -0.011 A 
ATOM     40  C   LIG    1       13.764   1.948 -10.125  0.00  0.00    +0.121 C 
ENDBRANCH  22  31
ENDBRANCH  19  24
ENDBRANCH  17  19
ENDBRANCH  16  17
ENDBRANCH  15  16
ENDBRANCH  14  15
ENDBRANCH  13  14
ENDBRANCH  12  13
ENDBRANCH  11  12
ENDBRANCH  10  11
ENDBRANCH   9  10
ENDBRANCH   3   9
ENDBRANCH   2   6
ENDBRANCH   1   2
BRANCH   1  41
ATOM     41  C   LIG    1        1.948   1.439  -0.462  0.00  0.00    +0.020 C 
BRANCH  41  42
ATOM     42  C   LIG    1        3.162   0.556  -0.812  0.00  0.00    +0.106 C 
BRANCH  42  43
ATOM     43  N   LIG    1        3.364   0.368  -2.250  0.00  0.00    -0.299 N 
ATOM     44  H   LIG    1        3.882   1.093  -2.723  0.00  0.00    +0.150 HD
ATOM     45  C   LIG    1        3.001  -0.715  -2.956  0.00  0.00    +0.300 C 
ATOM     46  N   LIG    1        3.543  -0.705  -4.184  0.00  0.00    -0.297 N 
ATOM     47  H   LIG    1        4.182   0.039  -4.425  0.00  0.00    +0.150 HD
ATOM     48  O   LIG    1        2.276  -1.614  -2.526  0.00  0.00    -0.253 OA
BRANCH  46  49
ATOM     49  C   LIG    1        3.289  -1.697  -5.230  0.00  0.00    +0.133 C 
BRANCH  49  50
ATOM     50  C   LIG    1        1.878  -1.610  -5.838  0.00  0.00    +0.178 C 
BRANCH  50  51
ATOM     51  O   LIG    1        1.686  -0.307  -6.370  0.00  0.00    -0.376 OA
BRANCH  51  52
ATOM     52  C   LIG    1        0.377  -0.072  -6.867  0.00  0.00    +0.188 C 
BRANCH  52  53
ATOM     53  C   LIG    1        0.259   1.403  -7.263  0.00  0.00    +0.188 C 
BRANCH  53  54
ATOM     54  O   LIG    1        0.512   2.211  -6.121  0.00  0.00    -0.376 OA
BRANCH  54  55
ATOM     55  C   LIG    1        0.432   3.603  -6.383  0.00  0.00    +0.176 C 
BRANCH  55  56
ATOM     56  C   LIG    1        0.690   4.392  -5.091  0.00  0.00    +0.134 C 
BRANCH  56  57
ATOM     57  N   LIG    1       -0.264   4.114  -3.994  0.00  0.00    -0.188 NA
ATOM     58  H   LIG    1       -0.009   3.353  -3.357  0.00  0.00    +0.148 HD
BRANCH  57  59
ATOM     59  S   LIG    1       -1.990   4.426  -4.186  0.00  0.00    +0.058 S 
ATOM     60  O   LIG    1       -2.151   5.620  -5.024  0.00  0.00    -0.153 OA
ATOM     61  O   LIG    1       -2.603   4.359  -2.855  0.00  0.00    -0.153 OA
BRANCH  59  62
ATOM     62  C   LIG    1       -2.619   3.015  -5.086  0.00  0.00    +0.106 A 
ATOM     63  C   LIG    1       -3.197   3.169  -6.349  0.00  0.00    +0.032 A 
ATOM     64  C   LIG    1       -3.671   2.055  -7.056  0.00  0.00    -0.037 A 
ATOM     65  C   LIG    1       -3.575   0.787  -6.471  0.00  0.00    +0.004 A 
ATOM     66  C   LIG    1       -3.005   0.632  -5.207  0.00  0.00    +0.002 A 
ATOM     67  C   LIG    1       -2.523   1.743  -4.517  0.00  0.00    +0.028 A 
BRANCH  64  68
ATOM     68  C   LIG    1       -4.275   2.208  -8.459  0.00  0.00    +0.063 C 
ATOM     69  C   LIG    1       -5.180   3.445  -8.580  0.00  0.00    -0.032 A 
ATOM     70  C   LIG    1       -6.393   3.509  -7.883  0.00  0.00    +0.024 A 
ATOM     71  C   LIG    1       -7.195   4.644  -7.936  0.00  0.00    +0.043 A 
ATOM     72 CL   LIG    1       -8.683   4.695  -7.063  0.00  0.00    -0.083 Cl
ATOM     73  C   LIG    1       -6.791   5.738  -8.692  0.00  0.00    +0.040 A 
ATOM     74  C   LIG    1       -5.590   5.695  -9.398  0.00  0.00    +0.047 A 
ATOM     75 CL   LIG    1       -5.150   7.076 -10.344  0.00  0.00    -0.083 Cl
ATOM     76  C   LIG    1       -4.768   4.556  -9.352  0.00  0.00    -0.011 A 
ATOM     77  C   LIG    1       -3.469   4.466 -10.161  0.00  0.00    +0.121 C 
ATOM     78  N   LIG    1       -2.516   3.484  -9.635  0.00  0.00    -0.300 NA
ATOM     79  C   LIG    1       -1.330   3.417 -10.482  0.00  0.00    +0.105 C 
ATOM     80  C   LIG    1       -3.172   2.178  -9.552  0.00  0.00    +0.097 C 
ENDBRANCH  64  68
ENDBRANCH  59  62
ENDBRANCH  57  59
ENDBRANCH  56  57
ENDBRANCH  55  56
ENDBRANCH  54  55
ENDBRANCH  53  54
ENDBRANCH  52  53
ENDBRANCH  51  52
ENDBRANCH  50  51
ENDBRANCH  49  50
ENDBRANCH  46  49
ENDBRANCH  42  43
ENDBRANCH  41  42
ENDBRANCH   1  41
TORSDOF 29
