REMARK  Name = DB11662
REMARK                            x       y       z     vdW  Elec       q    Type
REMARK                         _______ _______ _______ _____ _____    ______ ____
ROOT
ATOM      1  C   LIG    1       -3.054  -2.856  -0.267  0.00  0.00    +0.045 C 
ATOM      2  C   LIG    1       -2.370  -1.502  -0.156  0.00  0.00    -0.033 A 
ATOM      3  C   LIG    1       -3.117  -0.321  -0.086  0.00  0.00    +0.023 A 
ATOM      4 BR   LIG    1       -5.024  -0.348  -0.128  0.00  0.00    -0.050 Br
ATOM      5  C   LIG    1       -2.468   0.908   0.011  0.00  0.00    +0.042 A 
ATOM      6  C   LIG    1       -1.065   0.981   0.048  0.00  0.00    +0.078 A 
ATOM      7  C   LIG    1       -0.307  -0.201  -0.032  0.00  0.00    +0.142 A 
ATOM      8  C   LIG    1       -0.976  -1.434  -0.131  0.00  0.00    +0.052 A 
ENDROOT
BRANCH   6   9
ATOM      9  N   LIG    1       -0.355   2.198   0.133  0.00  0.00    -0.266 N 
ATOM     10  H   LIG    1        0.627   2.118  -0.090  0.00  0.00    +0.156 HD
ATOM     11  C   LIG    1       -0.780   3.414   0.532  0.00  0.00    +0.309 C 
ATOM     12  N   LIG    1        0.217   4.314   0.400  0.00  0.00    -0.253 N 
ATOM     13  H   LIG    1        1.099   3.966   0.053  0.00  0.00    +0.158 HD
ATOM     14  O   LIG    1       -1.906   3.668   0.962  0.00  0.00    -0.252 OA
BRANCH  12  15
ATOM     15  C   LIG    1        0.200   5.692   0.686  0.00  0.00    +0.144 A 
ATOM     16  N   LIG    1       -0.922   6.343   1.118  0.00  0.00    -0.237 NA
ATOM     17  C   LIG    1       -0.830   7.677   1.359  0.00  0.00    +0.136 A 
ATOM     18  C   LIG    1        0.373   8.364   1.171  0.00  0.00    +0.056 A 
ATOM     19  C   LIG    1        0.499   9.853   1.432  0.00  0.00    +0.067 C 
ATOM     20  N   LIG    1        1.494   7.728   0.740  0.00  0.00    -0.255 NA
ATOM     21  C   LIG    1        1.398   6.393   0.500  0.00  0.00    +0.154 A 
ENDBRANCH  12  15
ENDBRANCH   6   9
BRANCH   7  22
ATOM     22  O   LIG    1        1.074  -0.087  -0.006  0.00  0.00    -0.488 OA
BRANCH  22  23
ATOM     23  C   LIG    1        1.887  -1.257  -0.065  0.00  0.00    +0.258 C 
BRANCH  23  24
ATOM     24  C   LIG    1        3.365  -0.839   0.011  0.00  0.00    +0.139 C 
ATOM     25  O   LIG    1        3.613  -0.260   1.292  0.00  0.00    -0.377 OA
ATOM     26  C   LIG    1        4.926   0.268   1.454  0.00  0.00    +0.141 C 
ATOM     27  C   LIG    1        5.976  -0.855   1.332  0.00  0.00    -0.054 C 
ATOM     28  N   LIG    1        5.761  -1.613   0.010  0.00  0.00    +0.382 N 
ATOM     29  H   LIG    1        6.021  -1.006  -0.755  0.00  0.00    -0.086 HD
ATOM     30  H   LIG    1        6.373  -2.416  -0.030  0.00  0.00    -0.086 HD
ATOM     31  C   LIG    1        4.300  -2.055  -0.190  0.00  0.00    -0.047 C 
ENDBRANCH  23  24
ENDBRANCH  22  23
ENDBRANCH   7  22
TORSDOF 5
