REMARK  Name = DB11096
REMARK                            x       y       z     vdW  Elec       q    Type
REMARK                         _______ _______ _______ _____ _____    ______ ____
ROOT
ATOM      1  O   LIG    1       -0.337  -1.937  -1.504  0.00  0.00    -0.458 OA
ENDROOT
BRANCH   1   5
ATOM      2  C   LIG    1       -4.317  -1.351   0.368  0.00  0.00    +0.007 C 
ATOM      3  C   LIG    1       -2.786  -1.354   0.212  0.00  0.00    -0.011 C 
ATOM      4  C   LIG    1       -2.340  -0.570  -1.041  0.00  0.00    +0.048 C 
ATOM      5  C   LIG    1       -0.802  -0.611  -1.235  0.00  0.00    +0.180 C 
ATOM      6  C   LIG    1       -0.066  -0.034   0.016  0.00  0.00    +0.032 C 
ATOM      7  C   LIG    1       -0.561  -0.760   1.303  0.00  0.00    +0.007 C 
ATOM      8  C   LIG    1       -2.096  -0.732   1.445  0.00  0.00    +0.004 C 
BRANCH   6   9
ATOM      9  C   LIG    1        1.492  -0.034  -0.122  0.00  0.00    -0.011 C 
ATOM     10  C   LIG    1        1.982   0.602  -1.442  0.00  0.00    +0.007 C 
ATOM     11  C   LIG    1        2.201   0.650   1.067  0.00  0.00    +0.007 C 
ENDBRANCH   6   9
ENDBRANCH   1   5
BRANCH   1  12
ATOM     12  C   LIG    1       -0.404  -2.501  -2.742  0.00  0.00    +0.341 C 
ATOM     13  O   LIG    1       -0.879  -1.911  -3.715  0.00  0.00    -0.245 OA
BRANCH  12  14
ATOM     14  C   LIG    1        0.157  -3.908  -2.788  0.00  0.00    +0.080 A 
ATOM     15  C   LIG    1        0.159  -4.700  -3.966  0.00  0.00    +0.039 A 
ATOM     16  C   LIG    1        0.695  -5.991  -3.946  0.00  0.00    +0.023 A 
ATOM     17  C   LIG    1        1.233  -6.521  -2.778  0.00  0.00    +0.002 A 
ATOM     18  C   LIG    1        1.239  -5.761  -1.615  0.00  0.00    +0.001 A 
ATOM     19  C   LIG    1        0.708  -4.473  -1.620  0.00  0.00    +0.017 A 
BRANCH  15  20
ATOM     20  N   LIG    1       -0.358  -4.264  -5.190  0.00  0.00    -0.357 N 
ATOM     21  H   LIG    1       -0.754  -3.337  -5.256  0.00  0.00    +0.142 HD
ATOM     22  H   LIG    1       -0.330  -4.878  -5.991  0.00  0.00    +0.142 HD
ENDBRANCH  15  20
ENDBRANCH  12  14
ENDBRANCH   1  12
TORSDOF 5
