REMARK  Name = DB11917
REMARK                            x       y       z     vdW  Elec       q    Type
REMARK                         _______ _______ _______ _____ _____    ______ ____
ROOT
ATOM      1  C   LIG    1       -2.097   1.186  -0.133  0.00  0.00    +0.064 C 
ATOM      2  C   LIG    1       -2.524   2.655  -0.349  0.00  0.00    +0.041 C 
ENDROOT
BRANCH   1   3
ATOM      3  O   LIG    1       -2.572   0.446  -1.244  0.00  0.00    -0.389 OA
ATOM      4  H   LIG    1       -2.310  -0.471  -1.132  0.00  0.00    +0.210 HD
ENDBRANCH   1   3
BRANCH   1   5
ATOM      5  C   LIG    1       -2.772   0.563   1.123  0.00  0.00    +0.039 C 
BRANCH   5   6
ATOM      6  C   LIG    1       -2.389   1.202   2.479  0.00  0.00    +0.042 C 
BRANCH   6  13
ATOM      7  C   LIG    1       -5.001  -1.067   7.263  0.00  0.00    +0.048 C 
ATOM      8  C   LIG    1       -4.406  -0.493   5.970  0.00  0.00    +0.003 C 
ATOM      9  C   LIG    1       -3.061  -1.040   5.652  0.00  0.00    +0.185 C 
ATOM     10  O   LIG    1       -2.512  -1.921   6.321  0.00  0.00    -0.287 OA
ATOM     11  C   LIG    1       -2.440  -0.424   4.451  0.00  0.00    +0.003 C 
ATOM     12  C   LIG    1       -1.065  -1.018   4.117  0.00  0.00    +0.048 C 
ATOM     13  C   LIG    1       -3.055   0.531   3.693  0.00  0.00    +0.006 C 
ATOM     14  C   LIG    1       -4.410   1.064   4.002  0.00  0.00    +0.186 C 
ATOM     15  O   LIG    1       -4.974   1.920   3.313  0.00  0.00    -0.287 OA
ATOM     16  C   LIG    1       -5.017   0.471   5.223  0.00  0.00    +0.003 C 
ATOM     17  C   LIG    1       -6.426   1.004   5.515  0.00  0.00    +0.048 C 
ENDBRANCH   6  13
ENDBRANCH   5   6
ENDBRANCH   1   5
BRANCH   1  18
ATOM     18  C   LIG    1       -0.542   1.095  -0.116  0.00  0.00    +0.038 C 
BRANCH  18  19
ATOM     19  C   LIG    1        0.060  -0.328  -0.082  0.00  0.00    +0.030 C 
BRANCH  19  20
ATOM     20  C   LIG    1        1.574  -0.324   0.074  0.00  0.00    -0.028 C 
ATOM     21  C   LIG    1        2.321  -1.031   0.951  0.00  0.00    -0.076 C 
ATOM     22  C   LIG    1        1.763  -2.046   1.944  0.00  0.00    +0.039 C 
BRANCH  21  23
ATOM     23  C   LIG    1        3.839  -0.884   0.986  0.00  0.00    +0.034 C 
BRANCH  23  24
ATOM     24  C   LIG    1        4.380  -0.262   2.286  0.00  0.00    +0.031 C 
BRANCH  24  25
ATOM     25  C   LIG    1        5.897  -0.162   2.322  0.00  0.00    -0.028 C 
ATOM     26  C   LIG    1        6.757  -1.005   2.935  0.00  0.00    -0.076 C 
ATOM     27  C   LIG    1        6.331  -2.273   3.667  0.00  0.00    +0.039 C 
BRANCH  26  28
ATOM     28  C   LIG    1        8.261  -0.760   2.903  0.00  0.00    +0.034 C 
BRANCH  28  29
ATOM     29  C   LIG    1        8.883  -0.459   4.279  0.00  0.00    +0.031 C 
BRANCH  29  30
ATOM     30  C   LIG    1       10.379  -0.195   4.220  0.00  0.00    -0.028 C 
ATOM     31  C   LIG    1       11.379  -1.044   4.540  0.00  0.00    -0.080 C 
ATOM     32  C   LIG    1       11.181  -2.485   4.991  0.00  0.00    +0.038 C 
ATOM     33  C   LIG    1       12.834  -0.616   4.453  0.00  0.00    +0.038 C 
ENDBRANCH  29  30
ENDBRANCH  28  29
ENDBRANCH  26  28
ENDBRANCH  24  25
ENDBRANCH  23  24
ENDBRANCH  21  23
ENDBRANCH  19  20
ENDBRANCH  18  19
ENDBRANCH   1  18
TORSDOF 13
