REMARK  Name = DB11796
REMARK                            x       y       z     vdW  Elec       q    Type
REMARK                         _______ _______ _______ _____ _____    ______ ____
ROOT
ATOM      1  C   LIG    1       -2.428  -0.806   0.348  0.00  0.00    +0.056 A 
ATOM      2  C   LIG    1       -1.156  -1.222   0.001  0.00  0.00    +0.101 A 
ATOM      3  N   LIG    1       -0.300  -0.162  -0.158  0.00  0.00    -0.319 N 
ATOM      4  C   LIG    1       -1.008   1.014   0.068  0.00  0.00    +0.100 A 
ATOM      5  C   LIG    1       -0.650   2.377   0.012  0.00  0.00    +0.180 A 
ATOM      6  N   LIG    1       -1.560   3.353   0.238  0.00  0.00    -0.231 NA
ATOM      7  C   LIG    1       -2.829   3.013   0.536  0.00  0.00    +0.159 A 
ATOM      8  C   LIG    1       -3.291   1.694   0.627  0.00  0.00    +0.148 A 
ATOM      9  C   LIG    1       -2.367   0.645   0.381  0.00  0.00    +0.058 A 
ENDROOT
BRANCH   5  10
ATOM     10  N   LIG    1        0.651   2.832  -0.248  0.00  0.00    -0.200 N 
ATOM     11  C   LIG    1        1.769   2.759   0.537  0.00  0.00    +0.227 A 
ATOM     12  N   LIG    1        2.786   3.315  -0.069  0.00  0.00    -0.219 NA
ATOM     13  C   LIG    1        2.245   3.728  -1.207  0.00  0.00    +0.148 A 
ATOM     14  C   LIG    1        3.065   4.418  -2.274  0.00  0.00    +0.090 C 
ATOM     15  N   LIG    1        0.964   3.474  -1.378  0.00  0.00    -0.149 NA
ENDBRANCH   5  10
BRANCH   1  16
ATOM     16  C   LIG    1       -3.577  -1.692   0.599  0.00  0.00    +0.250 C 
ATOM     17  O   LIG    1       -4.705  -1.316   0.907  0.00  0.00    -0.282 OA
BRANCH  16  24
ATOM     18  N   LIG    1       -4.287  -5.097  -3.233  0.00  0.00    -0.295 N 
ATOM     19  C   LIG    1       -4.941  -5.539  -4.343  0.00  0.00    +0.247 C 
ATOM     20  O   LIG    1       -5.958  -6.236  -4.274  0.00  0.00    -0.270 OA
ATOM     21  C   LIG    1       -3.659  -3.755  -3.211  0.00  0.00    +0.127 C 
ATOM     22  C   LIG    1       -4.119  -3.012  -1.935  0.00  0.00    +0.127 C 
ATOM     23  N   LIG    1       -3.667  -3.797  -0.757  0.00  0.00    -0.292 N 
ATOM     24  C   LIG    1       -3.354  -3.252   0.455  0.00  0.00    +0.287 C 
ATOM     25  O   LIG    1       -2.924  -3.868   1.433  0.00  0.00    -0.266 OA
ATOM     26  C   LIG    1       -3.545  -5.266  -0.904  0.00  0.00    +0.127 C 
ATOM     27  C   LIG    1       -4.597  -5.743  -1.937  0.00  0.00    +0.127 C 
BRANCH  19  28
ATOM     28  C   LIG    1       -4.383  -5.200  -5.713  0.00  0.00    +0.037 A 
ATOM     29  C   LIG    1       -3.004  -5.038  -5.925  0.00  0.00    +0.013 A 
ATOM     30  C   LIG    1       -2.513  -4.747  -7.195  0.00  0.00    +0.001 A 
ATOM     31  C   LIG    1       -3.395  -4.627  -8.265  0.00  0.00    +0.000 A 
ATOM     32  C   LIG    1       -4.763  -4.802  -8.077  0.00  0.00    +0.001 A 
ATOM     33  C   LIG    1       -5.254  -5.094  -6.807  0.00  0.00    +0.013 A 
ENDBRANCH  19  28
ENDBRANCH  16  24
ENDBRANCH   1  16
BRANCH   8  34
ATOM     34  O   LIG    1       -4.588   1.337   0.929  0.00  0.00    -0.493 OA
ATOM     35  C   LIG    1       -5.548   2.356   1.183  0.00  0.00    +0.277 C 
ENDBRANCH   8  34
BRANCH   3  36
ATOM     36  C   LIG    1        1.093  -0.310  -0.560  0.00  0.00    +0.296 C 
BRANCH  36  37
ATOM     37  O   LIG    1        1.235   0.223  -1.864  0.00  0.00    -0.265 OA
BRANCH  37  38
ATOM     38  P   LIG    1        2.644   0.045  -2.660  0.00  0.00    +0.474 P 
ATOM     39  O   LIG    1        3.030  -1.359  -2.968  0.00  0.00    -0.227 OA
BRANCH  38  40
ATOM     40  O   LIG    1        2.458   1.009  -3.953  0.00  0.00    -0.303 OA
ATOM     41  H   LIG    1        2.649   0.600  -4.819  0.00  0.00    +0.222 HD
ENDBRANCH  38  40
BRANCH  38  42
ATOM     42  O   LIG    1        3.700   0.869  -1.741  0.00  0.00    -0.303 OA
ATOM     43  H   LIG    1        3.473   1.801  -1.557  0.00  0.00    +0.222 HD
ENDBRANCH  38  42
ENDBRANCH  37  38
ENDBRANCH  36  37
ENDBRANCH   3  36
TORSDOF 10
