REMARK  Name = DB11913
REMARK                            x       y       z     vdW  Elec       q    Type
REMARK                         _______ _______ _______ _____ _____    ______ ____
ROOT
ATOM      1  C   LIG    1        1.376  -0.186  -0.188  0.00  0.00    +0.013 A 
ATOM      2  C   LIG    1        2.028  -1.090  -1.098  0.00  0.00    +0.011 A 
ATOM      3  C   LIG    1        1.616  -2.225  -1.814  0.00  0.00    +0.049 A 
ATOM      4  C   LIG    1        2.530  -2.878  -2.631  0.00  0.00    +0.124 A 
ATOM      5  F   LIG    1        2.144  -3.977  -3.318  0.00  0.00    -0.205 F 
ATOM      6  C   LIG    1        3.833  -2.411  -2.761  0.00  0.00    +0.045 A 
ATOM      7  C   LIG    1        4.308  -1.275  -2.096  0.00  0.00    -0.003 A 
ATOM      8  C   LIG    1        5.736  -0.789  -2.340  0.00  0.00    +0.146 C 
ATOM      9  N   LIG    1        6.553  -0.374  -1.181  0.00  0.00    -0.279 N 
ATOM     10  C   LIG    1        7.782  -0.918  -1.046  0.00  0.00    +0.305 C 
ATOM     11  N   LIG    1        8.838  -0.059  -1.157  0.00  0.00    -0.285 N 
ATOM     12  C   LIG    1       10.217  -0.580  -1.082  0.00  0.00    +0.109 C 
ATOM     13  C   LIG    1       10.665  -0.905  -2.528  0.00  0.00    +0.019 C 
ATOM     14  C   LIG    1       10.522   0.313  -3.468  0.00  0.00    +0.003 C 
ATOM     15  C   LIG    1        9.131   0.973  -3.344  0.00  0.00    +0.019 C 
ATOM     16  C   LIG    1        8.752   1.235  -1.867  0.00  0.00    +0.109 C 
ATOM     17  O   LIG    1        7.914  -2.120  -0.800  0.00  0.00    -0.252 OA
ATOM     18  C   LIG    1        5.962   0.233   0.023  0.00  0.00    +0.131 C 
ATOM     19  C   LIG    1        4.783   1.191  -0.246  0.00  0.00    +0.141 C 
ATOM     20  N   LIG    1        3.534   0.465  -0.429  0.00  0.00    -0.344 N 
ATOM     21  C   LIG    1        3.379  -0.640  -1.250  0.00  0.00    +0.055 A 
ATOM     22  C   LIG    1        2.334   0.737   0.181  0.00  0.00    +0.095 A 
ENDROOT
BRANCH   1  30
ATOM     23  C   LIG    1       -0.850   0.834   0.419  0.00  0.00    +0.075 C 
ATOM     24  C   LIG    1       -2.102   0.337   0.914  0.00  0.00    +0.253 C 
ATOM     25  O   LIG    1       -3.145   0.949   1.142  0.00  0.00    -0.270 OA
ATOM     26  N   LIG    1       -1.905  -0.978   1.081  0.00  0.00    -0.248 N 
ATOM     27  H   LIG    1       -2.616  -1.603   1.431  0.00  0.00    +0.158 HD
ATOM     28  C   LIG    1       -0.675  -1.388   0.737  0.00  0.00    +0.252 C 
ATOM     29  O   LIG    1       -0.250  -2.540   0.812  0.00  0.00    -0.270 OA
ATOM     30  C   LIG    1       -0.008  -0.200   0.285  0.00  0.00    +0.060 C 
BRANCH  23  36
ATOM     31  C   LIG    1       -1.185   5.893   1.880  0.00  0.00    +0.005 A 
ATOM     32  C   LIG    1       -0.649   5.750   0.598  0.00  0.00    +0.047 A 
ATOM     33  C   LIG    1       -0.490   4.457   0.064  0.00  0.00    +0.138 A 
ATOM     34  N   LIG    1        0.011   4.066  -1.134  0.00  0.00    -0.235 NA
ATOM     35  C   LIG    1       -0.070   2.755  -1.107  0.00  0.00    +0.140 A 
ATOM     36  C   LIG    1       -0.619   2.236   0.067  0.00  0.00    +0.079 A 
ATOM     37  N   LIG    1       -0.885   3.349   0.841  0.00  0.00    -0.299 N 
ATOM     38  C   LIG    1       -1.399   3.502   2.106  0.00  0.00    +0.093 A 
ATOM     39  C   LIG    1       -1.555   4.782   2.632  0.00  0.00    +0.018 A 
ENDBRANCH  23  36
ENDBRANCH   1  30
TORSDOF 2
