REMARK  Name = DB11953
REMARK                            x       y       z     vdW  Elec       q    Type
REMARK                         _______ _______ _______ _____ _____    ______ ____
ROOT
ATOM      1  C   LIG    1       -0.013   0.107   0.235  0.00  0.00    +0.114 A 
ATOM      2  N   LIG    1       -0.693   1.261   0.600  0.00  0.00    -0.310 N 
ATOM      3  H   LIG    1       -0.143   2.077   0.824  0.00  0.00    +0.170 HD
ATOM      4  C   LIG    1       -2.054   1.449   0.694  0.00  0.00    +0.262 A 
ATOM      5  O   LIG    1       -2.538   2.526   1.031  0.00  0.00    -0.267 OA
ATOM      6  C   LIG    1       -2.749   0.216   0.334  0.00  0.00    +0.103 A 
ATOM      7  C   LIG    1       -4.081  -0.195   0.224  0.00  0.00    +0.150 A 
ATOM      8  N   LIG    1       -4.183  -1.448  -0.173  0.00  0.00    -0.177 NA
ATOM      9  N   LIG    1       -2.917  -1.897  -0.298  0.00  0.00    -0.243 N 
ATOM     10  C   LIG    1       -2.011  -0.905  -0.009  0.00  0.00    +0.166 A 
ATOM     11  N   LIG    1       -0.651  -0.980  -0.063  0.00  0.00    -0.214 NA
ENDROOT
BRANCH   1  12
ATOM     12  C   LIG    1        1.519   0.154   0.173  0.00  0.00    +0.040 C 
ATOM     13  C   LIG    1        2.211  -0.627   1.325  0.00  0.00    -0.022 C 
ATOM     14  C   LIG    1        2.907   0.281   2.354  0.00  0.00    +0.006 C 
ATOM     15  C   LIG    1        3.168  -1.632   0.666  0.00  0.00    -0.074 C 
ATOM     16  N   LIG    1        2.571  -1.862  -0.728  0.00  0.00    +0.385 N 
ATOM     17  H   LIG    1        1.763  -2.464  -0.645  0.00  0.00    -0.081 HD
ATOM     18  C   LIG    1        2.101  -0.452  -1.124  0.00  0.00    -0.067 C 
BRANCH  16  19
ATOM     19  C   LIG    1        3.528  -2.530  -1.741  0.00  0.00    -0.001 C 
BRANCH  19  20
ATOM     20  C   LIG    1        2.900  -3.023  -3.044  0.00  0.00    +0.113 A 
ATOM     21  N   LIG    1        1.542  -3.083  -3.136  0.00  0.00    -0.242 NA
ATOM     22  C   LIG    1        1.039  -3.557  -4.306  0.00  0.00    +0.114 A 
ATOM     23  C   LIG    1        1.856  -3.971  -5.361  0.00  0.00    +0.039 A 
ATOM     24  C   LIG    1        3.236  -3.875  -5.163  0.00  0.00    +0.114 A 
ATOM     25  N   LIG    1        3.779  -3.405  -4.008  0.00  0.00    -0.242 NA
ENDBRANCH  19  20
ENDBRANCH  16  19
ENDBRANCH   1  12
BRANCH   9  26
ATOM     26  C   LIG    1       -2.635  -3.264  -0.775  0.00  0.00    +0.114 C 
ATOM     27  C   LIG    1       -3.548  -4.362  -0.180  0.00  0.00    +0.055 C 
ATOM     28  C   LIG    1       -4.882  -4.491  -0.947  0.00  0.00    +0.162 C 
ATOM     29  O   LIG    1       -4.637  -4.612  -2.350  0.00  0.00    -0.380 OA
ATOM     30  C   LIG    1       -3.969  -3.490  -2.932  0.00  0.00    +0.162 C 
ATOM     31  C   LIG    1       -2.564  -3.349  -2.313  0.00  0.00    +0.055 C 
ENDBRANCH   9  26
TORSDOF 4
