REMARK  Name = DB11792
REMARK                            x       y       z     vdW  Elec       q    Type
REMARK                         _______ _______ _______ _____ _____    ______ ____
ROOT
ATOM      1  C   LIG    1        1.341  -0.075   0.226  0.00  0.00    +0.061 A 
ATOM      2  C   LIG    1        2.059  -1.280   0.430  0.00  0.00    +0.131 A 
ATOM      3  C   LIG    1        3.466  -1.239   0.450  0.00  0.00    +0.048 A 
ATOM      4  C   LIG    1        4.155  -0.044   0.274  0.00  0.00    +0.032 A 
ATOM      5  C   LIG    1        3.453   1.141   0.077  0.00  0.00    +0.106 A 
ATOM      6  C   LIG    1        2.059   1.121   0.051  0.00  0.00    +0.043 A 
ENDROOT
BRANCH   1  10
ATOM      7  C   LIG    1       -3.230  -1.868  -0.483  0.00  0.00    -0.004 A 
ATOM      8  C   LIG    1       -2.252  -0.905  -0.182  0.00  0.00    +0.099 A 
ATOM      9  N   LIG    1       -0.893  -1.036  -0.165  0.00  0.00    -0.227 NA
ATOM     10  C   LIG    1       -0.145  -0.029   0.174  0.00  0.00    +0.145 A 
ATOM     11  N   LIG    1       -0.788   1.164   0.497  0.00  0.00    -0.305 N 
ATOM     12  H   LIG    1       -0.192   1.934   0.762  0.00  0.00    +0.170 HD
ATOM     13  C   LIG    1       -2.124   1.475   0.506  0.00  0.00    +0.276 A 
ATOM     14  O   LIG    1       -2.525   2.601   0.793  0.00  0.00    -0.266 OA
ATOM     15  C   LIG    1       -2.894   0.292   0.138  0.00  0.00    +0.133 A 
ATOM     16  N   LIG    1       -4.255   0.108   0.022  0.00  0.00    -0.341 N 
ATOM     17  C   LIG    1       -4.444  -1.199  -0.362  0.00  0.00    +0.092 A 
BRANCH  16  18
ATOM     18  C   LIG    1       -5.317   1.082   0.260  0.00  0.00    +0.118 C 
ATOM     19  C   LIG    1       -5.526   1.319   1.765  0.00  0.00    +0.027 C 
ENDBRANCH  16  18
BRANCH   7  20
ATOM     20  C   LIG    1       -3.020  -3.320  -0.861  0.00  0.00    +0.038 C 
BRANCH  20  22
ATOM     21  C   LIG    1       -2.591  -5.686   0.026  0.00  0.00    +0.004 C 
ATOM     22  C   LIG    1       -2.773  -4.202   0.375  0.00  0.00    +0.001 C 
ENDBRANCH  20  22
ENDBRANCH   7  20
ENDBRANCH   1  10
BRANCH   5  23
ATOM     23  S   LIG    1        4.334   2.684  -0.163  0.00  0.00    +0.061 S 
ATOM     24  O   LIG    1        5.672   2.518   0.419  0.00  0.00    -0.153 OA
ATOM     25  O   LIG    1        3.455   3.763   0.302  0.00  0.00    -0.153 OA
BRANCH  23  26
ATOM     26  N   LIG    1        4.519   2.844  -1.917  0.00  0.00    -0.174 NA
ATOM     27  C   LIG    1        5.370   1.821  -2.568  0.00  0.00    +0.125 C 
ATOM     28  C   LIG    1        5.705   2.276  -4.008  0.00  0.00    +0.101 C 
ATOM     29  N   LIG    1        4.455   2.483  -4.769  0.00  0.00    -0.298 NA
ATOM     30  C   LIG    1        3.618   3.508  -4.116  0.00  0.00    +0.101 C 
ATOM     31  C   LIG    1        3.267   3.057  -2.680  0.00  0.00    +0.125 C 
BRANCH  29  32
ATOM     32  C   LIG    1        4.702   2.873  -6.164  0.00  0.00    +0.112 C 
BRANCH  32  33
ATOM     33  C   LIG    1        5.341   1.773  -7.038  0.00  0.00    +0.171 C 
BRANCH  33  34
ATOM     34  O   LIG    1        4.464   0.675  -7.187  0.00  0.00    -0.394 OA
ATOM     35  H   LIG    1        4.334   0.273  -6.325  0.00  0.00    +0.209 HD
ENDBRANCH  33  34
ENDBRANCH  32  33
ENDBRANCH  29  32
ENDBRANCH  23  26
ENDBRANCH   5  23
BRANCH   2  36
ATOM     36  O   LIG    1        1.355  -2.459   0.620  0.00  0.00    -0.491 OA
BRANCH  36  37
ATOM     37  C   LIG    1        2.042  -3.706   0.694  0.00  0.00    +0.229 C 
BRANCH  37  38
ATOM     38  C   LIG    1        0.996  -4.829   0.722  0.00  0.00    +0.038 C 
ATOM     39  C   LIG    1        1.617  -6.231   0.771  0.00  0.00    +0.007 C 
ENDBRANCH  37  38
ENDBRANCH  36  37
ENDBRANCH   2  36
TORSDOF 12
