REMARK  Name = DB11782
REMARK                            x       y       z     vdW  Elec       q    Type
REMARK                         _______ _______ _______ _____ _____    ______ ____
ROOT
ATOM      1  C   LIG    1       -0.853  -0.782  -0.399  0.00  0.00    -0.011 A 
ATOM      2  C   LIG    1        0.131   0.214  -0.368  0.00  0.00    +0.067 A 
ATOM      3  N   LIG    1       -0.499   1.434  -0.408  0.00  0.00    -0.353 N 
ATOM      4  H   LIG    1        0.021   2.299  -0.382  0.00  0.00    +0.166 HD
ATOM      5  C   LIG    1       -1.860   1.296  -0.520  0.00  0.00    +0.050 A 
ATOM      6  C   LIG    1       -2.875   2.252  -0.627  0.00  0.00    +0.064 A 
ATOM      7  C   LIG    1       -4.183   1.780  -0.733  0.00  0.00    +0.125 A 
ATOM      8  F   LIG    1       -5.198   2.667  -0.842  0.00  0.00    -0.205 F 
ATOM      9  C   LIG    1       -4.468   0.417  -0.728  0.00  0.00    +0.039 A 
ATOM     10  C   LIG    1       -3.453  -0.532  -0.619  0.00  0.00    +0.013 A 
ATOM     11  C   LIG    1       -2.119  -0.103  -0.518  0.00  0.00    +0.004 A 
ENDROOT
BRANCH   2  12
ATOM     12  C   LIG    1        1.602   0.144  -0.297  0.00  0.00    +0.067 A 
ATOM     13  N   LIG    1        2.201  -1.043   0.051  0.00  0.00    -0.353 N 
ATOM     14  H   LIG    1        1.661  -1.871   0.254  0.00  0.00    +0.166 HD
ATOM     15  C   LIG    1        3.569  -0.936   0.064  0.00  0.00    +0.050 A 
ATOM     16  C   LIG    1        4.563  -1.878   0.351  0.00  0.00    +0.064 A 
ATOM     17  C   LIG    1        5.887  -1.447   0.277  0.00  0.00    +0.125 A 
ATOM     18  F   LIG    1        6.882  -2.322   0.542  0.00  0.00    -0.205 F 
ATOM     19  C   LIG    1        6.207  -0.135  -0.064  0.00  0.00    +0.039 A 
ATOM     20  C   LIG    1        5.213   0.800  -0.347  0.00  0.00    +0.013 A 
ATOM     21  C   LIG    1        3.864   0.408  -0.291  0.00  0.00    +0.004 A 
ATOM     22  C   LIG    1        2.613   1.086  -0.529  0.00  0.00    -0.011 A 
BRANCH  22  23
ATOM     23  C   LIG    1        2.500   2.548  -0.938  0.00  0.00    +0.060 C 
BRANCH  23  24
ATOM     24  C   LIG    1        3.099   2.897  -2.333  0.00  0.00    +0.083 C 
ATOM     25  N   LIG    1        2.272   2.453  -3.478  0.00  0.00    -0.294 N 
ATOM     26  C   LIG    1        2.227   1.172  -3.929  0.00  0.00    +0.236 C 
ATOM     27  O   LIG    1        2.836   0.245  -3.389  0.00  0.00    -0.274 OA
ATOM     28  C   LIG    1        1.669   3.592  -4.188  0.00  0.00    +0.139 C 
ATOM     29  C   LIG    1        1.873   4.795  -3.266  0.00  0.00    +0.134 C 
ATOM     30  C   LIG    1        3.164   4.422  -2.550  0.00  0.00    +0.055 C 
BRANCH  29  31
ATOM     31  O   LIG    1        0.795   4.898  -2.355  0.00  0.00    -0.390 OA
ATOM     32  H   LIG    1        0.946   4.279  -1.638  0.00  0.00    +0.210 HD
ENDBRANCH  29  31
BRANCH  26  33
ATOM     33  C   LIG    1        1.369   0.825  -5.182  0.00  0.00    +0.159 C 
BRANCH  33  34
ATOM     34  N   LIG    1        2.144   0.031  -6.141  0.00  0.00    -0.305 N 
ATOM     35  H   LIG    1        1.886  -0.943  -6.209  0.00  0.00    +0.149 HD
ATOM     36  C   LIG    1        3.168   0.498  -6.878  0.00  0.00    +0.199 C 
ATOM     37  O   LIG    1        3.555   1.671  -6.839  0.00  0.00    -0.278 OA
BRANCH  36  38
ATOM     38  C   LIG    1        3.860  -0.555  -7.778  0.00  0.00    +0.012 C 
ATOM     39  C   LIG    1        4.988  -1.288  -7.024  0.00  0.00    -0.004 C 
BRANCH  38  40
ATOM     40  N   LIG    1        4.393   0.181  -8.982  0.00  0.00    +0.385 N 
ATOM     41  H   LIG    1        5.249   0.640  -8.702  0.00  0.00    -0.085 HD
ATOM     42  H   LIG    1        3.713   0.892  -9.215  0.00  0.00    -0.085 HD
ATOM     43  C   LIG    1        4.644  -0.687 -10.224  0.00  0.00    -0.099 C 
ENDBRANCH  38  40
ENDBRANCH  36  38
ENDBRANCH  33  34
BRANCH  33  44
ATOM     44  C   LIG    1        0.076   0.072  -4.785  0.00  0.00    +0.028 C 
ATOM     45  C   LIG    1       -0.963   0.951  -4.067  0.00  0.00    +0.006 C 
ENDBRANCH  33  44
ENDBRANCH  26  33
ENDBRANCH  23  24
ENDBRANCH  22  23
ENDBRANCH   2  12
BRANCH   1  46
ATOM     46  C   LIG    1       -0.682  -2.291  -0.332  0.00  0.00    +0.060 C 
BRANCH  46  49
ATOM     47  C   LIG    1        1.124  -4.830  -0.980  0.00  0.00    +0.236 C 
ATOM     48  N   LIG    1        0.058  -4.342  -1.671  0.00  0.00    -0.294 N 
ATOM     49  C   LIG    1       -0.312  -2.911  -1.706  0.00  0.00    +0.083 C 
ATOM     50  C   LIG    1       -1.457  -2.860  -2.728  0.00  0.00    +0.055 C 
ATOM     51  C   LIG    1       -1.319  -4.113  -3.570  0.00  0.00    +0.134 C 
ATOM     52  C   LIG    1       -0.742  -5.147  -2.605  0.00  0.00    +0.139 C 
ATOM     53  O   LIG    1        1.890  -4.111  -0.335  0.00  0.00    -0.274 OA
BRANCH  51  54
ATOM     54  O   LIG    1       -2.517  -4.493  -4.213  0.00  0.00    -0.390 OA
ATOM     55  H   LIG    1       -3.245  -4.378  -3.597  0.00  0.00    +0.210 HD
ENDBRANCH  51  54
BRANCH  47  56
ATOM     56  C   LIG    1        1.404  -6.355  -0.993  0.00  0.00    +0.159 C 
BRANCH  56  57
ATOM     57  N   LIG    1        2.239  -6.654  -2.158  0.00  0.00    -0.305 N 
ATOM     58  H   LIG    1        3.004  -6.014  -2.317  0.00  0.00    +0.149 HD
ATOM     59  C   LIG    1        2.045  -7.675  -3.012  0.00  0.00    +0.199 C 
ATOM     60  O   LIG    1        1.134  -8.497  -2.889  0.00  0.00    -0.278 OA
BRANCH  59  61
ATOM     61  C   LIG    1        3.060  -7.737  -4.183  0.00  0.00    +0.012 C 
ATOM     62  C   LIG    1        2.775  -6.681  -5.275  0.00  0.00    -0.004 C 
BRANCH  61  63
ATOM     63  N   LIG    1        3.111  -9.151  -4.723  0.00  0.00    +0.385 N 
ATOM     64  H   LIG    1        3.113  -9.766  -3.921  0.00  0.00    -0.085 HD
ATOM     65  H   LIG    1        4.005  -9.246  -5.184  0.00  0.00    -0.085 HD
ATOM     66  C   LIG    1        2.020  -9.601  -5.714  0.00  0.00    -0.099 C 
ENDBRANCH  61  63
ENDBRANCH  59  61
ENDBRANCH  56  57
BRANCH  56  68
ATOM     67  C   LIG    1        2.185  -8.385   0.427  0.00  0.00    +0.006 C 
ATOM     68  C   LIG    1        2.043  -6.856   0.332  0.00  0.00    +0.028 C 
ENDBRANCH  56  68
ENDBRANCH  47  56
ENDBRANCH  46  49
ENDBRANCH   1  46
TORSDOF 17
