REMARK  Name = DB11979
REMARK                            x       y       z     vdW  Elec       q    Type
REMARK                         _______ _______ _______ _____ _____    ______ ____
ROOT
ATOM      1  C   LIG    1       -2.004  -1.752   0.239  0.00  0.00    +0.069 A 
ATOM      2  C   LIG    1       -2.625  -0.570  -0.025  0.00  0.00    +0.034 A 
ATOM      3  C   LIG    1       -4.149  -0.440  -0.135  0.00  0.00    +0.064 C 
ATOM      4  N   LIG    1       -1.913   0.617  -0.150  0.00  0.00    -0.293 N 
ATOM      5  C   LIG    1       -0.585   0.670   0.220  0.00  0.00    +0.333 A 
ATOM      6  O   LIG    1       -0.040   1.704   0.621  0.00  0.00    -0.246 OA
ATOM      7  N   LIG    1        0.049  -0.558   0.245  0.00  0.00    -0.259 N 
ATOM      8  C   LIG    1       -0.544  -1.801   0.277  0.00  0.00    +0.265 A 
ATOM      9  O   LIG    1        0.077  -2.869   0.291  0.00  0.00    -0.267 OA
ENDROOT
BRANCH   1  14
ATOM     10  C   LIG    1       -4.110  -5.425   0.894  0.00  0.00    +0.048 A 
ATOM     11  C   LIG    1       -4.060  -4.469   1.923  0.00  0.00    +0.156 A 
ATOM     12  C   LIG    1       -3.373  -3.270   1.697  0.00  0.00    +0.173 A 
ATOM     13  F   LIG    1       -3.313  -2.343   2.684  0.00  0.00    -0.201 F 
ATOM     14  C   LIG    1       -2.748  -3.016   0.467  0.00  0.00    +0.028 A 
ATOM     15  C   LIG    1       -2.805  -3.987  -0.538  0.00  0.00    +0.012 A 
ATOM     16  C   LIG    1       -3.484  -5.184  -0.327  0.00  0.00    +0.004 A 
BRANCH  11  17
ATOM     17  O   LIG    1       -4.652  -4.633   3.162  0.00  0.00    -0.492 OA
ATOM     18  C   LIG    1       -5.364  -5.834   3.441  0.00  0.00    +0.277 C 
ENDBRANCH  11  17
ENDBRANCH   1  14
BRANCH   4  19
ATOM     19  C   LIG    1       -2.470   1.896  -0.664  0.00  0.00    +0.165 C 
BRANCH  19  20
ATOM     20  C   LIG    1       -1.943   2.325  -2.047  0.00  0.00    +0.019 A 
ATOM     21  C   LIG    1       -1.964   1.396  -3.103  0.00  0.00    +0.129 A 
ATOM     22  F   LIG    1       -2.465   0.153  -2.923  0.00  0.00    -0.205 F 
ATOM     23  C   LIG    1       -1.468   1.733  -4.359  0.00  0.00    +0.039 A 
ATOM     24  C   LIG    1       -0.949   3.001  -4.585  0.00  0.00    +0.003 A 
ATOM     25  C   LIG    1       -0.940   3.940  -3.558  0.00  0.00    +0.013 A 
ATOM     26  C   LIG    1       -1.439   3.627  -2.284  0.00  0.00    +0.062 A 
BRANCH  26  27
ATOM     27  C   LIG    1       -1.445   4.718  -1.202  0.00  0.00    +0.418 C 
ATOM     28  F   LIG    1       -0.620   4.386  -0.211  0.00  0.00    -0.166 F 
ATOM     29  F   LIG    1       -2.676   4.873  -0.711  0.00  0.00    -0.166 F 
ATOM     30  F   LIG    1       -1.054   5.906  -1.668  0.00  0.00    -0.166 F 
ENDBRANCH  26  27
ENDBRANCH  19  20
ENDBRANCH   4  19
BRANCH   7  31
ATOM     31  C   LIG    1        1.539  -0.515   0.223  0.00  0.00    +0.153 C 
BRANCH  31  32
ATOM     32  C   LIG    1        2.161   0.049  -1.084  0.00  0.00    +0.104 C 
BRANCH  32  33
ATOM     33  C   LIG    1        3.690   0.074  -0.976  0.00  0.00    -0.029 A 
ATOM     34  C   LIG    1        4.480  -1.002  -1.404  0.00  0.00    +0.005 A 
ATOM     35  C   LIG    1        5.867  -0.939  -1.294  0.00  0.00    +0.000 A 
ATOM     36  C   LIG    1        6.465   0.198  -0.756  0.00  0.00    +0.000 A 
ATOM     37  C   LIG    1        5.690   1.271  -0.325  0.00  0.00    +0.000 A 
ATOM     38  C   LIG    1        4.303   1.208  -0.435  0.00  0.00    +0.005 A 
ENDBRANCH  32  33
BRANCH  32  39
ATOM     39  N   LIG    1        1.663  -0.720  -2.229  0.00  0.00    -0.308 NA
ATOM     40  H   LIG    1        0.674  -0.898  -2.118  0.00  0.00    +0.123 HD
BRANCH  39  41
ATOM     41  C   LIG    1        1.901  -0.045  -3.498  0.00  0.00    +0.082 C 
BRANCH  41  42
ATOM     42  C   LIG    1        1.256  -0.844  -4.641  0.00  0.00    +0.026 C 
BRANCH  42  43
ATOM     43  C   LIG    1        1.438  -0.151  -6.007  0.00  0.00    +0.121 C 
BRANCH  43  44
ATOM     44  C   LIG    1        0.769  -0.917  -7.151  0.00  0.00    +0.305 C 
ATOM     45  O   LIG    1        1.397  -1.559  -7.990  0.00  0.00    -0.251 OA
BRANCH  44  46
ATOM     46  O   LIG    1       -0.589  -0.792  -7.119  0.00  0.00    -0.481 OA
ATOM     47  H   LIG    1       -1.014  -1.270  -7.835  0.00  0.00    +0.295 HD
ENDBRANCH  44  46
ENDBRANCH  43  44
ENDBRANCH  42  43
ENDBRANCH  41  42
ENDBRANCH  39  41
ENDBRANCH  32  39
ENDBRANCH  31  32
ENDBRANCH   7  31
TORSDOF 14
