REMARK  Name = DB11943
REMARK                            x       y       z     vdW  Elec       q    Type
REMARK                         _______ _______ _______ _____ _____    ______ ____
ROOT
ATOM      1  C   LIG    1       -2.065   1.128   0.617  0.00  0.00    +0.054 A 
ATOM      2  C   LIG    1       -0.696   1.256   0.435  0.00  0.00    +0.147 A 
ATOM      3  F   LIG    1       -0.108   2.441   0.730  0.00  0.00    -0.203 F 
ATOM      4  C   LIG    1        0.052   0.191  -0.074  0.00  0.00    +0.086 A 
ATOM      5  C   LIG    1       -0.589  -1.028  -0.364  0.00  0.00    +0.089 A 
ATOM      6 CL   LIG    1        0.358  -2.286  -1.109  0.00  0.00    -0.079 Cl
ATOM      7  C   LIG    1       -1.974  -1.190  -0.095  0.00  0.00    +0.079 A 
ATOM      8  N   LIG    1       -2.681  -2.413  -0.298  0.00  0.00    -0.296 N 
ATOM      9  C   LIG    1       -4.069  -2.410  -0.315  0.00  0.00    +0.112 A 
ATOM     10  C   LIG    1       -4.874  -1.365   0.007  0.00  0.00    +0.122 A 
ATOM     11  C   LIG    1       -4.239  -0.099   0.469  0.00  0.00    +0.204 A 
ATOM     12  O   LIG    1       -4.853   0.882   0.899  0.00  0.00    -0.286 OA
ATOM     13  C   LIG    1       -2.732  -0.069   0.331  0.00  0.00    +0.051 A 
ENDROOT
BRANCH   8  14
ATOM     14  C   LIG    1       -2.095  -3.680  -0.078  0.00  0.00    +0.176 A 
ATOM     15  N   LIG    1       -1.478  -3.890   1.120  0.00  0.00    -0.209 NA
ATOM     16  C   LIG    1       -0.876  -5.085   1.346  0.00  0.00    +0.154 A 
ATOM     17  C   LIG    1       -0.857  -6.107   0.391  0.00  0.00    +0.166 A 
ATOM     18  F   LIG    1       -0.250  -7.292   0.638  0.00  0.00    -0.202 F 
ATOM     19  C   LIG    1       -1.477  -5.883  -0.839  0.00  0.00    +0.084 A 
ATOM     20  C   LIG    1       -2.100  -4.659  -1.085  0.00  0.00    +0.169 A 
ATOM     21  F   LIG    1       -2.686  -4.431  -2.285  0.00  0.00    -0.202 F 
BRANCH  16  22
ATOM     22  N   LIG    1       -0.265  -5.258   2.588  0.00  0.00    -0.341 N 
ATOM     23  H   LIG    1       -0.294  -4.507   3.263  0.00  0.00    +0.144 HD
ATOM     24  H   LIG    1        0.192  -6.133   2.800  0.00  0.00    +0.144 HD
ENDBRANCH  16  22
ENDBRANCH   8  14
BRANCH   4  25
ATOM     25  N   LIG    1        1.430   0.345  -0.300  0.00  0.00    -0.321 N 
ATOM     26  C   LIG    1        2.468   0.612   0.696  0.00  0.00    +0.138 C 
ATOM     27  C   LIG    1        3.276   1.414  -0.309  0.00  0.00    +0.149 C 
ATOM     28  C   LIG    1        2.079   1.270  -1.231  0.00  0.00    +0.138 C 
BRANCH  27  29
ATOM     29  O   LIG    1        3.659   2.722   0.063  0.00  0.00    -0.389 OA
ATOM     30  H   LIG    1        4.436   2.665   0.623  0.00  0.00    +0.210 HD
ENDBRANCH  27  29
ENDBRANCH   4  25
BRANCH  10  31
ATOM     31  C   LIG    1       -6.333  -1.496  -0.078  0.00  0.00    +0.342 C 
ATOM     32  O   LIG    1       -7.131  -0.602   0.203  0.00  0.00    -0.245 OA
BRANCH  31  33
ATOM     33  O   LIG    1       -6.769  -2.721  -0.506  0.00  0.00    -0.477 OA
ATOM     34  H   LIG    1       -7.726  -2.770  -0.550  0.00  0.00    +0.295 HD
ENDBRANCH  31  33
ENDBRANCH  10  31
TORSDOF 6
