REMARK  Name = DB11304
REMARK                            x       y       z     vdW  Elec       q    Type
REMARK                         _______ _______ _______ _____ _____    ______ ____
ROOT
ATOM      1  C   LIG    1        6.152  -1.792   0.000  0.00  0.00    +0.000 A 
ATOM      2  C   LIG    1        5.676  -0.483   0.000  0.00  0.00    +0.004 A 
ATOM      3  C   LIG    1        4.303  -0.247   0.000  0.00  0.00    +0.045 A 
ATOM      4  C   LIG    1        3.401  -1.323   0.000  0.00  0.00    +0.121 A 
ATOM      5  C   LIG    1        3.896  -2.629   0.000  0.00  0.00    +0.045 A 
ATOM      6  C   LIG    1        5.268  -2.866   0.000  0.00  0.00    +0.004 A 
ENDROOT
BRANCH   4   7
ATOM      7  O   LIG    1        2.025  -1.186   0.000  0.00  0.00    -0.490 OA
BRANCH   7   8
ATOM      8  C   LIG    1        1.452   0.119   0.000  0.00  0.00    +0.256 C 
BRANCH   8   9
ATOM      9  C   LIG    1       -0.076  -0.020   0.000  0.00  0.00    +0.196 C 
BRANCH   9  10
ATOM     10  O   LIG    1       -0.694   1.250   0.000  0.00  0.00    -0.392 OA
ATOM     11  H   LIG    1       -1.647   1.127   0.000  0.00  0.00    +0.210 HD
ENDBRANCH   9  10
ENDBRANCH   8   9
ENDBRANCH   7   8
ENDBRANCH   4   7
TORSDOF 4
