REMARK  Name = DB11713
REMARK                            x       y       z     vdW  Elec       q    Type
REMARK                         _______ _______ _______ _____ _____    ______ ____
ROOT
ATOM      1  C   LIG    1        1.679   0.117   0.063  0.00  0.00    -0.023 A 
ATOM      2  C   LIG    1        2.278  -1.143  -0.036  0.00  0.00    +0.015 A 
ATOM      3  C   LIG    1        3.666  -1.266   0.127  0.00  0.00    +0.001 A 
ATOM      4  C   LIG    1        4.579  -2.369   0.092  0.00  0.00    +0.036 A 
ATOM      5  C   LIG    1        5.845  -1.871   0.334  0.00  0.00    +0.060 A 
ATOM      6  C   LIG    1        7.207  -2.476   0.414  0.00  0.00    +0.075 A 
ATOM      7  C   LIG    1        7.548  -3.751  -0.051  0.00  0.00    +0.136 A 
ATOM      8  F   LIG    1        6.606  -4.567  -0.579  0.00  0.00    -0.205 F 
ATOM      9  C   LIG    1        8.875  -4.183  -0.003  0.00  0.00    +0.044 A 
ATOM     10  C   LIG    1        9.881  -3.352   0.504  0.00  0.00    -0.017 A 
ATOM     11  C   LIG    1        9.534  -2.092   1.007  0.00  0.00    +0.052 A 
ATOM     12  C   LIG    1        8.212  -1.658   0.956  0.00  0.00    +0.136 A 
ATOM     13  O   LIG    1        7.947  -0.394   1.460  0.00  0.00    -0.463 OA
ATOM     14  C   LIG    1        6.923   0.319   0.795  0.00  0.00    +0.316 C 
ATOM     15  N   LIG    1        5.755  -0.505   0.512  0.00  0.00    -0.300 N 
ATOM     16  C   LIG    1        4.436  -0.096   0.389  0.00  0.00    +0.053 A 
ATOM     17  C   LIG    1        3.849   1.171   0.484  0.00  0.00    +0.027 A 
ATOM     18  C   LIG    1        2.466   1.246   0.318  0.00  0.00    +0.007 A 
ENDROOT
BRANCH   1  23
ATOM     19  C   LIG    1       -1.831   1.257  -0.337  0.00  0.00    +0.124 C 
ATOM     20  N   LIG    1       -2.029  -0.102  -0.274  0.00  0.00    -0.288 NA
ATOM     21  H   LIG    1       -2.928  -0.563  -0.315  0.00  0.00    +0.124 HD
ATOM     22  C   LIG    1       -0.807  -0.735  -0.131  0.00  0.00    +0.101 C 
ATOM     23  C   LIG    1        0.197   0.236  -0.094  0.00  0.00    +0.087 C 
ATOM     24  N   LIG    1       -0.470   1.447  -0.238  0.00  0.00    -0.282 NA
ATOM     25  H   LIG    1       -0.018   2.350  -0.244  0.00  0.00    +0.125 HD
BRANCH  19  28
ATOM     26  C   LIG    1       -2.404   3.713   1.547  0.00  0.00    +0.237 C 
ATOM     27  N   LIG    1       -2.618   3.614   0.209  0.00  0.00    -0.294 N 
ATOM     28  C   LIG    1       -2.902   2.331  -0.468  0.00  0.00    +0.114 C 
ATOM     29  C   LIG    1       -3.177   2.744  -1.921  0.00  0.00    +0.027 C 
ATOM     30  C   LIG    1       -2.487   4.086  -2.080  0.00  0.00    +0.021 C 
ATOM     31  C   LIG    1       -2.663   4.752  -0.719  0.00  0.00    +0.108 C 
ATOM     32  O   LIG    1       -2.468   2.738   2.303  0.00  0.00    -0.274 OA
BRANCH  26  33
ATOM     33  C   LIG    1       -2.001   5.094   2.155  0.00  0.00    +0.165 C 
BRANCH  33  34
ATOM     34  N   LIG    1       -2.345   5.255   3.582  0.00  0.00    -0.270 N 
ATOM     35  H   LIG    1       -1.600   5.414   4.244  0.00  0.00    +0.153 HD
ATOM     36  C   LIG    1       -3.666   5.285   4.019  0.00  0.00    +0.401 C 
ATOM     37  O   LIG    1       -4.672   5.193   3.311  0.00  0.00    -0.226 OA
BRANCH  36  38
ATOM     38  O   LIG    1       -3.676   5.444   5.357  0.00  0.00    -0.454 OA
ATOM     39  C   LIG    1       -4.903   5.509   6.070  0.00  0.00    +0.282 C 
ENDBRANCH  36  38
ENDBRANCH  33  34
BRANCH  33  41
ATOM     40  C   LIG    1        0.443   4.257   2.647  0.00  0.00    +0.009 C 
ATOM     41  C   LIG    1       -0.461   5.290   1.934  0.00  0.00    +0.012 C 
ATOM     42  C   LIG    1       -0.012   6.719   2.296  0.00  0.00    +0.009 C 
ENDBRANCH  33  41
ENDBRANCH  26  33
ENDBRANCH  19  28
ENDBRANCH   1  23
BRANCH  10  43
ATOM     43  C   LIG    1       11.307  -3.783   0.457  0.00  0.00    +0.087 C 
ATOM     44  N   LIG    1       12.362  -2.888   0.551  0.00  0.00    -0.282 NA
ATOM     45  H   LIG    1       12.254  -1.891   0.674  0.00  0.00    +0.125 HD
ATOM     46  C   LIG    1       13.572  -3.516   0.362  0.00  0.00    +0.124 C 
ATOM     47  N   LIG    1       13.280  -4.850   0.199  0.00  0.00    -0.288 NA
ATOM     48  H   LIG    1       13.960  -5.580   0.032  0.00  0.00    +0.124 HD
ATOM     49  C   LIG    1       11.907  -5.029   0.256  0.00  0.00    +0.101 C 
BRANCH  46  50
ATOM     50  C   LIG    1       14.938  -2.847   0.303  0.00  0.00    +0.114 C 
ATOM     51  N   LIG    1       14.949  -1.473  -0.254  0.00  0.00    -0.294 N 
ATOM     52  C   LIG    1       14.427  -1.150  -1.470  0.00  0.00    +0.237 C 
ATOM     53  O   LIG    1       13.906  -1.984  -2.215  0.00  0.00    -0.274 OA
ATOM     54  C   LIG    1       15.681  -0.532   0.606  0.00  0.00    +0.108 C 
ATOM     55  C   LIG    1       16.450  -1.455   1.546  0.00  0.00    +0.021 C 
ATOM     56  C   LIG    1       15.543  -2.659   1.700  0.00  0.00    +0.027 C 
BRANCH  52  57
ATOM     57  C   LIG    1       14.406   0.342  -1.936  0.00  0.00    +0.165 C 
BRANCH  57  58
ATOM     58  N   LIG    1       15.172   0.551  -3.179  0.00  0.00    -0.270 N 
ATOM     59  H   LIG    1       14.688   0.929  -3.980  0.00  0.00    +0.153 HD
ATOM     60  C   LIG    1       16.547   0.351  -3.254  0.00  0.00    +0.401 C 
ATOM     61  O   LIG    1       17.287  -0.018  -2.338  0.00  0.00    -0.226 OA
BRANCH  60  62
ATOM     62  O   LIG    1       16.957   0.637  -4.505  0.00  0.00    -0.454 OA
ATOM     63  C   LIG    1       18.328   0.525  -4.863  0.00  0.00    +0.282 C 
ENDBRANCH  60  62
ENDBRANCH  57  58
BRANCH  57  64
ATOM     64  C   LIG    1       12.914   0.788  -2.153  0.00  0.00    +0.012 C 
ATOM     65  C   LIG    1       11.966   0.519  -0.961  0.00  0.00    +0.009 C 
ATOM     66  C   LIG    1       12.807   2.276  -2.547  0.00  0.00    +0.009 C 
ENDBRANCH  57  64
ENDBRANCH  52  57
ENDBRANCH  46  50
ENDBRANCH  10  43
BRANCH  14  67
ATOM     67  C   LIG    1        7.497   1.019  -0.396  0.00  0.00    +0.071 A 
ATOM     68  S   LIG    1        7.761   0.255  -1.944  0.00  0.00    -0.071 S 
ATOM     69  C   LIG    1        8.478   1.728  -2.538  0.00  0.00    +0.082 A 
ATOM     70  N   LIG    1        8.487   2.690  -1.649  0.00  0.00    -0.252 NA
ATOM     71  C   LIG    1        7.964   2.326  -0.496  0.00  0.00    +0.128 A 
BRANCH  69  72
ATOM     72  C   LIG    1        9.069   1.918  -3.926  0.00  0.00    +0.045 C 
ATOM     73  C   LIG    1        9.919   0.832  -4.547  0.00  0.00    +0.011 C 
ATOM     74  C   LIG    1        8.551   1.137  -5.114  0.00  0.00    +0.011 C 
ENDBRANCH  69  72
ENDBRANCH  14  67
TORSDOF 14
