REMARK  Name = DB11674
REMARK                            x       y       z     vdW  Elec       q    Type
REMARK                         _______ _______ _______ _____ _____    ______ ____
ROOT
ATOM      1  O   LIG    1       -1.969  -0.686  -1.316  0.00  0.00    -0.491 OA
ATOM      2  C   LIG    1       -2.657  -0.986  -0.152  0.00  0.00    +0.127 A 
ATOM      3  C   LIG    1       -4.039  -1.124  -0.288  0.00  0.00    +0.091 A 
ATOM      4  C   LIG    1       -4.831  -1.334   0.840  0.00  0.00    +0.120 A 
ATOM      5  C   LIG    1       -4.243  -1.395   2.102  0.00  0.00    +0.046 A 
ATOM      6  C   LIG    1       -2.862  -1.252   2.237  0.00  0.00    +0.011 A 
ATOM      7  C   LIG    1       -2.047  -1.052   1.117  0.00  0.00    -0.005 A 
ATOM      8  C   LIG    1       -0.533  -0.940   1.231  0.00  0.00    +0.050 C 
ATOM      9  C   LIG    1        0.022  -0.157   0.024  0.00  0.00    +0.061 C 
ATOM     10  C   LIG    1       -0.541  -0.798  -1.266  0.00  0.00    +0.237 C 
ENDROOT
BRANCH   9  11
ATOM     11  C   LIG    1        1.550  -0.064   0.017  0.00  0.00    -0.041 A 
ATOM     12  C   LIG    1        2.171   1.190   0.009  0.00  0.00    +0.007 A 
ATOM     13  C   LIG    1        3.560   1.283  -0.004  0.00  0.00    +0.045 A 
ATOM     14  C   LIG    1        4.331   0.122  -0.009  0.00  0.00    +0.117 A 
ATOM     15  C   LIG    1        3.722  -1.131  -0.004  0.00  0.00    +0.045 A 
ATOM     16  C   LIG    1        2.333  -1.224   0.009  0.00  0.00    +0.007 A 
BRANCH  14  17
ATOM     17  O   LIG    1        5.698   0.212  -0.020  0.00  0.00    -0.507 OA
ATOM     18  H   LIG    1        6.013   1.119  -0.013  0.00  0.00    +0.292 HD
ENDBRANCH  14  17
ENDBRANCH   9  11
BRANCH   4  19
ATOM     19  O   LIG    1       -6.188  -1.470   0.708  0.00  0.00    -0.507 OA
ATOM     20  H   LIG    1       -6.633  -1.602   1.548  0.00  0.00    +0.292 HD
ENDBRANCH   4  19
TORSDOF 3
