REMARK  Name = DB11738
REMARK                            x       y       z     vdW  Elec       q    Type
REMARK                         _______ _______ _______ _____ _____    ______ ____
ROOT
ATOM      1  C   LIG    1       -0.068   0.187   0.126  0.00  0.00    +0.081 C 
ENDROOT
BRANCH   1   3
ATOM      2  C   LIG    1       -1.880  -0.710   1.824  0.00  0.00    +0.006 C 
ATOM      3  C   LIG    1       -0.521  -0.837   1.184  0.00  0.00    +0.010 C 
ATOM      4  C   LIG    1       -0.625  -0.425   2.631  0.00  0.00    +0.006 C 
ENDBRANCH   1   3
BRANCH   1   5
ATOM      5  C   LIG    1       -0.651  -0.194  -1.261  0.00  0.00    +0.010 C 
ATOM      6  C   LIG    1       -0.009   0.238  -2.560  0.00  0.00    +0.006 C 
ATOM      7  C   LIG    1        0.025  -1.220  -2.139  0.00  0.00    +0.006 C 
ENDBRANCH   1   5
BRANCH   1   8
ATOM      8  N   LIG    1        1.388   0.328   0.157  0.00  0.00    -0.296 N 
ATOM      9  H   LIG    1        1.908  -0.533   0.071  0.00  0.00    +0.151 HD
BRANCH   8  10
ATOM     10  C   LIG    1        2.053   1.531   0.004  0.00  0.00    +0.278 C 
ATOM     11  O   LIG    1        3.410   1.426   0.041  0.00  0.00    -0.464 OA
ATOM     12  C   LIG    1        3.974   2.703  -0.132  0.00  0.00    +0.255 C 
ATOM     13  C   LIG    1        2.728   3.571  -0.261  0.00  0.00    +0.187 C 
ATOM     14  N   LIG    1        1.593   2.702  -0.160  0.00  0.00    -0.233 NA
ENDBRANCH   8  10
ENDBRANCH   1   8
TORSDOF 4
