REMARK  Name = DB11868
REMARK                            x       y       z     vdW  Elec       q    Type
REMARK                         _______ _______ _______ _____ _____    ______ ____
ROOT
ATOM      1  C   LIG    1        1.427   0.035   0.024  0.00  0.00    +0.161 C 
ENDROOT
BRANCH   1   2
ATOM      2  N   LIG    1        1.971   0.721  -1.172  0.00  0.00    -0.290 N 
ATOM      3  C   LIG    1        3.004   1.598  -1.102  0.00  0.00    +0.216 C 
ATOM      4  O   LIG    1        3.596   2.002  -0.101  0.00  0.00    -0.276 OA
ATOM      5  C   LIG    1        3.333   1.997  -2.539  0.00  0.00    +0.097 C 
ATOM      6  C   LIG    1        2.191   1.480  -3.389  0.00  0.00    +0.028 C 
ATOM      7  C   LIG    1        1.532   0.415  -2.536  0.00  0.00    +0.109 C 
ENDBRANCH   1   2
BRANCH   1   8
ATOM      8  C   LIG    1        2.150  -1.329   0.180  0.00  0.00    +0.231 C 
ATOM      9  O   LIG    1        1.547  -2.393   0.051  0.00  0.00    -0.274 OA
ATOM     10  N   LIG    1        3.451  -1.306   0.485  0.00  0.00    -0.328 N 
ATOM     11  H   LIG    1        3.958  -2.170   0.606  0.00  0.00    +0.145 HD
ATOM     12  H   LIG    1        3.934  -0.425   0.592  0.00  0.00    +0.145 HD
ENDBRANCH   1   8
BRANCH   1  14
ATOM     13  C   LIG    1       -0.855   1.255  -0.035  0.00  0.00    +0.006 C 
ATOM     14  C   LIG    1       -0.122  -0.096   0.020  0.00  0.00    +0.028 C 
ENDBRANCH   1  14
TORSDOF 3
