REMARK  Name = DB11882
REMARK                            x       y       z     vdW  Elec       q    Type
REMARK                         _______ _______ _______ _____ _____    ______ ____
ROOT
ATOM      1  CA  PRO A  8       -3.096   2.195  -1.854  0.00  0.00    +0.162 C 
ATOM      2  N   PRO A  8       -4.294   1.765  -1.100  0.00  0.00    -0.288 N 
ATOM      3  C   LYS A  7       -4.922   0.583  -1.325  0.00  0.00    +0.237 C 
ATOM      4  O   LYS A  7       -4.703  -0.129  -2.307  0.00  0.00    -0.274 OA
ATOM      5  CD  PRO A  8       -4.644   2.756  -0.082  0.00  0.00    +0.109 C 
ATOM      6  CG  PRO A  8       -4.015   4.048  -0.578  0.00  0.00    +0.021 C 
ATOM      7  CB  PRO A  8       -2.740   3.566  -1.245  0.00  0.00    +0.033 C 
ENDROOT
BRANCH   1  10
ATOM      8  N   ALA A  9       -1.346   0.812  -2.872  0.00  0.00    -0.303 N 
ATOM      9  H   ALA A  9       -1.678   1.194  -3.746  0.00  0.00    +0.149 HD
ATOM     10  C   PRO A  8       -1.924   1.202  -1.723  0.00  0.00    +0.234 C 
ATOM     11  O   PRO A  8       -1.596   0.803  -0.605  0.00  0.00    -0.274 OA
BRANCH   8  13
ATOM     12  CB  ALA A  9        0.050  -0.400  -4.464  0.00  0.00    +0.038 C 
ATOM     13  CA  ALA A  9       -0.240  -0.144  -2.978  0.00  0.00    +0.156 C 
BRANCH  13  14
ATOM     14  C   ALA A  9        1.032   0.324  -2.252  0.00  0.00    +0.234 C 
ATOM     15  N   ASP A 10        1.677  -0.620  -1.546  0.00  0.00    -0.302 N 
ATOM     16  H   ASP A 10        1.310  -1.560  -1.537  0.00  0.00    +0.150 HD
ATOM     17  O   ALA A  9        1.391   1.498  -2.346  0.00  0.00    -0.274 OA
BRANCH  15  18
ATOM     18  CA  ASP A 10        2.881  -0.406  -0.735  0.00  0.00    +0.169 C 
BRANCH  18  19
ATOM     19  C   ASP A 10        4.138  -0.570  -1.609  0.00  0.00    +0.234 C 
ATOM     20  N   ASP A 11        4.385   0.432  -2.469  0.00  0.00    -0.302 N 
ATOM     21  H   ASP A 11        3.757   1.223  -2.490  0.00  0.00    +0.150 HD
ATOM     22  O   ASP A 10        4.831  -1.585  -1.517  0.00  0.00    -0.274 OA
BRANCH  20  23
ATOM     23  CA  ASP A 11        5.487   0.478  -3.434  0.00  0.00    +0.169 C 
BRANCH  23  24
ATOM     24  C   ASP A 11        6.849   0.683  -2.750  0.00  0.00    +0.234 C 
ATOM     25  N   ALA A 12        7.883   0.035  -3.314  0.00  0.00    -0.303 N 
ATOM     26  H   ALA A 12        7.718  -0.540  -4.127  0.00  0.00    +0.149 HD
ATOM     27  O   ASP A 11        6.942   1.416  -1.764  0.00  0.00    -0.274 OA
BRANCH  25  28
ATOM     28  CA  ALA A 12        9.276   0.136  -2.876  0.00  0.00    +0.156 C 
ATOM     29  CB  ALA A 12       10.087  -0.983  -3.546  0.00  0.00    +0.038 C 
BRANCH  28  30
ATOM     30  C   ALA A 12        9.882   1.513  -3.196  0.00  0.00    +0.233 C 
ATOM     31  N   GLY A 13       10.732   2.007  -2.281  0.00  0.00    -0.305 N 
ATOM     32  H   GLY A 13       10.927   1.471  -1.448  0.00  0.00    +0.149 HD
ATOM     33  O   ALA A 12        9.586   2.082  -4.248  0.00  0.00    -0.274 OA
BRANCH  31  34
ATOM     34  CA  GLY A 13       11.324   3.340  -2.359  0.00  0.00    +0.200 C 
BRANCH  34  35
ATOM     35  C   GLY A 13       10.278   4.369  -1.914  0.00  0.00    +0.231 C 
ATOM     36  N   LEU A 14       10.095   5.422  -2.728  0.00  0.00    -0.303 N 
ATOM     37  H   LEU A 14       10.634   5.488  -3.579  0.00  0.00    +0.149 HD
ATOM     38  O   GLY A 13        9.670   4.217  -0.853  0.00  0.00    -0.274 OA
BRANCH  36  39
ATOM     39  CA  LEU A 14        9.076   6.457  -2.540  0.00  0.00    +0.159 C 
BRANCH  39  40
ATOM     40  C   LEU A 14        7.660   5.900  -2.774  0.00  0.00    +0.234 C 
ATOM     41  N   VAL A 15        6.717   6.341  -1.927  0.00  0.00    -0.301 N 
ATOM     42  H   VAL A 15        6.967   7.022  -1.225  0.00  0.00    +0.150 HD
ATOM     43  O   LEU A 14        7.456   5.117  -3.703  0.00  0.00    -0.274 OA
BRANCH  41  44
ATOM     44  CA  VAL A 15        5.290   5.969  -1.951  0.00  0.00    +0.184 C 
BRANCH  44  45
ATOM     45  CB  VAL A 15        5.064   4.488  -1.480  0.00  0.00    +0.014 C 
ATOM     46  CG2 VAL A 15        5.510   4.192  -0.033  0.00  0.00    +0.009 C 
ATOM     47  CG1 VAL A 15        3.634   3.973  -1.722  0.00  0.00    +0.009 C 
ENDBRANCH  44  45
BRANCH  44  48
ATOM     48  C   VAL A 15        4.443   7.019  -1.127  0.00  0.00    +0.326 C 
ATOM     49  O   VAL A 15        4.959   7.482  -0.079  0.00  0.00    -0.249 OA
BRANCH  48  50
ATOM     50  OXT VAL A 15        3.316   7.272  -1.614  0.00  0.00    -0.479 OA
ATOM     51  HXT VAL A 15        3.046   6.857  -2.409  0.00  0.00    +0.295 HD
ENDBRANCH  48  50
ENDBRANCH  44  48
ENDBRANCH  41  44
ENDBRANCH  39  40
BRANCH  39  52
ATOM     52  CB  LEU A 14        9.357   7.633  -3.504  0.00  0.00    +0.034 C 
BRANCH  52  53
ATOM     53  CG  LEU A 14       10.689   8.377  -3.254  0.00  0.00    -0.015 C 
ATOM     54  CD2 LEU A 14       10.966   9.405  -4.372  0.00  0.00    +0.007 C 
ATOM     55  CD1 LEU A 14       10.756   9.011  -1.848  0.00  0.00    +0.007 C 
ENDBRANCH  52  53
ENDBRANCH  39  52
ENDBRANCH  36  39
ENDBRANCH  34  35
ENDBRANCH  31  34
ENDBRANCH  28  30
ENDBRANCH  25  28
ENDBRANCH  23  24
BRANCH  23  56
ATOM     56  CB  ASP A 11        5.274   1.565  -4.522  0.00  0.00    +0.152 C 
BRANCH  56  57
ATOM     57  CG  ASP A 11        3.945   1.500  -5.301  0.00  0.00    +0.307 C 
ATOM     58  OD1 ASP A 11        3.602   2.543  -5.902  0.00  0.00    -0.251 OA
BRANCH  57  59
ATOM     59  OD2 ASP A 11        3.372   0.394  -5.428  0.00  0.00    -0.481 OA
ATOM     60  HD2 ASP A 11        3.680  -0.350  -4.948  0.00  0.00    +0.295 HD
ENDBRANCH  57  59
ENDBRANCH  56  57
ENDBRANCH  23  56
ENDBRANCH  20  23
ENDBRANCH  18  19
BRANCH  18  61
ATOM     61  CB  ASP A 10        2.917  -1.330   0.517  0.00  0.00    +0.152 C 
BRANCH  61  62
ATOM     62  CG  ASP A 10        1.690  -1.283   1.451  0.00  0.00    +0.307 C 
ATOM     63  OD1 ASP A 10        0.973  -0.257   1.465  0.00  0.00    -0.251 OA
BRANCH  62  64
ATOM     64  OD2 ASP A 10        1.562  -2.236   2.251  0.00  0.00    -0.481 OA
ATOM     65  HD2 ASP A 10        2.131  -2.978   2.191  0.00  0.00    +0.295 HD
ENDBRANCH  62  64
ENDBRANCH  61  62
ENDBRANCH  18  61
ENDBRANCH  15  18
ENDBRANCH  13  14
ENDBRANCH   8  13
ENDBRANCH   1  10
BRANCH   3  66
ATOM     66  CA  LYS A  7       -5.920   0.065  -0.260  0.00  0.00    +0.159 C 
BRANCH  66  67
ATOM     67  N   LYS A  7       -7.254  -0.151  -0.827  0.00  0.00    -0.303 N 
ATOM     68  H   LYS A  7       -7.554  -1.114  -0.869  0.00  0.00    +0.149 HD
ATOM     69  C   GLY A  6       -8.082   0.804  -1.281  0.00  0.00    +0.231 C 
ATOM     70  O   GLY A  6       -7.799   2.003  -1.282  0.00  0.00    -0.274 OA
BRANCH  69  71
ATOM     71  CA  GLY A  6       -9.426   0.312  -1.840  0.00  0.00    +0.200 C 
BRANCH  71  72
ATOM     72  N   GLY A  6      -10.455   1.344  -1.708  0.00  0.00    -0.305 N 
ATOM     73  H   GLY A  6      -10.701   1.847  -2.548  0.00  0.00    +0.149 HD
ATOM     74  C   PRO A  5      -11.053   1.671  -0.550  0.00  0.00    +0.234 C 
ATOM     75  O   PRO A  5      -10.834   1.117   0.529  0.00  0.00    -0.274 OA
BRANCH  74  76
ATOM     76  CA  PRO A  5      -12.083   2.813  -0.624  0.00  0.00    +0.162 C 
ATOM     77  N   PRO A  5      -13.404   2.471  -0.052  0.00  0.00    -0.288 N 
ATOM     78  C   PRO A  4      -14.152   1.421  -0.474  0.00  0.00    +0.237 C 
ATOM     79  O   PRO A  4      -13.845   0.711  -1.435  0.00  0.00    -0.274 OA
ATOM     80  CD  PRO A  5      -13.788   3.439   0.980  0.00  0.00    +0.109 C 
ATOM     81  CG  PRO A  5      -12.911   4.654   0.715  0.00  0.00    +0.021 C 
ATOM     82  CB  PRO A  5      -11.627   4.035   0.197  0.00  0.00    +0.033 C 
BRANCH  78  83
ATOM     83  CA  PRO A  4      -15.421   1.070   0.344  0.00  0.00    +0.162 C 
ATOM     84  N   PRO A  4      -16.291   0.078  -0.318  0.00  0.00    -0.288 N 
ATOM     85  C   PRO A  3      -17.065   0.390  -1.385  0.00  0.00    +0.237 C 
ATOM     86  O   PRO A  3      -17.101   1.512  -1.894  0.00  0.00    -0.274 OA
ATOM     87  CD  PRO A  4      -16.236  -1.221   0.358  0.00  0.00    +0.109 C 
ATOM     88  CG  PRO A  4      -15.089  -1.103   1.354  0.00  0.00    +0.021 C 
ATOM     89  CB  PRO A  4      -15.073   0.382   1.677  0.00  0.00    +0.033 C 
BRANCH  85  90
ATOM     90  CA  PRO A  3      -17.913  -0.750  -2.004  0.00  0.00    +0.162 C 
ATOM     91  N   PRO A  3      -19.017  -0.254  -2.849  0.00  0.00    -0.288 N 
ATOM     92  C   GLU A  2      -20.114   0.345  -2.325  0.00  0.00    +0.237 C 
ATOM     93  O   GLU A  2      -20.297   0.484  -1.114  0.00  0.00    -0.274 OA
ATOM     94  CD  PRO A  3      -18.762  -0.507  -4.270  0.00  0.00    +0.109 C 
ATOM     95  CG  PRO A  3      -17.307  -0.953  -4.340  0.00  0.00    +0.021 C 
ATOM     96  CB  PRO A  3      -17.086  -1.602  -2.984  0.00  0.00    +0.033 C 
BRANCH  92  97
ATOM     97  CA  GLU A  2      -21.176   0.894  -3.312  0.00  0.00    +0.159 C 
BRANCH  97  98
ATOM     98  N   GLU A  2      -22.521   0.865  -2.729  0.00  0.00    -0.306 N 
ATOM     99  H   GLU A  2      -22.896   1.767  -2.472  0.00  0.00    +0.149 HD
ATOM    100  C   GLY A  1      -23.245  -0.241  -2.484  0.00  0.00    +0.196 C 
ATOM    101  O   GLY A  1      -22.842  -1.372  -2.776  0.00  0.00    -0.278 OA
BRANCH 100 102
ATOM    102  CA  GLY A  1      -24.611   0.024  -1.813  0.00  0.00    +0.011 C 
BRANCH 102 103
ATOM    103  N   GLY A  1      -25.342  -1.244  -1.533  0.00  0.00    +0.384 N 
ATOM    104  H1  GLY A  1      -25.521  -1.755  -2.386  0.00  0.00    -0.089 HD
ATOM    105  H2  GLY A  1      -24.809  -1.837  -0.913  0.00  0.00    -0.089 HD
ATOM    106  H3  GLY A  1      -26.232  -1.057  -1.093  0.00  0.00    -0.089 HD
ENDBRANCH 102 103
ENDBRANCH 100 102
ENDBRANCH  97  98
BRANCH  97 107
ATOM    107  CB  GLU A  2      -20.872   2.349  -3.741  0.00  0.00    +0.043 C 
BRANCH 107 108
ATOM    108  CG  GLU A  2      -20.757   3.381  -2.589  0.00  0.00    +0.123 C 
BRANCH 108 109
ATOM    109  CD  GLU A  2      -20.550   4.843  -3.026  0.00  0.00    +0.305 C 
ATOM    110  OE1 GLU A  2      -20.517   5.692  -2.107  0.00  0.00    -0.251 OA
BRANCH 109 111
ATOM    111  OE2 GLU A  2      -20.431   5.109  -4.243  0.00  0.00    -0.481 OA
ATOM    112  HE2 GLU A  2      -20.466   4.421  -4.879  0.00  0.00    +0.295 HD
ENDBRANCH 109 111
ENDBRANCH 108 109
ENDBRANCH 107 108
ENDBRANCH  97 107
ENDBRANCH  92  97
ENDBRANCH  85  90
ENDBRANCH  78  83
ENDBRANCH  74  76
ENDBRANCH  71  72
ENDBRANCH  69  71
ENDBRANCH  66  67
BRANCH  66 113
ATOM    113  CB  LYS A  7       -5.448  -1.282   0.342  0.00  0.00    +0.032 C 
BRANCH 113 114
ATOM    114  CG  LYS A  7       -4.005  -1.265   0.886  0.00  0.00    +0.000 C 
BRANCH 114 115
ATOM    115  CD  LYS A  7       -3.618  -2.553   1.632  0.00  0.00    -0.019 C 
BRANCH 115 116
ATOM    116  CE  LYS A  7       -2.130  -2.616   2.029  0.00  0.00    -0.086 C 
BRANCH 116 117
ATOM    117  NZ  LYS A  7       -1.763  -1.602   3.035  0.00  0.00    +0.378 N 
ATOM    118  HZ1 LYS A  7       -1.934  -0.680   2.660  0.00  0.00    -0.090 HD
ATOM    119  HZ2 LYS A  7       -2.307  -1.737   3.875  0.00  0.00    -0.090 HD
ATOM    120  HZ3 LYS A  7       -0.779  -1.691   3.248  0.00  0.00    -0.090 HD
ENDBRANCH 116 117
ENDBRANCH 115 116
ENDBRANCH 114 115
ENDBRANCH 113 114
ENDBRANCH  66 113
ENDBRANCH   3  66
TORSDOF 45
