REMARK  Name = DB11947
REMARK                            x       y       z     vdW  Elec       q    Type
REMARK                         _______ _______ _______ _____ _____    ______ ____
ROOT
ATOM      1  N   LIG    1        1.441   0.071  -0.126  0.00  0.00    +0.380 N 
ATOM      2  H   LIG    1        1.744   0.555   0.708  0.00  0.00    -0.082 HD
ATOM      3  C   LIG    1        1.974  -1.380  -0.047  0.00  0.00    -0.078 C 
ATOM      4  C   LIG    1        3.510  -1.360   0.044  0.00  0.00    -0.011 C 
ATOM      5  C   LIG    1        4.150  -0.592  -1.134  0.00  0.00    +0.016 C 
ATOM      6  C   LIG    1        3.556   0.827  -1.271  0.00  0.00    -0.011 C 
ATOM      7  C   LIG    1        2.019   0.806  -1.360  0.00  0.00    -0.078 C 
ENDROOT
BRANCH   5   8
ATOM      8  C   LIG    1        5.679  -0.569  -1.054  0.00  0.00    -0.043 A 
ATOM      9  C   LIG    1        6.447  -1.102  -2.097  0.00  0.00    +0.030 A 
ATOM     10  C   LIG    1        7.843  -1.082  -2.034  0.00  0.00    +0.088 A 
ATOM     11  C   LIG    1        8.480  -0.530  -0.919  0.00  0.00    +0.027 A 
ATOM     12  C   LIG    1        7.723   0.004   0.123  0.00  0.00    +0.002 A 
ATOM     13  C   LIG    1        6.330  -0.012   0.055  0.00  0.00    +0.004 A 
BRANCH  10  14
ATOM     14  S   LIG    1        8.812  -1.767  -3.375  0.00  0.00    -0.006 S 
ATOM     15  C   LIG    1        9.019  -3.574  -2.877  0.00  0.00    +0.200 C 
ATOM     16  O   LIG    1       10.129  -1.121  -3.343  0.00  0.00    -0.170 OA
ATOM     17  O   LIG    1        7.989  -1.709  -4.588  0.00  0.00    -0.170 OA
ENDBRANCH  10  14
ENDBRANCH   5   8
BRANCH   1  18
ATOM     18  C   LIG    1       -0.108   0.041  -0.147  0.00  0.00    -0.079 C 
BRANCH  18  20
ATOM     19  C   LIG    1       -2.231   1.401   0.242  0.00  0.00    +0.002 C 
ATOM     20  C   LIG    1       -0.706   1.442   0.079  0.00  0.00    -0.022 C 
ENDBRANCH  18  20
ENDBRANCH   1  18
TORSDOF 4
