REMARK  Name = DB11711
REMARK                            x       y       z     vdW  Elec       q    Type
REMARK                         _______ _______ _______ _____ _____    ______ ____
ROOT
ATOM      1  C   LIG    1        1.883  -0.486  -1.371  0.00  0.00    +0.104 C 
ATOM      2  C   LIG    1        1.284  -1.463  -2.371  0.00  0.00    +0.250 C 
ATOM      3  O   LIG    1        0.168  -1.734  -2.813  0.00  0.00    -0.282 OA
ATOM      4  C   LIG    1        2.759  -1.966  -2.593  0.00  0.00    +0.250 C 
ATOM      5  O   LIG    1        3.324  -2.797  -3.303  0.00  0.00    -0.282 OA
ATOM      6  C   LIG    1        3.153  -0.946  -1.534  0.00  0.00    +0.108 C 
ENDROOT
BRANCH   1   7
ATOM      7  N   LIG    1        1.269   0.461  -0.581  0.00  0.00    -0.329 N 
ATOM      8  H   LIG    1        1.849   1.055  -0.006  0.00  0.00    +0.147 HD
BRANCH   7   9
ATOM      9  C   LIG    1       -0.128   0.463  -0.163  0.00  0.00    +0.137 C 
BRANCH   9  10
ATOM     10  C   LIG    1       -0.399  -0.639   0.852  0.00  0.00    +0.125 A 
ATOM     11  O   LIG    1       -0.450  -1.907   0.365  0.00  0.00    -0.463 OA
ATOM     12  C   LIG    1       -0.669  -2.751   1.406  0.00  0.00    +0.102 A 
ATOM     13  C   LIG    1       -0.752  -4.220   1.073  0.00  0.00    +0.086 C 
ATOM     14  C   LIG    1       -0.762  -2.018   2.577  0.00  0.00    +0.045 A 
ATOM     15  C   LIG    1       -0.582  -0.679   2.229  0.00  0.00    +0.047 A 
ENDBRANCH   9  10
BRANCH   9  16
ATOM     16  C   LIG    1       -0.560   1.865   0.324  0.00  0.00    +0.030 C 
BRANCH  16  18
ATOM     17  C   LIG    1       -2.471   3.428   1.017  0.00  0.00    +0.004 C 
ATOM     18  C   LIG    1       -2.073   2.011   0.582  0.00  0.00    -0.001 C 
ENDBRANCH  16  18
ENDBRANCH   9  16
ENDBRANCH   7   9
ENDBRANCH   1   7
BRANCH   6  19
ATOM     19  N   LIG    1        4.387  -0.640  -0.998  0.00  0.00    -0.307 N 
ATOM     20  H   LIG    1        4.498   0.263  -0.560  0.00  0.00    +0.152 HD
BRANCH  19  21
ATOM     21  C   LIG    1        5.610  -1.295  -1.264  0.00  0.00    +0.074 A 
ATOM     22  C   LIG    1        5.899  -2.654  -0.949  0.00  0.00    +0.150 A 
ATOM     23  C   LIG    1        7.182  -3.178  -1.285  0.00  0.00    +0.080 A 
ATOM     24  C   LIG    1        8.118  -2.354  -1.920  0.00  0.00    +0.017 A 
ATOM     25  C   LIG    1        7.832  -1.024  -2.195  0.00  0.00    +0.003 A 
ATOM     26  C   LIG    1        6.590  -0.499  -1.862  0.00  0.00    +0.027 A 
BRANCH  23  27
ATOM     27  C   LIG    1        7.602  -4.617  -1.051  0.00  0.00    +0.250 C 
ATOM     28  N   LIG    1        8.060  -4.958   0.182  0.00  0.00    -0.304 N 
ATOM     29  C   LIG    1        8.423  -6.336   0.518  0.00  0.00    +0.132 C 
ATOM     30  C   LIG    1        8.238  -4.025   1.300  0.00  0.00    +0.132 C 
ATOM     31  O   LIG    1        7.487  -5.419  -1.980  0.00  0.00    -0.270 OA
ENDBRANCH  23  27
BRANCH  22  32
ATOM     32  O   LIG    1        5.024  -3.376  -0.336  0.00  0.00    -0.504 OA
ATOM     33  H   LIG    1        4.186  -3.016  -0.123  0.00  0.00    +0.292 HD
ENDBRANCH  22  32
ENDBRANCH  19  21
ENDBRANCH   6  19
TORSDOF 9
