REMARK  Name = DB11195
REMARK                            x       y       z     vdW  Elec       q    Type
REMARK                         _______ _______ _______ _____ _____    ______ ____
ROOT
ATOM      1  C   LIG    1        1.419   0.174  -0.105  0.00  0.00    +0.176 C 
ENDROOT
BRANCH   1   2
ATOM      2  O   LIG    1        1.790   0.851  -1.297  0.00  0.00    -0.387 OA
ATOM      3  H   LIG    1        2.736   1.013  -1.270  0.00  0.00    +0.210 HD
ENDBRANCH   1   2
BRANCH   1   4
ATOM      4  C   LIG    1       -0.121  -0.046  -0.026  0.00  0.00    +0.171 C 
BRANCH   4   5
ATOM      5  O   LIG    1       -0.809   1.177   0.183  0.00  0.00    -0.387 OA
ATOM      6  H   LIG    1       -0.571   1.518   1.048  0.00  0.00    +0.210 HD
ENDBRANCH   4   5
BRANCH   4   7
ATOM      7  C   LIG    1       -0.707  -0.747  -1.276  0.00  0.00    +0.189 C 
BRANCH   7   8
ATOM      8  O   LIG    1       -2.021  -1.215  -1.037  0.00  0.00    -0.392 OA
ATOM      9  H   LIG    1       -2.350  -1.622  -1.841  0.00  0.00    +0.210 HD
ENDBRANCH   7   8
ENDBRANCH   4   7
ENDBRANCH   1   4
BRANCH   1  10
ATOM     10  C   LIG    1        2.063   0.844   1.148  0.00  0.00    +0.171 C 
BRANCH  10  11
ATOM     11  O   LIG    1        1.781   2.232   1.229  0.00  0.00    -0.387 OA
ATOM     12  H   LIG    1        0.876   2.380   0.945  0.00  0.00    +0.210 HD
ENDBRANCH  10  11
BRANCH  10  13
ATOM     13  C   LIG    1        3.584   0.603   1.311  0.00  0.00    +0.189 C 
BRANCH  13  14
ATOM     14  O   LIG    1        4.343   1.116   0.232  0.00  0.00    -0.392 OA
ATOM     15  H   LIG    1        5.274   0.973   0.418  0.00  0.00    +0.210 HD
ENDBRANCH  13  14
ENDBRANCH  10  13
ENDBRANCH   1  10
TORSDOF 9
