REMARK  Name = DB11791
REMARK                            x       y       z     vdW  Elec       q    Type
REMARK                         _______ _______ _______ _____ _____    ______ ____
ROOT
ATOM      1  C   LIG    1       -0.366   0.114  -0.095  0.00  0.00    +0.110 A 
ATOM      2  C   LIG    1       -1.027  -1.088  -0.393  0.00  0.00    +0.144 A 
ATOM      3  N   LIG    1       -2.364  -1.159  -0.645  0.00  0.00    -0.217 NA
ATOM      4  C   LIG    1       -3.041  -0.005  -0.585  0.00  0.00    +0.252 A 
ATOM      5  N   LIG    1       -4.366   0.209  -0.777  0.00  0.00    -0.217 NA
ATOM      6  C   LIG    1       -4.509   1.507  -0.592  0.00  0.00    +0.138 A 
ATOM      7  C   LIG    1       -3.325   2.179  -0.276  0.00  0.00    +0.069 A 
ATOM      8  N   LIG    1       -2.367   1.190  -0.285  0.00  0.00    -0.200 N 
ATOM      9  N   LIG    1       -1.048   1.294  -0.045  0.00  0.00    -0.162 NA
ENDROOT
BRANCH   1  10
ATOM     10  C   LIG    1        1.095   0.183   0.209  0.00  0.00    +0.006 A 
ATOM     11  C   LIG    1        1.996  -0.719  -0.373  0.00  0.00    +0.011 A 
ATOM     12  C   LIG    1        3.361  -0.652  -0.098  0.00  0.00    +0.016 A 
ATOM     13  C   LIG    1        3.872   0.326   0.768  0.00  0.00    +0.072 A 
ATOM     14  C   LIG    1        2.976   1.228   1.363  0.00  0.00    +0.136 A 
ATOM     15  F   LIG    1        3.405   2.182   2.224  0.00  0.00    -0.205 F 
ATOM     16  C   LIG    1        1.612   1.152   1.082  0.00  0.00    +0.049 A 
BRANCH  13  17
ATOM     17  C   LIG    1        5.352   0.393   1.064  0.00  0.00    +0.247 C 
ATOM     18  O   LIG    1        5.919   1.480   1.192  0.00  0.00    -0.270 OA
ATOM     19  N   LIG    1        5.978  -0.792   1.182  0.00  0.00    -0.314 N 
ATOM     20  H   LIG    1        5.434  -1.638   1.096  0.00  0.00    +0.149 HD
ATOM     21  C   LIG    1        7.399  -0.960   1.462  0.00  0.00    +0.128 C 
ENDBRANCH  13  17
ENDBRANCH   1  10
BRANCH   7  22
ATOM     22  C   LIG    1       -3.012   3.638   0.015  0.00  0.00    +0.092 C 
BRANCH  22  23
ATOM     23  C   LIG    1       -2.400   3.850   1.395  0.00  0.00    -0.041 A 
ATOM     24  C   LIG    1       -3.178   3.667   2.540  0.00  0.00    +0.006 A 
ATOM     25  C   LIG    1       -2.628   3.816   3.811  0.00  0.00    +0.028 A 
ATOM     26  C   LIG    1       -1.260   4.147   3.960  0.00  0.00    +0.071 A 
ATOM     27  N   LIG    1       -0.742   4.269   5.215  0.00  0.00    -0.255 NA
ATOM     28  C   LIG    1        0.574   4.574   5.341  0.00  0.00    +0.111 A 
ATOM     29  C   LIG    1        1.426   4.770   4.257  0.00  0.00    +0.020 A 
ATOM     30  C   LIG    1        0.911   4.655   2.968  0.00  0.00    +0.011 A 
ATOM     31  C   LIG    1       -0.459   4.338   2.792  0.00  0.00    +0.001 A 
ATOM     32  C   LIG    1       -1.052   4.196   1.515  0.00  0.00    +0.014 A 
ENDBRANCH  22  23
ENDBRANCH   7  22
TORSDOF 4
