REMARK  Name = DB11285
REMARK                            x       y       z     vdW  Elec       q    Type
REMARK                         _______ _______ _______ _____ _____    ______ ____
ROOT
ATOM      1  C   LIG    1        1.494   0.059   0.000  0.00  0.00    -0.021 A 
ATOM      2  C   LIG    1        2.245   1.244   0.000  0.00  0.00    +0.057 A 
ATOM      3  C   LIG    1        3.652   1.220   0.000  0.00  0.00    +0.162 A 
ATOM      4  C   LIG    1        4.301  -0.022   0.000  0.00  0.00    +0.158 A 
ATOM      5  C   LIG    1        3.565  -1.206   0.000  0.00  0.00    +0.050 A 
ATOM      6  C   LIG    1        2.173  -1.164   0.000  0.00  0.00    +0.012 A 
ENDROOT
BRANCH   1   8
ATOM      7  C   LIG    1       -0.803   1.122   0.000  0.00  0.00    +0.092 C 
ATOM      8  C   LIG    1        0.014   0.046   0.000  0.00  0.00    +0.015 C 
BRANCH   7   9
ATOM      9  C   LIG    1       -2.258   1.006   0.000  0.00  0.00    +0.332 C 
ATOM     10  O   LIG    1       -2.861  -0.071   0.000  0.00  0.00    -0.246 OA
BRANCH   9  11
ATOM     11  O   LIG    1       -2.855   2.219   0.000  0.00  0.00    -0.462 OA
BRANCH  11  13
ATOM     12  C   LIG    1       -4.661   3.817   0.000  0.00  0.00    +0.048 C 
ATOM     13  C   LIG    1       -4.272   2.335  -0.000  0.00  0.00    +0.229 C 
ENDBRANCH  11  13
ENDBRANCH   9  11
ENDBRANCH   7   9
ENDBRANCH   1   8
BRANCH   3  14
ATOM     14  O   LIG    1        4.443   2.355   0.000  0.00  0.00    -0.491 OA
ATOM     15  C   LIG    1        3.828   3.639   0.000  0.00  0.00    +0.277 C 
ENDBRANCH   3  14
BRANCH   4  16
ATOM     16  O   LIG    1        5.671  -0.095   0.000  0.00  0.00    -0.503 OA
ATOM     17  H   LIG    1        5.999  -0.997   0.000  0.00  0.00    +0.292 HD
ENDBRANCH   4  16
TORSDOF 6
