REMARK  Name = DB11828
REMARK                            x       y       z     vdW  Elec       q    Type
REMARK                         _______ _______ _______ _____ _____    ______ ____
ROOT
ATOM      1  C   LIG    1       -0.478  -1.110   0.133  0.00  0.00    +0.144 A 
ATOM      2  C   LIG    1        0.047   0.185   0.029  0.00  0.00    +0.077 A 
ATOM      3  C   LIG    1       -0.804   1.288  -0.118  0.00  0.00    +0.039 A 
ATOM      4  C   LIG    1       -2.215   1.130  -0.199  0.00  0.00    +0.025 A 
ATOM      5  C   LIG    1       -3.132   2.224  -0.375  0.00  0.00    +0.060 A 
ATOM      6  C   LIG    1       -4.516   1.925  -0.403  0.00  0.00    +0.091 A 
ATOM      7  C   LIG    1       -4.920   0.594  -0.315  0.00  0.00    +0.132 A 
ATOM      8  N   LIG    1       -4.072  -0.449  -0.179  0.00  0.00    -0.253 NA
ATOM      9  C   LIG    1       -2.741  -0.194  -0.111  0.00  0.00    +0.076 A 
ATOM     10  C   LIG    1       -1.866  -1.292   0.057  0.00  0.00    +0.076 A 
ENDROOT
BRANCH   2  11
ATOM     11  N   LIG    1        1.444   0.344   0.128  0.00  0.00    -0.279 N 
ATOM     12  H   LIG    1        1.916  -0.344   0.696  0.00  0.00    +0.155 HD
ATOM     13  C   LIG    1        2.220   1.212  -0.558  0.00  0.00    +0.241 C 
ATOM     14  O   LIG    1        1.799   2.007  -1.403  0.00  0.00    -0.271 OA
BRANCH  13  15
ATOM     15  C   LIG    1        3.614   1.115  -0.191  0.00  0.00    +0.064 C 
ATOM     16  C   LIG    1        4.572   1.877  -0.757  0.00  0.00    -0.007 C 
BRANCH  16  17
ATOM     17  C   LIG    1        6.044   1.795  -0.400  0.00  0.00    +0.111 C 
BRANCH  17  18
ATOM     18  N   LIG    1        6.930   1.524  -1.533  0.00  0.00    -0.305 NA
ATOM     19  C   LIG    1        8.318   1.793  -1.170  0.00  0.00    +0.104 C 
ATOM     20  C   LIG    1        6.803   0.138  -1.977  0.00  0.00    +0.104 C 
ENDBRANCH  17  18
ENDBRANCH  16  17
ENDBRANCH  13  15
ENDBRANCH   2  11
BRANCH   5  21
ATOM     21  N   LIG    1       -2.602   3.532  -0.472  0.00  0.00    -0.313 N 
ATOM     22  H   LIG    1       -1.670   3.626  -0.095  0.00  0.00    +0.152 HD
BRANCH  21  23
ATOM     23  C   LIG    1       -3.039   4.663  -1.177  0.00  0.00    +0.033 A 
ATOM     24  C   LIG    1       -3.596   4.557  -2.455  0.00  0.00    +0.047 A 
ATOM     25  C   LIG    1       -3.995   5.699  -3.150  0.00  0.00    +0.084 A 
ATOM     26 CL   LIG    1       -4.693   5.518  -4.721  0.00  0.00    -0.080 Cl
ATOM     27  C   LIG    1       -3.831   6.971  -2.584  0.00  0.00    +0.139 A 
ATOM     28  C   LIG    1       -3.255   7.069  -1.306  0.00  0.00    +0.049 A 
ATOM     29  C   LIG    1       -2.859   5.926  -0.613  0.00  0.00    +0.027 A 
BRANCH  27  30
ATOM     30  O   LIG    1       -4.244   8.060  -3.330  0.00  0.00    -0.484 OA
BRANCH  30  31
ATOM     31  C   LIG    1       -4.077   9.378  -2.810  0.00  0.00    +0.284 C 
BRANCH  31  32
ATOM     32  C   LIG    1       -4.580  10.425  -3.798  0.00  0.00    +0.078 A 
ATOM     33  N   LIG    1       -4.277  11.711  -3.476  0.00  0.00    -0.256 NA
ATOM     34  C   LIG    1       -4.699  12.696  -4.310  0.00  0.00    +0.111 A 
ATOM     35  C   LIG    1       -5.430  12.444  -5.472  0.00  0.00    +0.020 A 
ATOM     36  C   LIG    1       -5.740  11.120  -5.788  0.00  0.00    +0.003 A 
ATOM     37  C   LIG    1       -5.314  10.092  -4.945  0.00  0.00    +0.027 A 
ENDBRANCH  31  32
ENDBRANCH  30  31
ENDBRANCH  27  30
ENDBRANCH  21  23
ENDBRANCH   5  21
BRANCH   6  38
ATOM     38  C   LIG    1       -5.576   2.930  -0.459  0.00  0.00    +0.103 C 
ATOM     39  N   LIG    1       -6.416   3.725  -0.503  0.00  0.00    -0.191 NA
ENDBRANCH   6  38
BRANCH   1  40
ATOM     40  O   LIG    1        0.416  -2.156   0.302  0.00  0.00    -0.490 OA
BRANCH  40  42
ATOM     41  C   LIG    1        1.135  -4.435   0.549  0.00  0.00    +0.048 C 
ATOM     42  C   LIG    1       -0.063  -3.496   0.383  0.00  0.00    +0.226 C 
ENDBRANCH  40  42
ENDBRANCH   1  40
TORSDOF 12
