REMARK  Name = DB11636
REMARK                            x       y       z     vdW  Elec       q    Type
REMARK                         _______ _______ _______ _____ _____    ______ ____
ROOT
ATOM      1  C   LIG    1       -6.432  -3.182   1.578  0.00  0.00    +0.044 C 
ATOM      2  C   LIG    1       -5.107  -2.739   2.193  0.00  0.00    -0.051 C 
ATOM      3  C   LIG    1       -4.959  -2.531   3.647  0.00  0.00    -0.038 C 
ATOM      4  C   LIG    1       -6.039  -2.601   4.469  0.00  0.00    +0.050 C 
ATOM      5  C   LIG    1       -6.019  -2.400   5.913  0.00  0.00    +0.156 C 
ATOM      6  C   LIG    1       -4.639  -2.273   6.562  0.00  0.00    +0.079 C 
ATOM      7  C   LIG    1       -3.638  -1.578   5.624  0.00  0.00    +0.016 C 
ATOM      8  O   LIG    1       -7.052  -2.421   6.579  0.00  0.00    -0.293 OA
ATOM      9  C   LIG    1       -3.548  -2.232   4.218  0.00  0.00    +0.023 C 
ATOM     10  C   LIG    1       -2.742  -1.396   3.185  0.00  0.00    +0.004 C 
ATOM     11  C   LIG    1       -1.331  -0.943   3.664  0.00  0.00    +0.005 C 
ATOM     12  C   LIG    1       -0.594  -0.098   2.591  0.00  0.00    +0.010 C 
ATOM     13  C   LIG    1       -0.480  -0.856   1.234  0.00  0.00    +0.007 C 
ATOM     14  C   LIG    1        0.423  -2.128   1.421  0.00  0.00    +0.015 C 
ATOM     15  C   LIG    1       -0.039  -0.000  -0.014  0.00  0.00    +0.129 C 
ATOM     16  C   LIG    1       -0.584  -0.836  -1.215  0.00  0.00    +0.043 C 
ATOM     17  C   LIG    1       -1.793  -1.636  -0.680  0.00  0.00    +0.008 C 
ATOM     18  C   LIG    1       -1.930  -1.204   0.788  0.00  0.00    +0.005 C 
ATOM     19  C   LIG    1       -2.659  -2.124   1.804  0.00  0.00    +0.019 C 
ATOM     20  C   LIG    1       -4.051  -2.567   1.369  0.00  0.00    -0.019 C 
ENDROOT
BRANCH  15  21
ATOM     21  C   LIG    1        1.504   0.228  -0.088  0.00  0.00    +0.162 C 
ATOM     22  C   LIG    1        2.113   1.452   0.605  0.00  0.00    +0.089 C 
ATOM     23  O   LIG    1        2.247  -0.550  -0.687  0.00  0.00    -0.295 OA
ENDBRANCH  15  21
BRANCH  15  24
ATOM     24  O   LIG    1       -0.623   1.300  -0.037  0.00  0.00    -0.381 OA
ATOM     25  H   LIG    1       -1.578   1.203  -0.061  0.00  0.00    +0.211 HD
ENDBRANCH  15  24
TORSDOF 2
