REMARK  Name = DB11512
REMARK                            x       y       z     vdW  Elec       q    Type
REMARK                         _______ _______ _______ _____ _____    ______ ____
ROOT
ATOM      1  O   LIG    1        1.384   0.152   0.146  0.00  0.00    -0.339 OA
ENDROOT
BRANCH   1   7
ATOM      2  C   LIG    1       -0.252  -0.903   1.533  0.00  0.00    +0.213 C 
ATOM      3  C   LIG    1       -0.245   0.183   2.633  0.00  0.00    +0.145 C 
ATOM      4  C   LIG    1       -0.844   1.412   1.901  0.00  0.00    +0.155 C 
ATOM      5  C   LIG    1       -2.343   1.692   2.122  0.00  0.00    +0.041 C 
ATOM      6  O   LIG    1       -0.677   1.138   0.513  0.00  0.00    -0.343 OA
ATOM      7  C   LIG    1        0.010  -0.055   0.296  0.00  0.00    +0.283 C 
BRANCH   3   8
ATOM      8  O   LIG    1       -0.985  -0.231   3.778  0.00  0.00    -0.381 OA
ATOM      9  H   LIG    1       -0.585  -1.033   4.122  0.00  0.00    +0.210 HD
ENDBRANCH   3   8
BRANCH   2  10
ATOM     10  O   LIG    1       -1.557  -1.495   1.479  0.00  0.00    -0.338 OA
BRANCH  10  12
ATOM     11  C   LIG    1       -2.962  -3.427   1.319  0.00  0.00    +0.141 C 
ATOM     12  C   LIG    1       -1.680  -2.724   0.814  0.00  0.00    +0.271 C 
ATOM     13  O   LIG    1       -1.693  -2.590  -0.585  0.00  0.00    -0.341 OA
ATOM     14  C   LIG    1       -2.769  -1.800  -1.106  0.00  0.00    +0.178 C 
ATOM     15  C   LIG    1       -4.121  -2.463  -0.756  0.00  0.00    +0.176 C 
ATOM     16  C   LIG    1       -4.223  -2.713   0.765  0.00  0.00    +0.167 C 
BRANCH  11  17
ATOM     17  N   LIG    1       -3.010  -3.599   2.774  0.00  0.00    -0.310 NA
ATOM     18  H   LIG    1       -2.964  -2.698   3.229  0.00  0.00    +0.122 HD
ATOM     19  C   LIG    1       -1.977  -4.484   3.292  0.00  0.00    +0.101 C 
ENDBRANCH  11  17
BRANCH  15  20
ATOM     20  O   LIG    1       -5.224  -1.706  -1.227  0.00  0.00    -0.387 OA
ATOM     21  H   LIG    1       -5.244  -0.871  -0.754  0.00  0.00    +0.210 HD
ENDBRANCH  15  20
BRANCH  16  22
ATOM     22  O   LIG    1       -5.396  -3.455   1.058  0.00  0.00    -0.387 OA
ATOM     23  H   LIG    1       -5.327  -4.313   0.633  0.00  0.00    +0.210 HD
ENDBRANCH  16  22
BRANCH  14  24
ATOM     24  C   LIG    1       -2.507  -1.640  -2.621  0.00  0.00    +0.190 C 
BRANCH  24  25
ATOM     25  O   LIG    1       -3.247  -0.572  -3.178  0.00  0.00    -0.392 OA
ATOM     26  H   LIG    1       -3.060  -0.529  -4.119  0.00  0.00    +0.210 HD
ENDBRANCH  24  25
ENDBRANCH  14  24
ENDBRANCH  10  12
ENDBRANCH   2  10
BRANCH   3  27
ATOM     27  C   LIG    1        1.176   0.496   3.195  0.00  0.00    +0.196 C 
BRANCH  27  28
ATOM     28  O   LIG    1        1.837  -0.643   3.720  0.00  0.00    -0.392 OA
ATOM     29  H   LIG    1        2.701  -0.372   4.041  0.00  0.00    +0.210 HD
ENDBRANCH  27  28
ENDBRANCH   3  27
ENDBRANCH   1   7
BRANCH   1  30
ATOM     30  C   LIG    1        1.806   0.787  -1.065  0.00  0.00    +0.192 C 
ATOM     31  C   LIG    1        2.785   1.920  -0.693  0.00  0.00    +0.179 C 
ATOM     32  C   LIG    1        3.375   2.603  -1.947  0.00  0.00    +0.185 C 
ATOM     33  C   LIG    1        4.042   1.612  -2.941  0.00  0.00    +0.208 C 
ATOM     34  C   LIG    1        3.132   0.379  -3.236  0.00  0.00    +0.193 C 
ATOM     35  C   LIG    1        2.453  -0.272  -1.995  0.00  0.00    +0.208 C 
BRANCH  31  36
ATOM     36  O   LIG    1        2.147   2.869   0.148  0.00  0.00    -0.386 OA
ATOM     37  H   LIG    1        1.395   3.238  -0.321  0.00  0.00    +0.210 HD
ENDBRANCH  31  36
BRANCH  32  38
ATOM     38  O   LIG    1        4.263   3.654  -1.597  0.00  0.00    -0.386 OA
ATOM     39  H   LIG    1        3.937   4.071  -0.796  0.00  0.00    +0.210 HD
ENDBRANCH  32  38
BRANCH  33  40
ATOM     40  N   LIG    1        4.426   2.330  -4.166  0.00  0.00    -0.268 N 
ATOM     41  H   LIG    1        3.780   3.031  -4.498  0.00  0.00    +0.258 HD
BRANCH  40  42
ATOM     42  C   LIG    1        5.563   1.999  -4.955  0.00  0.00    +0.377 C 
ATOM     43  N   LIG    1        6.396   1.086  -4.699  0.00  0.00    -0.130 NA
ATOM     44  H   LIG    1        7.130   1.021  -5.389  0.00  0.00    +0.306 HD
BRANCH  42  45
ATOM     45  N   LIG    1        5.674   2.824  -6.093  0.00  0.00    -0.289 N 
ATOM     46  H   LIG    1        5.111   3.655  -6.201  0.00  0.00    +0.255 HD
ATOM     47  H   LIG    1        6.481   2.781  -6.699  0.00  0.00    +0.255 HD
ENDBRANCH  42  45
ENDBRANCH  40  42
ENDBRANCH  33  40
BRANCH  34  48
ATOM     48  O   LIG    1        3.789  -0.589  -4.035  0.00  0.00    -0.385 OA
ATOM     49  H   LIG    1        4.415  -0.137  -4.607  0.00  0.00    +0.210 HD
ENDBRANCH  34  48
BRANCH  35  50
ATOM     50  N   LIG    1        1.449  -1.282  -2.358  0.00  0.00    -0.268 N 
ATOM     51  H   LIG    1        0.551  -0.922  -2.645  0.00  0.00    +0.258 HD
BRANCH  50  52
ATOM     52  C   LIG    1        1.686  -2.683  -2.477  0.00  0.00    +0.377 C 
ATOM     53  N   LIG    1        0.767  -3.481  -2.800  0.00  0.00    -0.130 NA
ATOM     54  H   LIG    1        1.080  -4.439  -2.844  0.00  0.00    +0.306 HD
BRANCH  52  55
ATOM     55  N   LIG    1        3.000  -3.132  -2.212  0.00  0.00    -0.289 N 
ATOM     56  H   LIG    1        3.773  -2.482  -2.203  0.00  0.00    +0.255 HD
ATOM     57  H   LIG    1        3.267  -4.086  -2.406  0.00  0.00    +0.255 HD
ENDBRANCH  52  55
ENDBRANCH  50  52
ENDBRANCH  35  50
ENDBRANCH   1  30
TORSDOF 21
