REMARK  Name = DB11117
REMARK                            x       y       z     vdW  Elec       q    Type
REMARK                         _______ _______ _______ _____ _____    ______ ____
ROOT
ATOM      1  C   LIG    1       -0.472   1.476   0.027  0.00  0.00    +0.001 C 
ENDROOT
BRANCH   1   2
ATOM      2  C   LIG    1       -2.010   1.562   0.110  0.00  0.00    +0.011 C 
BRANCH   2   3
ATOM      3  C   LIG    1       -2.579   3.000   0.058  0.00  0.00    +0.120 C 
BRANCH   3   4
ATOM      4  C   LIG    1       -2.280   3.870   1.289  0.00  0.00    +0.305 C 
ATOM      5  O   LIG    1       -1.771   3.451   2.327  0.00  0.00    -0.251 OA
BRANCH   4   6
ATOM      6  O   LIG    1       -2.672   5.160   1.083  0.00  0.00    -0.481 OA
ATOM      7  H   LIG    1       -2.499   5.717   1.846  0.00  0.00    +0.295 HD
ENDBRANCH   4   6
ENDBRANCH   3   4
ENDBRANCH   2   3
ENDBRANCH   1   2
BRANCH   1   8
ATOM      8  C   LIG    1        0.047   0.028   0.020  0.00  0.00    +0.000 C 
BRANCH   8   9
ATOM      9  C   LIG    1        1.583  -0.058  -0.037  0.00  0.00    +0.000 C 
BRANCH   9  10
ATOM     10  C   LIG    1        2.104  -1.506  -0.044  0.00  0.00    +0.000 C 
BRANCH  10  11
ATOM     11  C   LIG    1        3.643  -1.590  -0.082  0.00  0.00    +0.004 C 
BRANCH  11  12
ATOM     12  C   LIG    1        4.189  -3.029  -0.043  0.00  0.00    +0.026 C 
BRANCH  12  13
ATOM     13  C   LIG    1        3.869  -3.854  -1.276  0.00  0.00    -0.034 C 
ATOM     14  C   LIG    1        3.149  -4.987  -1.272  0.00  0.00    +0.004 C 
ENDBRANCH  12  13
ENDBRANCH  11  12
ENDBRANCH  10  11
ENDBRANCH   9  10
ENDBRANCH   8   9
ENDBRANCH   1   8
TORSDOF 10
