REMARK  Name = DB11724
REMARK                            x       y       z     vdW  Elec       q    Type
REMARK                         _______ _______ _______ _____ _____    ______ ____
ROOT
ATOM      1  C   LIG    1       -0.470  -2.009   2.467  0.00  0.00    +0.159 C 
ENDROOT
BRANCH   1   2
ATOM      2  N   LIG    1       -0.404  -2.973   1.368  0.00  0.00    -0.302 N 
ATOM      3  H   LIG    1       -0.485  -3.946   1.626  0.00  0.00    +0.150 HD
ATOM      4  C   LIG    1       -0.192  -2.647   0.083  0.00  0.00    +0.234 C 
ATOM      5  O   LIG    1       -0.085  -1.492  -0.334  0.00  0.00    -0.274 OA
BRANCH   4   6
ATOM      6  C   LIG    1       -0.075  -3.823  -0.898  0.00  0.00    +0.168 C 
BRANCH   6   7
ATOM      7  N   LIG    1       -1.189  -3.803  -1.850  0.00  0.00    -0.302 N 
ATOM      8  H   LIG    1       -0.965  -3.485  -2.781  0.00  0.00    +0.150 HD
ATOM      9  C   LIG    1       -2.455  -4.144  -1.560  0.00  0.00    +0.231 C 
ATOM     10  O   LIG    1       -2.805  -4.551  -0.449  0.00  0.00    -0.274 OA
BRANCH   9  11
ATOM     11  C   LIG    1       -3.455  -4.022  -2.720  0.00  0.00    +0.200 C 
BRANCH  11  12
ATOM     12  N   LIG    1       -4.834  -4.142  -2.249  0.00  0.00    -0.305 N 
ATOM     13  H   LIG    1       -5.280  -5.038  -2.385  0.00  0.00    +0.149 HD
ATOM     14  C   LIG    1       -5.511  -3.166  -1.621  0.00  0.00    +0.234 C 
ATOM     15  O   LIG    1       -5.069  -2.036  -1.409  0.00  0.00    -0.274 OA
BRANCH  14  16
ATOM     16  C   LIG    1       -6.937  -3.533  -1.177  0.00  0.00    +0.159 C 
BRANCH  16  17
ATOM     17  N   LIG    1       -7.325  -2.829   0.046  0.00  0.00    -0.302 N 
ATOM     18  H   LIG    1       -8.004  -2.091  -0.070  0.00  0.00    +0.150 HD
ATOM     19  C   LIG    1       -6.865  -3.111   1.275  0.00  0.00    +0.234 C 
ATOM     20  O   LIG    1       -6.029  -3.981   1.529  0.00  0.00    -0.274 OA
BRANCH  19  21
ATOM     21  C   LIG    1       -7.448  -2.258   2.413  0.00  0.00    +0.159 C 
BRANCH  21  22
ATOM     22  N   LIG    1       -7.851  -3.082   3.554  0.00  0.00    -0.302 N 
ATOM     23  H   LIG    1       -7.321  -2.936   4.400  0.00  0.00    +0.150 HD
ATOM     24  C   LIG    1       -8.819  -4.013   3.554  0.00  0.00    +0.234 C 
ATOM     25  O   LIG    1       -9.525  -4.293   2.584  0.00  0.00    -0.274 OA
BRANCH  24  26
ATOM     26  C   LIG    1       -8.993  -4.760   4.887  0.00  0.00    +0.159 C 
BRANCH  26  27
ATOM     27  N   LIG    1      -10.320  -5.354   5.057  0.00  0.00    -0.302 N 
ATOM     28  H   LIG    1      -10.362  -6.359   4.967  0.00  0.00    +0.150 HD
ATOM     29  C   LIG    1      -11.458  -4.674   5.293  0.00  0.00    +0.234 C 
ATOM     30  O   LIG    1      -11.477  -3.448   5.414  0.00  0.00    -0.274 OA
BRANCH  29  31
ATOM     31  C   LIG    1      -12.789  -5.461   5.423  0.00  0.00    +0.159 C 
ATOM     32  C   LIG    1      -13.346  -5.418   6.846  0.00  0.00    +0.041 C 
ATOM     33  C   LIG    1      -13.033  -6.782   7.440  0.00  0.00    +0.098 C 
ATOM     34  C   LIG    1      -12.735  -7.700   6.256  0.00  0.00    +0.214 C 
ATOM     35  O   LIG    1      -12.602  -8.921   6.298  0.00  0.00    -0.276 OA
ATOM     36  N   LIG    1      -12.653  -6.901   5.176  0.00  0.00    -0.304 N 
ATOM     37  H   LIG    1      -12.465  -7.256   4.250  0.00  0.00    +0.149 HD
ENDBRANCH  29  31
ENDBRANCH  26  27
BRANCH  26  38
ATOM     38  C   LIG    1       -7.924  -5.866   5.047  0.00  0.00    +0.041 C 
BRANCH  38  39
ATOM     39  C   LIG    1       -7.693  -6.331   6.501  0.00  0.00    +0.098 C 
BRANCH  39  40
ATOM     40  C   LIG    1       -7.144  -5.240   7.430  0.00  0.00    +0.211 C 
ATOM     41  N   LIG    1       -7.439  -5.352   8.727  0.00  0.00    -0.329 N 
ATOM     42  H   LIG    1       -8.004  -6.120   9.058  0.00  0.00    +0.145 HD
ATOM     43  H   LIG    1       -7.097  -4.670   9.388  0.00  0.00    +0.145 HD
ATOM     44  O   LIG    1       -6.449  -4.323   6.994  0.00  0.00    -0.276 OA
ENDBRANCH  39  40
ENDBRANCH  38  39
ENDBRANCH  26  38
ENDBRANCH  24  26
ENDBRANCH  21  22
BRANCH  21  45
ATOM     45  C   LIG    1       -6.414  -1.218   2.888  0.00  0.00    +0.033 C 
BRANCH  45  46
ATOM     46  C   LIG    1       -6.959  -0.221   3.933  0.00  0.00    +0.017 C 
BRANCH  46  47
ATOM     47  C   LIG    1       -5.868   0.619   4.626  0.00  0.00    +0.084 C 
BRANCH  47  48
ATOM     48  N   LIG    1       -5.064  -0.171   5.580  0.00  0.00    -0.283 NA
ATOM     49  H   LIG    1       -4.221  -0.580   5.201  0.00  0.00    +0.125 HD
BRANCH  48  50
ATOM     50  C   LIG    1       -5.370  -0.451   6.862  0.00  0.00    +0.167 C 
BRANCH  50  51
ATOM     51  N   LIG    1       -6.486   0.005   7.455  0.00  0.00    -0.297 NA
ATOM     52  H   LIG    1       -7.133   0.582   6.936  0.00  0.00    +0.121 HD
ATOM     53  H   LIG    1       -6.686  -0.227   8.417  0.00  0.00    +0.121 HD
ENDBRANCH  50  51
BRANCH  50  54
ATOM     54  N   LIG    1       -4.534  -1.218   7.572  0.00  0.00    -0.297 NA
ATOM     55  H   LIG    1       -3.704  -1.601   7.139  0.00  0.00    +0.121 HD
ATOM     56  H   LIG    1       -4.744  -1.448   8.533  0.00  0.00    +0.121 HD
ENDBRANCH  50  54
ENDBRANCH  48  50
ENDBRANCH  47  48
ENDBRANCH  46  47
ENDBRANCH  45  46
ENDBRANCH  21  45
ENDBRANCH  19  21
ENDBRANCH  16  17
BRANCH  16  57
ATOM     57  C   LIG    1       -7.955  -3.204  -2.294  0.00  0.00    +0.034 C 
BRANCH  57  58
ATOM     58  C   LIG    1       -9.407  -3.656  -2.005  0.00  0.00    -0.015 C 
ATOM     59  C   LIG    1      -10.368  -3.155  -3.104  0.00  0.00    +0.007 C 
ATOM     60  C   LIG    1       -9.522  -5.179  -1.780  0.00  0.00    +0.007 C 
ENDBRANCH  57  58
ENDBRANCH  16  57
ENDBRANCH  14  16
ENDBRANCH  11  12
ENDBRANCH   9  11
ENDBRANCH   6   7
BRANCH   6  61
ATOM     61  C   LIG    1        1.270  -3.765  -1.664  0.00  0.00    +0.127 C 
BRANCH  61  62
ATOM     62  C   LIG    1        1.550  -4.975  -2.566  0.00  0.00    +0.213 C 
ATOM     63  N   LIG    1        2.432  -4.795  -3.551  0.00  0.00    -0.329 N 
ATOM     64  H   LIG    1        2.877  -3.898  -3.683  0.00  0.00    +0.145 HD
ATOM     65  H   LIG    1        2.663  -5.558  -4.172  0.00  0.00    +0.145 HD
ATOM     66  O   LIG    1        0.998  -6.057  -2.375  0.00  0.00    -0.276 OA
ENDBRANCH  61  62
ENDBRANCH   6  61
ENDBRANCH   4   6
ENDBRANCH   1   2
BRANCH   1  69
ATOM     67  N   LIG    1        1.034  -0.205   3.139  0.00  0.00    -0.302 N 
ATOM     68  H   LIG    1        0.214   0.383   3.094  0.00  0.00    +0.150 HD
ATOM     69  C   LIG    1        0.932  -1.512   2.850  0.00  0.00    +0.234 C 
ATOM     70  O   LIG    1        1.873  -2.306   2.881  0.00  0.00    -0.274 OA
BRANCH  67  71
ATOM     71  C   LIG    1        2.288   0.471   3.460  0.00  0.00    +0.163 C 
BRANCH  71  74
ATOM     72  N   LIG    1        2.684   1.877   5.415  0.00  0.00    -0.303 N 
ATOM     73  H   LIG    1        3.320   1.144   5.697  0.00  0.00    +0.149 HD
ATOM     74  C   LIG    1        1.999   1.743   4.269  0.00  0.00    +0.234 C 
ATOM     75  O   LIG    1        1.211   2.578   3.824  0.00  0.00    -0.274 OA
BRANCH  72  76
ATOM     76  C   LIG    1        2.714   3.089   6.232  0.00  0.00    +0.156 C 
ATOM     77  C   LIG    1        2.756   2.692   7.716  0.00  0.00    +0.038 C 
BRANCH  76  80
ATOM     78  N   LIG    1        3.823   5.258   6.047  0.00  0.00    -0.302 N 
ATOM     79  H   LIG    1        2.955   5.620   6.414  0.00  0.00    +0.150 HD
ATOM     80  C   LIG    1        3.944   3.931   5.864  0.00  0.00    +0.234 C 
ATOM     81  O   LIG    1        4.959   3.373   5.443  0.00  0.00    -0.274 OA
BRANCH  78  82
ATOM     82  C   LIG    1        4.837   6.270   5.724  0.00  0.00    +0.161 C 
BRANCH  82  85
ATOM     83  N   LIG    1        7.265   5.983   5.614  0.00  0.00    -0.305 N 
ATOM     84  H   LIG    1        7.146   6.182   4.631  0.00  0.00    +0.149 HD
ATOM     85  C   LIG    1        6.187   5.993   6.417  0.00  0.00    +0.234 C 
ATOM     86  O   LIG    1        6.216   5.769   7.628  0.00  0.00    -0.274 OA
BRANCH  83  87
ATOM     87  C   LIG    1        8.586   5.523   6.033  0.00  0.00    +0.200 C 
BRANCH  87  90
ATOM     88  N   LIG    1        8.887   3.342   7.103  0.00  0.00    -0.303 N 
ATOM     89  H   LIG    1        9.118   3.874   7.930  0.00  0.00    +0.149 HD
ATOM     90  C   LIG    1        8.582   3.992   5.970  0.00  0.00    +0.231 C 
ATOM     91  O   LIG    1        8.309   3.415   4.917  0.00  0.00    -0.274 OA
BRANCH  88  92
ATOM     92  C   LIG    1        8.738   1.898   7.288  0.00  0.00    +0.161 C 
BRANCH  92  95
ATOM     93  N   LIG    1        6.866   0.357   6.926  0.00  0.00    -0.302 N 
ATOM     94  H   LIG    1        7.527  -0.177   6.381  0.00  0.00    +0.150 HD
ATOM     95  C   LIG    1        7.256   1.520   7.478  0.00  0.00    +0.234 C 
ATOM     96  O   LIG    1        6.524   2.251   8.148  0.00  0.00    -0.274 OA
BRANCH  93  97
ATOM     97  C   LIG    1        5.557  -0.270   7.126  0.00  0.00    +0.159 C 
BRANCH  97 100
ATOM     98  N   LIG    1        4.148  -0.324   9.115  0.00  0.00    -0.302 N 
ATOM     99  H   LIG    1        3.487   0.159   8.524  0.00  0.00    +0.150 HD
ATOM    100  C   LIG    1        5.339  -0.665   8.600  0.00  0.00    +0.234 C 
ATOM    101  O   LIG    1        6.227  -1.260   9.212  0.00  0.00    -0.274 OA
BRANCH  98 102
ATOM    102  C   LIG    1        3.681  -0.596  10.476  0.00  0.00    +0.159 C 
BRANCH 102 103
ATOM    103  C   LIG    1        3.563  -2.108  10.780  0.00  0.00    +0.231 C 
ATOM    104  N   LIG    1        3.994  -2.516  11.977  0.00  0.00    -0.328 N 
ATOM    105  H   LIG    1        4.385  -1.857  12.635  0.00  0.00    +0.145 HD
ATOM    106  H   LIG    1        3.928  -3.491  12.231  0.00  0.00    +0.145 HD
ATOM    107  O   LIG    1        3.067  -2.873   9.955  0.00  0.00    -0.274 OA
ENDBRANCH 102 103
BRANCH 102 108
ATOM    108  C   LIG    1        2.338   0.148  10.654  0.00  0.00    +0.042 C 
BRANCH 108 109
ATOM    109  C   LIG    1        1.680  -0.002  12.037  0.00  0.00    +0.071 C 
BRANCH 109 110
ATOM    110  S   LIG    1        0.220   1.045  12.295  0.00  0.00    -0.164 S 
ATOM    111  C   LIG    1       -0.961   0.256  11.169  0.00  0.00    +0.084 C 
ENDBRANCH 109 110
ENDBRANCH 108 109
ENDBRANCH 102 108
ENDBRANCH  98 102
ENDBRANCH  97 100
BRANCH  97 112
ATOM    112  C   LIG    1        5.417  -1.463   6.145  0.00  0.00    +0.034 C 
BRANCH 112 113
ATOM    113  C   LIG    1        4.249  -2.461   6.373  0.00  0.00    -0.015 C 
ATOM    114  C   LIG    1        2.857  -1.792   6.442  0.00  0.00    +0.007 C 
ATOM    115  C   LIG    1        4.300  -3.610   5.342  0.00  0.00    +0.007 C 
ENDBRANCH 112 113
ENDBRANCH  97 112
ENDBRANCH  93  97
ENDBRANCH  92  95
BRANCH  92 116
ATOM    116  C   LIG    1        9.587   1.474   8.504  0.00  0.00    +0.057 C 
BRANCH 116 117
ATOM    117  C   LIG    1        9.572  -0.006   8.810  0.00  0.00    +0.059 C 
ATOM    118  C   LIG    1       10.036  -1.083   8.075  0.00  0.00    +0.096 C 
ATOM    119  N   LIG    1        9.901  -2.215   8.862  0.00  0.00    -0.293 NA
ATOM    120  H   LIG    1       10.137  -3.162   8.602  0.00  0.00    +0.124 HD
ATOM    121  C   LIG    1        9.436  -1.808  10.041  0.00  0.00    +0.155 C 
ATOM    122  N   LIG    1        9.255  -0.489  10.071  0.00  0.00    -0.290 NA
ATOM    123  H   LIG    1        8.930   0.054  10.858  0.00  0.00    +0.124 HD
ENDBRANCH 116 117
ENDBRANCH  92 116
ENDBRANCH  88  92
ENDBRANCH  87  90
ENDBRANCH  83  87
ENDBRANCH  82  85
BRANCH  82 124
ATOM    124  C   LIG    1        4.341   7.698   6.099  0.00  0.00    +0.012 C 
ATOM    125  C   LIG    1        5.397   8.814   5.941  0.00  0.00    +0.009 C 
ATOM    126  C   LIG    1        3.084   8.073   5.291  0.00  0.00    +0.009 C 
ENDBRANCH  82 124
ENDBRANCH  78  82
ENDBRANCH  76  80
ENDBRANCH  72  76
ENDBRANCH  71  74
BRANCH  71 127
ATOM    127  C   LIG    1        3.074   0.760   2.160  0.00  0.00    +0.069 C 
BRANCH 127 128
ATOM    128  C   LIG    1        4.363   1.517   2.301  0.00  0.00    -0.020 A 
ATOM    129  C   LIG    1        5.553   0.977   2.649  0.00  0.00    +0.087 A 
ATOM    130  N   LIG    1        6.512   1.966   2.703  0.00  0.00    -0.360 N 
ATOM    131  H   LIG    1        7.475   1.781   2.943  0.00  0.00    +0.165 HD
ATOM    132  C   LIG    1        5.985   3.207   2.411  0.00  0.00    +0.047 A 
ATOM    133  C   LIG    1        6.537   4.498   2.342  0.00  0.00    +0.026 A 
ATOM    134  C   LIG    1        5.703   5.587   2.031  0.00  0.00    +0.002 A 
ATOM    135  C   LIG    1        4.330   5.373   1.798  0.00  0.00    +0.001 A 
ATOM    136  C   LIG    1        3.789   4.073   1.863  0.00  0.00    +0.010 A 
ATOM    137  C   LIG    1        4.601   2.954   2.166  0.00  0.00    +0.003 A 
ENDBRANCH 127 128
ENDBRANCH  71 127
ENDBRANCH  67  71
ENDBRANCH   1  69
BRANCH   1 138
ATOM    138  C   LIG    1       -1.184  -2.652   3.672  0.00  0.00    +0.041 C 
BRANCH 138 139
ATOM    139  C   LIG    1       -2.674  -2.950   3.400  0.00  0.00    +0.098 C 
BRANCH 139 140
ATOM    140  C   LIG    1       -3.397  -3.574   4.597  0.00  0.00    +0.211 C 
ATOM    141  N   LIG    1       -4.524  -4.239   4.337  0.00  0.00    -0.329 N 
ATOM    142  H   LIG    1       -4.859  -4.329   3.388  0.00  0.00    +0.145 HD
ATOM    143  H   LIG    1       -5.049  -4.663   5.089  0.00  0.00    +0.145 HD
ATOM    144  O   LIG    1       -2.969  -3.441   5.742  0.00  0.00    -0.276 OA
ENDBRANCH 139 140
ENDBRANCH 138 139
ENDBRANCH   1 138
TORSDOF 54
