REMARK  Name = DB11262
REMARK                            x       y       z     vdW  Elec       q    Type
REMARK                         _______ _______ _______ _____ _____    ______ ____
ROOT
ATOM      1  C   LIG    1        1.435  -0.287  -0.210  0.00  0.00    +0.077 C 
ENDROOT
BRANCH   1   3
ATOM      2  C   LIG    1       -0.662   1.182  -0.166  0.00  0.00    +0.147 A 
ATOM      3  C   LIG    1       -0.082  -0.095  -0.139  0.00  0.00    +0.001 A 
ATOM      4  C   LIG    1       -0.899  -1.222  -0.020  0.00  0.00    +0.011 A 
ATOM      5  C   LIG    1       -2.295  -1.117   0.070  0.00  0.00    -0.039 A 
ATOM      6  C   LIG    1       -2.857   0.167   0.027  0.00  0.00    +0.037 A 
ATOM      7  C   LIG    1       -2.059   1.312  -0.087  0.00  0.00    +0.128 A 
BRANCH   7   8
ATOM      8  N   LIG    1       -2.693   2.574  -0.122  0.00  0.00    -0.146 N 
ATOM      9  N   LIG    1       -2.457   3.448  -1.127  0.00  0.00    -0.147 NA
ATOM     10  C   LIG    1       -3.288   4.472  -0.799  0.00  0.00    +0.113 A 
ATOM     11  C   LIG    1       -3.510   5.695  -1.450  0.00  0.00    +0.032 A 
ATOM     12  C   LIG    1       -4.437   6.576  -0.890  0.00  0.00    +0.002 A 
ATOM     13  C   LIG    1       -5.126   6.258   0.281  0.00  0.00    +0.002 A 
ATOM     14  C   LIG    1       -4.915   5.046   0.941  0.00  0.00    +0.032 A 
ATOM     15  C   LIG    1       -3.988   4.149   0.391  0.00  0.00    +0.113 A 
ATOM     16  N   LIG    1       -3.603   2.917   0.820  0.00  0.00    -0.147 NA
ENDBRANCH   7   8
BRANCH   5  17
ATOM     17  C   LIG    1       -3.157  -2.403   0.194  0.00  0.00    -0.009 C 
ATOM     18  C   LIG    1       -2.961  -3.231  -1.105  0.00  0.00    +0.016 C 
ATOM     19  C   LIG    1       -4.680  -2.110   0.282  0.00  0.00    +0.016 C 
BRANCH  17  20
ATOM     20  C   LIG    1       -2.698  -3.299   1.405  0.00  0.00    +0.017 C 
BRANCH  20  21
ATOM     21  C   LIG    1       -2.927  -2.878   2.903  0.00  0.00    -0.037 C 
ATOM     22  C   LIG    1       -2.616  -1.389   3.175  0.00  0.00    +0.010 C 
ATOM     23  C   LIG    1       -4.368  -3.196   3.378  0.00  0.00    +0.010 C 
ATOM     24  C   LIG    1       -1.965  -3.722   3.778  0.00  0.00    +0.010 C 
ENDBRANCH  20  21
ENDBRANCH  17  20
ENDBRANCH   5  17
BRANCH   2  25
ATOM     25  O   LIG    1        0.144   2.292  -0.266  0.00  0.00    -0.504 OA
ATOM     26  H   LIG    1        1.075   2.070  -0.339  0.00  0.00    +0.292 HD
ENDBRANCH   2  25
ENDBRANCH   1   3
BRANCH   1  27
ATOM     27  C   LIG    1        2.087  -0.190  -1.597  0.00  0.00    +0.001 A 
ATOM     28  C   LIG    1        3.486  -0.191  -1.716  0.00  0.00    +0.147 A 
ATOM     29  C   LIG    1        4.082  -0.100  -2.986  0.00  0.00    +0.128 A 
ATOM     30  C   LIG    1        3.275  -0.013  -4.127  0.00  0.00    +0.037 A 
ATOM     31  C   LIG    1        1.875   0.000  -4.032  0.00  0.00    -0.039 A 
ATOM     32  C   LIG    1        1.306  -0.102  -2.756  0.00  0.00    +0.011 A 
BRANCH  29  33
ATOM     33  N   LIG    1        5.487  -0.099  -3.150  0.00  0.00    -0.146 N 
ATOM     34  N   LIG    1        6.080  -0.942  -4.027  0.00  0.00    -0.147 NA
ATOM     35  C   LIG    1        7.392  -0.613  -3.878  0.00  0.00    +0.113 A 
ATOM     36  C   LIG    1        8.530  -1.140  -4.505  0.00  0.00    +0.032 A 
ATOM     37  C   LIG    1        9.775  -0.612  -4.156  0.00  0.00    +0.002 A 
ATOM     38  C   LIG    1        9.891   0.411  -3.214  0.00  0.00    +0.002 A 
ATOM     39  C   LIG    1        8.767   0.948  -2.584  0.00  0.00    +0.032 A 
ATOM     40  C   LIG    1        7.510   0.427  -2.922  0.00  0.00    +0.113 A 
ATOM     41  N   LIG    1        6.274   0.762  -2.463  0.00  0.00    -0.147 NA
ENDBRANCH  29  33
BRANCH  31  42
ATOM     42  C   LIG    1        0.953   0.111  -5.277  0.00  0.00    -0.009 C 
ATOM     43  C   LIG    1        0.163  -1.220  -5.399  0.00  0.00    +0.016 C 
ATOM     44  C   LIG    1        1.741   0.265  -6.607  0.00  0.00    +0.016 C 
BRANCH  42  45
ATOM     45  C   LIG    1       -0.098   1.275  -5.127  0.00  0.00    +0.017 C 
BRANCH  45  46
ATOM     46  C   LIG    1        0.310   2.793  -5.151  0.00  0.00    -0.037 C 
ATOM     47  C   LIG    1        1.585   3.099  -4.332  0.00  0.00    +0.010 C 
ATOM     48  C   LIG    1        0.492   3.317  -6.599  0.00  0.00    +0.010 C 
ATOM     49  C   LIG    1       -0.852   3.601  -4.519  0.00  0.00    +0.010 C 
ENDBRANCH  45  46
ENDBRANCH  42  45
ENDBRANCH  31  42
BRANCH  28  50
ATOM     50  O   LIG    1        4.261  -0.311  -0.586  0.00  0.00    -0.504 OA
ATOM     51  H   LIG    1        3.742  -0.378   0.218  0.00  0.00    +0.292 HD
ENDBRANCH  28  50
ENDBRANCH   1  27
TORSDOF 12
