REMARK  Name = DB11336
REMARK                            x       y       z     vdW  Elec       q    Type
REMARK                         _______ _______ _______ _____ _____    ______ ____
ROOT
ATOM      1  C   LIG    1       -0.672   1.290   0.104  0.00  0.00    +0.148 A 
ATOM      2  N   LIG    1       -0.037   2.498   0.061  0.00  0.00    -0.219 NA
ATOM      3  C   LIG    1       -0.794   3.619  -0.074  0.00  0.00    +0.225 A 
ATOM      4  N   LIG    1       -2.148   3.691  -0.172  0.00  0.00    -0.214 NA
ATOM      5  C   LIG    1       -2.777   2.511  -0.127  0.00  0.00    +0.183 A 
ATOM      6  N   LIG    1       -4.129   2.301  -0.203  0.00  0.00    -0.216 NA
ATOM      7  C   LIG    1       -4.255   0.999  -0.114  0.00  0.00    +0.199 A 
ATOM      8  N   LIG    1       -3.061   0.328   0.018  0.00  0.00    -0.340 N 
ATOM      9  H   LIG    1       -2.984  -0.676   0.099  0.00  0.00    +0.167 HD
ATOM     10  C   LIG    1       -2.070   1.285   0.013  0.00  0.00    +0.125 A 
ENDROOT
BRANCH   1  11
ATOM     11  N   LIG    1        0.065   0.101   0.251  0.00  0.00    -0.320 N 
ATOM     12  H   LIG    1       -0.409  -0.730  -0.074  0.00  0.00    +0.148 HD
BRANCH  11  13
ATOM     13  C   LIG    1        1.516   0.103   0.089  0.00  0.00    +0.177 C 
BRANCH  13  14
ATOM     14  C   LIG    1        1.944   0.070  -1.362  0.00  0.00    +0.122 A 
ATOM     15  O   LIG    1        1.579  -1.023  -2.086  0.00  0.00    -0.466 OA
ATOM     16  C   LIG    1        2.053  -0.848  -3.346  0.00  0.00    +0.195 A 
ATOM     17  C   LIG    1        2.725   0.358  -3.439  0.00  0.00    +0.041 A 
ATOM     18  C   LIG    1        2.653   0.944  -2.175  0.00  0.00    +0.046 A 
ENDBRANCH  13  14
ENDBRANCH  11  13
ENDBRANCH   1  11
TORSDOF 3
