REMARK  Name = DB11817
REMARK                            x       y       z     vdW  Elec       q    Type
REMARK                         _______ _______ _______ _____ _____    ______ ____
ROOT
ATOM      1  N   LIG    1        3.666  -1.483  -2.096  0.00  0.00    -0.261 N 
ATOM      2  N   LIG    1        4.068  -2.745  -1.901  0.00  0.00    -0.178 NA
ATOM      3  C   LIG    1        4.240  -3.228  -3.110  0.00  0.00    +0.144 A 
ATOM      4  C   LIG    1        3.991  -2.297  -4.136  0.00  0.00    +0.039 A 
ATOM      5  C   LIG    1        3.627  -1.159  -3.430  0.00  0.00    +0.119 A 
ENDROOT
BRANCH   4   6
ATOM      6  C   LIG    1        4.109  -2.495  -5.614  0.00  0.00    +0.086 A 
ATOM      7  N   LIG    1        4.624  -3.696  -6.000  0.00  0.00    -0.235 NA
ATOM      8  C   LIG    1        4.759  -3.923  -7.331  0.00  0.00    +0.224 A 
ATOM      9  N   LIG    1        4.439  -3.089  -8.355  0.00  0.00    -0.218 NA
ATOM     10  C   LIG    1        3.933  -1.923  -7.941  0.00  0.00    +0.142 A 
ATOM     11  N   LIG    1        3.514  -0.879  -8.737  0.00  0.00    -0.346 N 
ATOM     12  H   LIG    1        3.524  -0.828  -9.745  0.00  0.00    +0.167 HD
ATOM     13  C   LIG    1        3.051   0.142  -7.943  0.00  0.00    +0.085 A 
ATOM     14  C   LIG    1        3.160  -0.218  -6.612  0.00  0.00    +0.031 A 
ATOM     15  C   LIG    1        3.728  -1.538  -6.582  0.00  0.00    +0.045 A 
ENDBRANCH   4   6
BRANCH   1  18
ATOM     16  N   LIG    1        1.573  -0.138  -0.093  0.00  0.00    -0.176 NA
ATOM     17  C   LIG    1        2.415   0.548  -1.117  0.00  0.00    +0.141 C 
ATOM     18  C   LIG    1        3.429  -0.610  -0.938  0.00  0.00    +0.105 C 
ATOM     19  C   LIG    1        2.577  -1.198   0.214  0.00  0.00    +0.141 C 
BRANCH  16  20
ATOM     20  S   LIG    1       -0.175  -0.354  -0.141  0.00  0.00    +0.032 S 
ATOM     21  O   LIG    1       -0.531  -0.772  -1.501  0.00  0.00    -0.158 OA
ATOM     22  O   LIG    1       -0.531  -1.205   1.000  0.00  0.00    -0.158 OA
BRANCH  20  24
ATOM     23  C   LIG    1       -0.642   2.313  -0.997  0.00  0.00    +0.029 C 
ATOM     24  C   LIG    1       -0.873   1.375   0.196  0.00  0.00    +0.182 C 
ENDBRANCH  20  24
ENDBRANCH  16  20
BRANCH  18  25
ATOM     25  C   LIG    1        4.781  -0.085  -0.396  0.00  0.00    +0.151 C 
BRANCH  25  26
ATOM     26  C   LIG    1        5.518   0.764  -1.348  0.00  0.00    +0.065 C 
ATOM     27  N   LIG    1        6.095   1.430  -2.097  0.00  0.00    -0.196 NA
ENDBRANCH  25  26
ENDBRANCH  18  25
ENDBRANCH   1  18
TORSDOF 6
