REMARK  Name = DB11907
REMARK                            x       y       z     vdW  Elec       q    Type
REMARK                         _______ _______ _______ _____ _____    ______ ____
ROOT
ATOM      1  C   LIG    1        1.655   0.403   0.895  0.00  0.00    +0.221 A 
ATOM      2  N   LIG    1        2.031  -0.688   1.608  0.00  0.00    -0.199 NA
ATOM      3  C   LIG    1        3.148  -1.359   1.211  0.00  0.00    +0.140 A 
ATOM      4  C   LIG    1        3.886  -0.946   0.082  0.00  0.00    +0.113 A 
ATOM      5  C   LIG    1        3.406   0.182  -0.598  0.00  0.00    +0.130 A 
ATOM      6  N   LIG    1        2.295   0.858  -0.213  0.00  0.00    -0.222 NA
ENDROOT
BRANCH   4   7
ATOM      7  C   LIG    1        5.147  -1.672  -0.400  0.00  0.00    +0.422 C 
ATOM      8  F   LIG    1        5.698  -1.082  -1.462  0.00  0.00    -0.166 F 
ATOM      9  F   LIG    1        4.844  -2.926  -0.737  0.00  0.00    -0.166 F 
ATOM     10  F   LIG    1        6.058  -1.697   0.574  0.00  0.00    -0.166 F 
ENDBRANCH   4   7
BRANCH   1  11
ATOM     11  N   LIG    1        0.479   1.032   1.331  0.00  0.00    -0.281 N 
ATOM     12  H   LIG    1       -0.028   0.499   2.023  0.00  0.00    +0.155 HD
BRANCH  11  16
ATOM     13  C   LIG    1       -1.607   4.559   0.238  0.00  0.00    +0.033 A 
ATOM     14  C   LIG    1       -0.202   4.552   0.248  0.00  0.00    +0.070 A 
ATOM     15  C   LIG    1        0.543   3.420   0.626  0.00  0.00    +0.143 A 
ATOM     16  C   LIG    1       -0.147   2.239   0.965  0.00  0.00    +0.076 A 
ATOM     17  C   LIG    1       -1.542   2.243   0.984  0.00  0.00    +0.029 A 
ATOM     18  C   LIG    1       -2.259   3.378   0.618  0.00  0.00    +0.025 A 
BRANCH  13  24
ATOM     19  C   LIG    1       -3.141  10.605  -0.707  0.00  0.00    +0.109 C 
ATOM     20  C   LIG    1       -3.951   9.424  -0.163  0.00  0.00    +0.213 C 
ATOM     21  N   LIG    1       -3.736   8.179  -0.665  0.00  0.00    -0.299 N 
ATOM     22  C   LIG    1       -4.524   7.029  -0.207  0.00  0.00    +0.126 C 
ATOM     23  C   LIG    1       -3.589   6.049   0.537  0.00  0.00    +0.124 C 
ATOM     24  N   LIG    1       -2.336   5.687  -0.157  0.00  0.00    -0.327 N 
ATOM     25  C   LIG    1       -1.679   6.854  -0.777  0.00  0.00    +0.124 C 
ATOM     26  C   LIG    1       -2.600   7.842  -1.527  0.00  0.00    +0.126 C 
ATOM     27  O   LIG    1       -4.829   9.671   0.665  0.00  0.00    -0.276 OA
ENDBRANCH  13  24
BRANCH  15  28
ATOM     28  O   LIG    1        1.924   3.433   0.732  0.00  0.00    -0.493 OA
ATOM     29  C   LIG    1        2.660   4.594   0.362  0.00  0.00    +0.277 C 
ENDBRANCH  15  28
ENDBRANCH  11  16
ENDBRANCH   1  11
BRANCH   3  30
ATOM     30  N   LIG    1        3.550  -2.501   1.930  0.00  0.00    -0.299 N 
ATOM     31  H   LIG    1        4.290  -3.015   1.474  0.00  0.00    +0.154 HD
BRANCH  30  32
ATOM     32  C   LIG    1        3.061  -3.134   3.086  0.00  0.00    +0.034 A 
ATOM     33  C   LIG    1        3.361  -4.489   3.258  0.00  0.00    +0.046 A 
ATOM     34  C   LIG    1        2.915  -5.193   4.381  0.00  0.00    +0.035 A 
ATOM     35  C   LIG    1        2.180  -4.511   5.365  0.00  0.00    +0.023 A 
ATOM     36  C   LIG    1        1.891  -3.157   5.210  0.00  0.00    +0.004 A 
ATOM     37  C   LIG    1        2.328  -2.470   4.079  0.00  0.00    +0.023 A 
BRANCH  34  38
ATOM     38  N   LIG    1        3.275  -6.552   4.449  0.00  0.00    -0.282 N 
ATOM     39  H   LIG    1        3.982  -6.830   3.785  0.00  0.00    +0.155 HD
ATOM     40  C   LIG    1        2.764  -7.534   5.224  0.00  0.00    +0.241 C 
ATOM     41  O   LIG    1        1.837  -7.394   6.025  0.00  0.00    -0.271 OA
BRANCH  40  42
ATOM     42  C   LIG    1        3.428  -8.800   5.007  0.00  0.00    +0.060 C 
ATOM     43  C   LIG    1        3.079  -9.927   5.655  0.00  0.00    +0.013 C 
ENDBRANCH  40  42
ENDBRANCH  34  38
ENDBRANCH  30  32
ENDBRANCH   3  30
TORSDOF 9
