REMARK  Name = DB11125
REMARK                            x       y       z     vdW  Elec       q    Type
REMARK                         _______ _______ _______ _____ _____    ______ ____
ROOT
ATOM      1  O   LIG    1       -0.256   1.348  -0.201  0.00  0.00    -0.490 OA
ENDROOT
BRANCH   1   5
ATOM      2  C   LIG    1        0.219   3.522   3.364  0.00  0.00    -0.041 A 
ATOM      3  C   LIG    1        0.329   2.123   3.389  0.00  0.00    +0.008 A 
ATOM      4  C   LIG    1        0.183   1.372   2.225  0.00  0.00    +0.046 A 
ATOM      5  C   LIG    1       -0.081   2.004   1.003  0.00  0.00    +0.121 A 
ATOM      6  C   LIG    1       -0.201   3.392   0.973  0.00  0.00    +0.046 A 
ATOM      7  C   LIG    1       -0.056   4.141   2.136  0.00  0.00    +0.008 A 
BRANCH   2   8
ATOM      8  C   LIG    1        0.368   4.391   4.644  0.00  0.00    -0.009 C 
ATOM      9  C   LIG    1       -1.001   5.071   4.916  0.00  0.00    +0.016 C 
ATOM     10  C   LIG    1        0.687   3.556   5.914  0.00  0.00    +0.016 C 
BRANCH   8  11
ATOM     11  C   LIG    1        1.436   5.533   4.456  0.00  0.00    +0.017 C 
BRANCH  11  13
ATOM     12  C   LIG    1        3.622   5.036   5.747  0.00  0.00    +0.010 C 
ATOM     13  C   LIG    1        2.978   5.241   4.352  0.00  0.00    -0.037 C 
ATOM     14  C   LIG    1        3.312   4.029   3.453  0.00  0.00    +0.010 C 
ATOM     15  C   LIG    1        3.649   6.488   3.722  0.00  0.00    +0.010 C 
ENDBRANCH  11  13
ENDBRANCH   8  11
ENDBRANCH   2   8
ENDBRANCH   1   5
BRANCH   1  16
ATOM     16  C   LIG    1       -0.059  -0.063  -0.299  0.00  0.00    +0.257 C 
BRANCH  16  17
ATOM     17  C   LIG    1        1.430  -0.453  -0.305  0.00  0.00    +0.200 C 
BRANCH  17  18
ATOM     18  O   LIG    1        2.082   0.223  -1.372  0.00  0.00    -0.378 OA
BRANCH  18  19
ATOM     19  C   LIG    1        3.446  -0.134  -1.537  0.00  0.00    +0.142 C 
BRANCH  19  20
ATOM     20  C   LIG    1        4.029   0.770  -2.644  0.00  0.00    -0.047 C 
BRANCH  20  21
ATOM     21  N   LIG    1        5.498   0.436  -3.048  0.00  0.00    +0.380 N 
ATOM     22  C   LIG    1        5.599  -1.004  -3.613  0.00  0.00    -0.092 C 
ATOM     23  C   LIG    1        6.448   0.552  -1.829  0.00  0.00    -0.092 C 
BRANCH  21  24
ATOM     24  C   LIG    1        5.963   1.410  -4.175  0.00  0.00    -0.040 C 
BRANCH  24  25
ATOM     25  C   LIG    1        5.997   2.900  -3.838  0.00  0.00    -0.063 A 
ATOM     26  C   LIG    1        4.892   3.708  -4.125  0.00  0.00    +0.002 A 
ATOM     27  C   LIG    1        4.932   5.070  -3.841  0.00  0.00    +0.000 A 
ATOM     28  C   LIG    1        6.082   5.625  -3.284  0.00  0.00    +0.000 A 
ATOM     29  C   LIG    1        7.195   4.831  -3.013  0.00  0.00    +0.000 A 
ATOM     30  C   LIG    1        7.154   3.468  -3.296  0.00  0.00    +0.002 A 
ENDBRANCH  24  25
ENDBRANCH  21  24
ENDBRANCH  20  21
ENDBRANCH  19  20
ENDBRANCH  18  19
ENDBRANCH  17  18
ENDBRANCH  16  17
ENDBRANCH   1  16
TORSDOF 12
