REMARK  Name = DB11702
REMARK                            x       y       z     vdW  Elec       q    Type
REMARK                         _______ _______ _______ _____ _____    ______ ____
ROOT
ATOM      1  C   LIG    1        1.280  -0.212   0.337  0.00  0.00    +0.218 C 
ATOM      2  N   LIG    1        1.784  -1.306  -0.262  0.00  0.00    -0.304 N 
ATOM      3  H   LIG    1        1.157  -1.899  -0.785  0.00  0.00    +0.149 HD
ATOM      4  O   LIG    1        1.962   0.567   1.006  0.00  0.00    -0.275 OA
ENDROOT
BRANCH   2   5
ATOM      5  C   LIG    1        3.189  -1.725  -0.230  0.00  0.00    +0.160 C 
ATOM      6  C   LIG    1        3.449  -2.677  -1.428  0.00  0.00    +0.240 C 
ATOM      7  O   LIG    1        3.211  -2.375  -2.597  0.00  0.00    -0.273 OA
ATOM      8  N   LIG    1        3.908  -3.910  -1.110  0.00  0.00    -0.255 N 
ATOM      9  H   LIG    1        4.145  -4.477  -1.911  0.00  0.00    +0.158 HD
ATOM     10  C   LIG    1        3.993  -4.572   0.067  0.00  0.00    +0.219 C 
ATOM     11  O   LIG    1        4.383  -5.736   0.127  0.00  0.00    -0.275 OA
ATOM     12  C   LIG    1        3.509  -3.781   1.300  0.00  0.00    +0.098 C 
ATOM     13  C   LIG    1        3.742  -2.273   1.110  0.00  0.00    +0.041 C 
ENDBRANCH   2   5
BRANCH   1  14
ATOM     14  C   LIG    1       -0.233   0.010   0.172  0.00  0.00    +0.130 C 
BRANCH  14  18
ATOM     15  C   LIG    1       -1.258   4.189  -0.031  0.00  0.00    +0.000 A 
ATOM     16  C   LIG    1       -1.366   3.511   1.182  0.00  0.00    +0.000 A 
ATOM     17  C   LIG    1       -1.040   2.159   1.247  0.00  0.00    +0.004 A 
ATOM     18  C   LIG    1       -0.614   1.486   0.098  0.00  0.00    -0.039 A 
ATOM     19  C   LIG    1       -0.501   2.175  -1.114  0.00  0.00    +0.004 A 
ATOM     20  C   LIG    1       -0.826   3.528  -1.178  0.00  0.00    +0.000 A 
ENDBRANCH  14  18
ENDBRANCH   1  14
TORSDOF 3
