REMARK  Name = DB11881
REMARK                            x       y       z     vdW  Elec       q    Type
REMARK                         _______ _______ _______ _____ _____    ______ ____
ROOT
ATOM      1  C   LIG    1       -2.304  -0.038   0.156  0.00  0.00    +0.176 A 
ATOM      2  N   LIG    1       -1.945  -1.310   0.127  0.00  0.00    -0.072 NA
ATOM      3  O   LIG    1       -0.556  -1.351   0.096  0.00  0.00    -0.353 OA
ATOM      4  C   LIG    1       -0.085  -0.083   0.116  0.00  0.00    +0.179 A 
ATOM      5  C   LIG    1       -1.160   0.798   0.151  0.00  0.00    +0.061 A 
ENDROOT
BRANCH   4   6
ATOM      6  C   LIG    1        1.399   0.096   0.058  0.00  0.00    +0.062 A 
ATOM      7  C   LIG    1        2.291  -0.715   0.771  0.00  0.00    +0.131 A 
ATOM      8  C   LIG    1        3.660  -0.480   0.685  0.00  0.00    +0.091 A 
ATOM      9  C   LIG    1        4.159   0.561  -0.099  0.00  0.00    +0.124 A 
ATOM     10  C   LIG    1        3.287   1.398  -0.830  0.00  0.00    +0.000 A 
ATOM     11  C   LIG    1        1.910   1.127  -0.736  0.00  0.00    +0.023 A 
BRANCH  10  12
ATOM     12  C   LIG    1        3.809   2.583  -1.701  0.00  0.00    -0.009 C 
ATOM     13  C   LIG    1        4.752   2.068  -2.820  0.00  0.00    +0.015 C 
ATOM     14  C   LIG    1        2.671   3.367  -2.417  0.00  0.00    +0.015 C 
ATOM     15  C   LIG    1        4.551   3.616  -0.815  0.00  0.00    +0.015 C 
ENDBRANCH  10  12
BRANCH   7  16
ATOM     16  O   LIG    1        1.850  -1.733   1.577  0.00  0.00    -0.506 OA
ATOM     17  H   LIG    1        2.566  -2.201   2.013  0.00  0.00    +0.292 HD
ENDBRANCH   7  16
BRANCH   9  18
ATOM     18  O   LIG    1        5.520   0.723  -0.112  0.00  0.00    -0.506 OA
ATOM     19  H   LIG    1        5.977   0.080   0.435  0.00  0.00    +0.292 HD
ENDBRANCH   9  18
ENDBRANCH   4   6
BRANCH   5  20
ATOM     20  C   LIG    1       -1.050   2.288   0.169  0.00  0.00    -0.012 A 
ATOM     21  C   LIG    1       -0.302   2.913   1.169  0.00  0.00    +0.009 A 
ATOM     22  C   LIG    1       -0.152   4.297   1.165  0.00  0.00    +0.005 A 
ATOM     23  C   LIG    1       -0.725   5.062   0.147  0.00  0.00    -0.033 A 
ATOM     24  C   LIG    1       -1.509   4.438  -0.830  0.00  0.00    +0.005 A 
ATOM     25  C   LIG    1       -1.658   3.054  -0.828  0.00  0.00    +0.009 A 
BRANCH  23  26
ATOM     26  C   LIG    1       -0.598   6.584   0.204  0.00  0.00    +0.119 C 
BRANCH  26  27
ATOM     27  N   LIG    1       -0.470   7.227  -1.109  0.00  0.00    -0.294 NA
ATOM     28  C   LIG    1       -0.695   8.674  -1.002  0.00  0.00    +0.113 C 
ATOM     29  C   LIG    1       -0.498   9.376  -2.363  0.00  0.00    +0.175 C 
ATOM     30  O   LIG    1        0.791   9.074  -2.886  0.00  0.00    -0.377 OA
ATOM     31  C   LIG    1        0.983   7.677  -3.082  0.00  0.00    +0.175 C 
ATOM     32  C   LIG    1        0.823   6.928  -1.742  0.00  0.00    +0.113 C 
ENDBRANCH  26  27
ENDBRANCH  23  26
ENDBRANCH   5  20
BRANCH   1  35
ATOM     33  N   LIG    1       -4.614  -0.549   0.012  0.00  0.00    -0.310 N 
ATOM     34  H   LIG    1       -4.298  -1.489  -0.174  0.00  0.00    +0.149 HD
ATOM     35  C   LIG    1       -3.688   0.404   0.249  0.00  0.00    +0.266 C 
ATOM     36  O   LIG    1       -3.982   1.570   0.519  0.00  0.00    -0.268 OA
BRANCH  33  38
ATOM     37  C   LIG    1       -6.588   0.373  -1.227  0.00  0.00    +0.024 C 
ATOM     38  C   LIG    1       -6.061  -0.342   0.028  0.00  0.00    +0.101 C 
ENDBRANCH  33  38
ENDBRANCH   1  35
TORSDOF 9
