REMARK  Name = DB11115
REMARK                            x       y       z     vdW  Elec       q    Type
REMARK                         _______ _______ _______ _____ _____    ______ ____
ROOT
ATOM      1  C   LIG    1       -4.195  -1.520   0.015  0.00  0.00    +0.139 A 
ATOM      2  N   LIG    1       -2.962  -2.139  -0.012  0.00  0.00    -0.338 N 
ATOM      3  H   LIG    1       -2.846  -3.142  -0.039  0.00  0.00    +0.167 HD
ATOM      4  C   LIG    1       -1.996  -1.161   0.004  0.00  0.00    +0.068 A 
ATOM      5  C   LIG    1       -2.739   0.043   0.040  0.00  0.00    +0.090 A 
ATOM      6  C   LIG    1       -2.067   1.273   0.062  0.00  0.00    +0.032 A 
ATOM      7  C   LIG    1       -0.672   1.261   0.045  0.00  0.00    +0.032 A 
ATOM      8  C   LIG    1        0.048   0.061   0.014  0.00  0.00    +0.119 A 
ATOM      9  C   LIG    1       -0.599  -1.181  -0.012  0.00  0.00    +0.057 A 
ATOM     10  N   LIG    1       -4.086  -0.210   0.047  0.00  0.00    -0.228 NA
ENDROOT
BRANCH   1  14
ATOM     11  C   LIG    1       -7.927  -3.644  -0.023  0.00  0.00    +0.000 A 
ATOM     12  C   LIG    1       -6.729  -4.353  -0.023  0.00  0.00    +0.001 A 
ATOM     13  C   LIG    1       -5.519  -3.664  -0.009  0.00  0.00    +0.011 A 
ATOM     14  C   LIG    1       -5.499  -2.263   0.005  0.00  0.00    +0.017 A 
ATOM     15  C   LIG    1       -6.714  -1.563   0.006  0.00  0.00    +0.011 A 
ATOM     16  C   LIG    1       -7.925  -2.252  -0.008  0.00  0.00    +0.001 A 
ENDBRANCH   1  14
BRANCH   8  17
ATOM     17  S   LIG    1        1.838   0.110  -0.022  0.00  0.00    +0.110 S 
ATOM     18  O   LIG    1        2.288   1.406   0.499  0.00  0.00    -0.142 OA
ATOM     19  O   LIG    1        2.271  -0.398  -1.328  0.00  0.00    -0.142 OA
BRANCH  17  20
ATOM     20  O   LIG    1        2.144  -1.056   1.121  0.00  0.00    -0.250 OA
ATOM     21  H   LIG    1        2.011  -1.949   0.749  0.00  0.00    +0.245 HD
ENDBRANCH  17  20
ENDBRANCH   8  17
TORSDOF 3
