REMARK  Name = DB11217
REMARK                            x       y       z     vdW  Elec       q    Type
REMARK                         _______ _______ _______ _____ _____    ______ ____
ROOT
ATOM      1  C   LIG    1        1.481   0.129  -0.148  0.00  0.00    +0.339 C 
ATOM      2  C   LIG    1        1.853  -1.359  -0.023  0.00  0.00    +0.214 C 
ATOM      3  C   LIG    1        3.392  -1.527  -0.093  0.00  0.00    +0.180 C 
ATOM      4  C   LIG    1        3.999  -0.757  -1.289  0.00  0.00    +0.177 C 
ATOM      5  C   LIG    1        3.450   0.690  -1.341  0.00  0.00    +0.179 C 
ATOM      6  O   LIG    1        2.019   0.631  -1.345  0.00  0.00    -0.331 OA
ENDROOT
BRANCH   2   7
ATOM      7  O   LIG    1        1.323  -1.926   1.163  0.00  0.00    -0.383 OA
ATOM      8  H   LIG    1        1.923  -1.736   1.888  0.00  0.00    +0.210 HD
ENDBRANCH   2   7
BRANCH   4   9
ATOM      9  O   LIG    1        5.417  -0.779  -1.252  0.00  0.00    -0.386 OA
ATOM     10  H   LIG    1        5.707  -0.451  -0.398  0.00  0.00    +0.210 HD
ENDBRANCH   4   9
BRANCH   3  11
ATOM     11  O   LIG    1        3.764  -2.895  -0.109  0.00  0.00    -0.386 OA
ATOM     12  H   LIG    1        3.405  -3.301  -0.902  0.00  0.00    +0.210 HD
ENDBRANCH   3  11
BRANCH   1  13
ATOM     13  O   LIG    1        0.084   0.203  -0.188  0.00  0.00    -0.461 OA
BRANCH  13  14
ATOM     14  C   LIG    1       -0.553   1.425  -0.063  0.00  0.00    +0.124 A 
ATOM     15  C   LIG    1       -1.946   1.391   0.027  0.00  0.00    +0.049 A 
ATOM     16  C   LIG    1       -2.676   2.570   0.152  0.00  0.00    +0.049 A 
ATOM     17  C   LIG    1       -2.011   3.794   0.186  0.00  0.00    +0.117 A 
ATOM     18  C   LIG    1       -0.622   3.845   0.092  0.00  0.00    +0.049 A 
ATOM     19  C   LIG    1        0.107   2.666  -0.034  0.00  0.00    +0.049 A 
BRANCH  17  20
ATOM     20  O   LIG    1       -2.729   4.954   0.310  0.00  0.00    -0.507 OA
ATOM     21  H   LIG    1       -2.174   5.736   0.327  0.00  0.00    +0.292 HD
ENDBRANCH  17  20
ENDBRANCH  13  14
ENDBRANCH   1  13
BRANCH   5  22
ATOM     22  C   LIG    1        3.899   1.461  -2.600  0.00  0.00    +0.190 C 
BRANCH  22  23
ATOM     23  O   LIG    1        3.476   2.809  -2.539  0.00  0.00    -0.392 OA
ATOM     24  H   LIG    1        3.753   3.253  -3.344  0.00  0.00    +0.210 HD
ENDBRANCH  22  23
ENDBRANCH   5  22
TORSDOF 8
