REMARK  Name = DB11841
REMARK                            x       y       z     vdW  Elec       q    Type
REMARK                         _______ _______ _______ _____ _____    ______ ____
ROOT
ATOM      1  C   LIG    1       -2.902  -0.132  -0.102  0.00  0.00    +0.037 A 
ATOM      2  C   LIG    1       -2.194  -1.312   0.174  0.00  0.00    +0.013 A 
ATOM      3  C   LIG    1       -0.802  -1.316   0.182  0.00  0.00    +0.006 A 
ATOM      4  C   LIG    1       -0.098  -0.143  -0.094  0.00  0.00    -0.030 A 
ATOM      5  C   LIG    1       -0.791   1.039  -0.355  0.00  0.00    +0.006 A 
ATOM      6  C   LIG    1       -2.184   1.044  -0.361  0.00  0.00    +0.013 A 
ENDROOT
BRANCH   1   9
ATOM      7  N   LIG    1       -5.025  -1.285  -0.351  0.00  0.00    -0.280 N 
ATOM      8  H   LIG    1       -4.435  -2.068  -0.590  0.00  0.00    +0.155 HD
ATOM      9  C   LIG    1       -4.415  -0.103  -0.105  0.00  0.00    +0.248 C 
ATOM     10  O   LIG    1       -5.018   0.958   0.075  0.00  0.00    -0.270 OA
BRANCH   7  14
ATOM     11  C   LIG    1       -9.154  -2.118  -0.486  0.00  0.00    +0.002 A 
ATOM     12  C   LIG    1       -8.286  -2.720  -1.395  0.00  0.00    +0.024 A 
ATOM     13  C   LIG    1       -6.917  -2.440  -1.360  0.00  0.00    +0.046 A 
ATOM     14  C   LIG    1       -6.411  -1.536  -0.404  0.00  0.00    +0.055 A 
ATOM     15  C   LIG    1       -7.295  -0.948   0.516  0.00  0.00    +0.025 A 
ATOM     16  C   LIG    1       -8.659  -1.235   0.470  0.00  0.00    +0.002 A 
BRANCH  13  17
ATOM     17  N   LIG    1       -6.089  -3.075  -2.293  0.00  0.00    -0.357 N 
ATOM     18  H   LIG    1       -5.324  -2.519  -2.645  0.00  0.00    +0.142 HD
ATOM     19  H   LIG    1       -6.554  -3.698  -2.937  0.00  0.00    +0.142 HD
ENDBRANCH  13  17
ENDBRANCH   7  14
ENDBRANCH   1   9
BRANCH   4  20
ATOM     20  C   LIG    1        1.425  -0.148  -0.054  0.00  0.00    +0.142 C 
BRANCH  20  21
ATOM     21  N   LIG    1        2.045  -0.751  -1.233  0.00  0.00    -0.277 N 
ATOM     22  H   LIG    1        2.393  -1.696  -1.161  0.00  0.00    +0.152 HD
ATOM     23  C   LIG    1        2.073  -0.131  -2.474  0.00  0.00    +0.401 C 
ATOM     24  O   LIG    1        1.659   1.002  -2.732  0.00  0.00    -0.226 OA
BRANCH  23  25
ATOM     25  O   LIG    1        2.633  -0.970  -3.366  0.00  0.00    -0.446 OA
BRANCH  25  26
ATOM     26  C   LIG    1        2.817  -0.579  -4.723  0.00  0.00    +0.270 C 
BRANCH  26  27
ATOM     27  C   LIG    1        3.281  -1.757  -5.569  0.00  0.00    +0.008 A 
ATOM     28  C   LIG    1        2.814  -3.059  -5.346  0.00  0.00    +0.010 A 
ATOM     29  C   LIG    1        3.273  -4.106  -6.148  0.00  0.00    +0.020 A 
ATOM     30  C   LIG    1        4.195  -3.817  -7.156  0.00  0.00    +0.111 A 
ATOM     31  N   LIG    1        4.663  -2.564  -7.391  0.00  0.00    -0.263 NA
ATOM     32  C   LIG    1        4.204  -1.559  -6.602  0.00  0.00    +0.117 A 
ENDBRANCH  26  27
ENDBRANCH  25  26
ENDBRANCH  23  25
ENDBRANCH  20  21
ENDBRANCH   4  20
TORSDOF 8
