REMARK  Name = DB11254
REMARK                            x       y       z     vdW  Elec       q    Type
REMARK                         _______ _______ _______ _____ _____    ______ ____
ROOT
ATOM      1  C   LIG    1        3.599  -1.456  -0.009  0.00  0.00    -0.006 A 
ATOM      2  C   LIG    1        4.308  -1.445  -1.222  0.00  0.00    +0.123 A 
ATOM      3  C   LIG    1        5.705  -1.466  -1.215  0.00  0.00    +0.091 A 
ATOM      4  C   LIG    1        6.401  -1.495  -0.007  0.00  0.00    +0.120 A 
ATOM      5  C   LIG    1        5.702  -1.502   1.200  0.00  0.00    +0.046 A 
ATOM      6  C   LIG    1        4.308  -1.482   1.198  0.00  0.00    +0.011 A 
ENDROOT
BRANCH   2   7
ATOM      7  O   LIG    1        3.655  -1.409  -2.428  0.00  0.00    -0.506 OA
ATOM      8  H   LIG    1        4.256  -1.401  -3.176  0.00  0.00    +0.292 HD
ENDBRANCH   2   7
BRANCH   4   9
ATOM      9  O   LIG    1        7.770  -1.515  -0.005  0.00  0.00    -0.507 OA
ATOM     10  H   LIG    1        8.141  -1.530   0.880  0.00  0.00    +0.292 HD
ENDBRANCH   4   9
BRANCH   1  11
ATOM     11  C   LIG    1        2.074  -1.433   0.025  0.00  0.00    +0.039 C 
BRANCH  11  12
ATOM     12  C   LIG    1        1.504  -0.003  -0.019  0.00  0.00    +0.005 C 
BRANCH  12  13
ATOM     13  C   LIG    1       -0.034   0.031   0.014  0.00  0.00    +0.000 C 
BRANCH  13  14
ATOM     14  C   LIG    1       -0.603   1.461  -0.005  0.00  0.00    -0.000 C 
BRANCH  14  16
ATOM     15  C   LIG    1       -2.709   2.920  -0.003  0.00  0.00    +0.004 C 
ATOM     16  C   LIG    1       -2.141   1.494   0.005  0.00  0.00    -0.003 C 
ENDBRANCH  14  16
ENDBRANCH  13  14
ENDBRANCH  12  13
ENDBRANCH  11  12
ENDBRANCH   1  11
TORSDOF 7
