REMARK  Name = DB11596
REMARK                            x       y       z     vdW  Elec       q    Type
REMARK                         _______ _______ _______ _____ _____    ______ ____
ROOT
ATOM      1  N   UNK A  0       -6.104  -0.021  -0.109  0.00  0.00    -0.342 N 
ATOM      2  H   UNK A  0       -6.692   0.774  -0.312  0.00  0.00    +0.146 HD
ENDROOT
BRANCH   1   3
ATOM      3  C   UNK A  0       -4.712   0.162  -0.069  0.00  0.00    +0.027 A 
ATOM      4  C   UNK A  0       -3.823  -0.846   0.322  0.00  0.00    +0.023 A 
ATOM      5  C   UNK A  0       -2.452  -0.607   0.325  0.00  0.00    +0.015 A 
ATOM      6  C   UNK A  0       -1.942   0.643  -0.060  0.00  0.00    +0.037 A 
ATOM      7  C   UNK A  0       -2.841   1.648  -0.439  0.00  0.00    +0.015 A 
ATOM      8  C   UNK A  0       -4.212   1.409  -0.445  0.00  0.00    +0.023 A 
BRANCH   6   9
ATOM      9  C   UNK A  0       -0.453   0.924  -0.071  0.00  0.00    +0.245 C 
ATOM     10  N   GLU A  1        0.361  -0.148   0.009  0.00  0.00    -0.298 N 
ATOM     11  H   GLU A  1       -0.055  -1.065   0.068  0.00  0.00    +0.150 HD
ATOM     12  O   UNK A  0       -0.030   2.079  -0.164  0.00  0.00    -0.270 OA
BRANCH  10  13
ATOM     13  CA  GLU A  1        1.830  -0.126  -0.012  0.00  0.00    +0.182 C 
BRANCH  13  14
ATOM     14  C   GLU A  1        2.388   0.284  -1.396  0.00  0.00    +0.325 C 
ATOM     15  OXT GLU A  1        1.800   0.126  -2.447  0.00  0.00    -0.249 OA
BRANCH  14  16
ATOM     16  O   GLU A  1        3.617   0.859  -1.246  0.00  0.00    -0.479 OA
ATOM     17  H   GLU A  1        3.992   1.142  -2.083  0.00  0.00    +0.295 HD
ENDBRANCH  14  16
ENDBRANCH  13  14
BRANCH  13  18
ATOM     18  CB  GLU A  1        2.339  -1.513   0.462  0.00  0.00    +0.045 C 
BRANCH  18  19
ATOM     19  CG  GLU A  1        3.861  -1.621   0.687  0.00  0.00    +0.123 C 
BRANCH  19  20
ATOM     20  CD  GLU A  1        4.251  -2.974   1.280  0.00  0.00    +0.305 C 
ATOM     21  OE2 GLU A  1        4.416  -3.172   2.481  0.00  0.00    -0.251 OA
BRANCH  20  22
ATOM     22  OE1 GLU A  1        4.388  -3.936   0.323  0.00  0.00    -0.481 OA
ATOM     23  HE1 GLU A  1        4.633  -4.789   0.689  0.00  0.00    +0.295 HD
ENDBRANCH  20  22
ENDBRANCH  19  20
ENDBRANCH  18  19
ENDBRANCH  13  18
ENDBRANCH  10  13
ENDBRANCH   6   9
ENDBRANCH   1   3
BRANCH   1  24
ATOM     24  C   UNK A  0       -6.745  -1.251   0.350  0.00  0.00    +0.126 C 
BRANCH  24  35
ATOM     25  O   UNK A  0       -9.035   0.403  -3.712  0.00  0.00    -0.264 OA
ATOM     26  C   UNK A  0       -9.925   0.529  -2.871  0.00  0.00    +0.298 A 
ATOM     27  C   UNK A  0       -9.765  -0.111  -1.527  0.00  0.00    +0.142 A 
ATOM     28  C   UNK A  0      -10.575   0.323  -0.524  0.00  0.00    +0.126 A 
ATOM     29  N   UNK A  0      -11.605   1.205  -0.753  0.00  0.00    -0.315 N 
ATOM     30  H   UNK A  0      -12.192   1.514   0.007  0.00  0.00    +0.170 HD
ATOM     31  C   UNK A  0      -11.843   1.642  -2.046  0.00  0.00    +0.195 A 
ATOM     32  N   UNK A  0      -10.356  -0.030   0.780  0.00  0.00    -0.327 N 
ATOM     33  H   UNK A  0      -10.912   0.393   1.509  0.00  0.00    +0.148 HD
ATOM     34  C   UNK A  0       -8.964  -0.262   1.146  0.00  0.00    +0.127 C 
ATOM     35  C   UNK A  0       -8.281  -1.264   0.150  0.00  0.00    +0.115 C 
ATOM     36  N   UNK A  0       -8.755  -1.045  -1.263  0.00  0.00    -0.261 N 
ATOM     37  C   UNK A  0       -8.553  -2.084  -2.130  0.00  0.00    +0.333 C 
ATOM     38  O   UNK A  0       -7.849  -3.073  -1.917  0.00  0.00    -0.279 OA
ATOM     39  N   UNK A  0      -11.095   1.308  -3.037  0.00  0.00    -0.176 NA
BRANCH  31  40
ATOM     40  N   UNK A  0      -12.958   2.476  -2.273  0.00  0.00    -0.329 N 
ATOM     41  H   UNK A  0      -13.820   2.210  -1.821  0.00  0.00    +0.145 HD
ATOM     42  H   UNK A  0      -13.142   2.721  -3.235  0.00  0.00    +0.145 HD
ENDBRANCH  31  40
ENDBRANCH  24  35
ENDBRANCH   1  24
TORSDOF 12
