REMARK  Name = DB11129
REMARK                            x       y       z     vdW  Elec       q    Type
REMARK                         _______ _______ _______ _____ _____    ______ ____
ROOT
ATOM      1  C   LIG    1        0.199   0.287   0.233  0.00  0.00    +0.294 C 
ATOM      2  O   LIG    1       -0.198   0.138   1.385  0.00  0.00    -0.253 OA
ATOM      3  N   LIG    1       -0.435   1.029  -0.673  0.00  0.00    -0.314 N 
ATOM      4  H   LIG    1       -0.068   1.120  -1.608  0.00  0.00    +0.146 HD
ATOM      5  H   LIG    1       -1.290   1.504  -0.425  0.00  0.00    +0.146 HD
ATOM      6  N   LIG    1        1.309  -0.276  -0.240  0.00  0.00    -0.314 N 
ATOM      7  H   LIG    1        1.594  -0.123  -1.196  0.00  0.00    +0.146 HD
ATOM      8  H   LIG    1        1.872  -0.862   0.359  0.00  0.00    +0.146 HD
ENDROOT
TORSDOF 0
