REMARK  Name = DB11189
REMARK                            x       y       z     vdW  Elec       q    Type
REMARK                         _______ _______ _______ _____ _____    ______ ____
ROOT
ATOM      1  CA  GLY A  1        0.038   0.148  -0.194  0.00  0.00    +0.199 C 
ENDROOT
BRANCH   1   2
ATOM      2  N   GLY A  1       -0.530   1.366   0.376  0.00  0.00    -0.321 NA
ATOM      3  H1  GLY A  1       -0.351   1.382   1.370  0.00  0.00    +0.119 HD
ATOM      4  H2  GLY A  1       -1.533   1.355   0.265  0.00  0.00    +0.119 HD
ENDBRANCH   1   2
BRANCH   1   5
ATOM      5  C   GLY A  1        1.577   0.025  -0.052  0.00  0.00    +0.319 C 
ATOM      6  O   GLY A  1        2.235   0.869   0.603  0.00  0.00    -0.250 OA
BRANCH   5   7
ATOM      7  OXT GLY A  1        2.090  -0.968  -0.616  0.00  0.00    -0.480 OA
ATOM      8  HXT GLY A  1        1.550  -1.567  -1.092  0.00  0.00    +0.295 HD
ENDBRANCH   5   7
ENDBRANCH   1   5
TORSDOF 3
