REMARK  Name = DB11783
REMARK                            x       y       z     vdW  Elec       q    Type
REMARK                         _______ _______ _______ _____ _____    ______ ____
ROOT
ATOM      1  N   ALA A  1        1.388  -0.412   0.101  0.00  0.00    -0.294 NA
ATOM      2  H   ALA A  1        1.812   0.043   0.898  0.00  0.00    +0.123 HD
ENDROOT
BRANCH   1   3
ATOM      3  CA  ALA A  1        1.917  -1.780  -0.021  0.00  0.00    +0.139 C 
ATOM      4  CB  ALA A  1        1.440  -2.451  -1.314  0.00  0.00    +0.034 C 
BRANCH   3   5
ATOM      5  C   ALA A  1        3.478  -1.727  -0.030  0.00  0.00    +0.241 C 
ATOM      6  O   ALA A  1        4.024  -0.711  -0.478  0.00  0.00    -0.273 OA
ATOM      7  N   UNK A  2        4.223  -2.789   0.420  0.00  0.00    -0.209 N 
ATOM      8  C   UNK A  2        3.788  -3.892   1.112  0.00  0.00    +0.312 C 
ATOM      9  O   UNK A  2        2.697  -4.465   1.050  0.00  0.00    -0.252 OA
ATOM     10  N   UNK A  2        4.833  -4.231   1.908  0.00  0.00    -0.286 N 
ATOM     11  C   UNK A  2        5.905  -3.265   1.865  0.00  0.00    +0.143 C 
ATOM     12  C   UNK A  2        4.652  -5.062   3.095  0.00  0.00    +0.133 C 
ATOM     13  C   UNK A  2        5.697  -2.679   0.487  0.00  0.00    +0.211 C 
BRANCH  13  14
ATOM     14  C   UNK A  2        6.353  -3.348  -0.762  0.00  0.00    +0.328 C 
ATOM     15  O   UNK A  2        7.024  -4.394  -0.603  0.00  0.00    -0.249 OA
BRANCH  14  16
ATOM     16  O   UNK A  2        6.195  -2.782  -1.868  0.00  0.00    -0.479 OA
ATOM     17  H   UNK A  2        5.681  -2.001  -1.925  0.00  0.00    +0.295 HD
ENDBRANCH  14  16
ENDBRANCH  13  14
ENDBRANCH   3   5
ENDBRANCH   1   3
BRANCH   1  18
ATOM     18  C   UNK A  0       -0.084  -0.217   0.143  0.00  0.00    +0.164 C 
BRANCH  18  19
ATOM     19  C   UNK A  0       -0.667  -0.860   1.392  0.00  0.00    +0.324 C 
ATOM     20  O   UNK A  0       -0.624  -0.336   2.508  0.00  0.00    -0.249 OA
BRANCH  19  21
ATOM     21  O   UNK A  0       -1.221  -2.065   1.111  0.00  0.00    -0.464 OA
BRANCH  21  23
ATOM     22  C   UNK A  0       -3.266  -2.381   2.430  0.00  0.00    +0.048 C 
ATOM     23  C   UNK A  0       -1.838  -2.859   2.120  0.00  0.00    +0.229 C 
ENDBRANCH  21  23
ENDBRANCH  19  21
ENDBRANCH  18  19
BRANCH  18  24
ATOM     24  C   UNK A  0       -0.444   1.292   0.058  0.00  0.00    +0.035 C 
BRANCH  24  25
ATOM     25  C   UNK A  0       -1.951   1.613  -0.085  0.00  0.00    +0.037 C 
BRANCH  25  26
ATOM     26  C   UNK A  0       -2.600   0.983  -1.310  0.00  0.00    -0.047 A 
ATOM     27  C   UNK A  0       -3.369  -0.177  -1.174  0.00  0.00    +0.003 A 
ATOM     28  C   UNK A  0       -3.950  -0.761  -2.296  0.00  0.00    +0.000 A 
ATOM     29  C   UNK A  0       -3.764  -0.182  -3.550  0.00  0.00    +0.000 A 
ATOM     30  C   UNK A  0       -3.001   0.975  -3.692  0.00  0.00    +0.000 A 
ATOM     31  C   UNK A  0       -2.418   1.559  -2.570  0.00  0.00    +0.003 A 
ENDBRANCH  25  26
ENDBRANCH  24  25
ENDBRANCH  18  24
ENDBRANCH   1  18
TORSDOF 11
