REMARK  Name = DB11583
REMARK                            x       y       z     vdW  Elec       q    Type
REMARK                         _______ _______ _______ _____ _____    ______ ____
ROOT
ATOM      1  C   LIG    1       -2.293   1.823   0.003  0.00  0.00    -0.002 C 
ENDROOT
BRANCH   1   2
ATOM      2  C   LIG    1       -2.833   1.089   1.250  0.00  0.00    -0.018 C 
BRANCH   2   3
ATOM      3  C   LIG    1       -2.197   1.577   2.574  0.00  0.00    -0.075 C 
BRANCH   3   4
ATOM      4  N   LIG    1       -2.688   0.825   3.849  0.00  0.00    +0.379 N 
ATOM      5  C   LIG    1       -2.328  -0.681   3.779  0.00  0.00    -0.092 C 
ATOM      6  C   LIG    1       -4.224   0.956   4.012  0.00  0.00    -0.092 C 
BRANCH   4   7
ATOM      7  C   LIG    1       -2.028   1.463   5.111  0.00  0.00    -0.040 C 
BRANCH   7   8
ATOM      8  C   LIG    1       -0.501   1.445   5.179  0.00  0.00    -0.063 A 
ATOM      9  C   LIG    1        0.161   0.363   5.767  0.00  0.00    +0.002 A 
ATOM     10  C   LIG    1        1.551   0.356   5.844  0.00  0.00    +0.000 A 
ATOM     11  C   LIG    1        2.276   1.435   5.343  0.00  0.00    +0.000 A 
ATOM     12  C   LIG    1        1.623   2.525   4.772  0.00  0.00    +0.000 A 
ATOM     13  C   LIG    1        0.232   2.533   4.697  0.00  0.00    +0.002 A 
ENDBRANCH   7   8
ENDBRANCH   4   7
ENDBRANCH   3   4
ENDBRANCH   2   3
ENDBRANCH   1   2
BRANCH   1  14
ATOM     14  C   LIG    1       -0.765   1.755  -0.212  0.00  0.00    -0.000 C 
BRANCH  14  15
ATOM     15  C   LIG    1       -0.192   0.326  -0.288  0.00  0.00    -0.000 C 
BRANCH  15  16
ATOM     16  C   LIG    1        1.324   0.301  -0.565  0.00  0.00    -0.000 C 
BRANCH  16  17
ATOM     17  C   LIG    1        1.960  -1.101  -0.479  0.00  0.00    -0.000 C 
BRANCH  17  18
ATOM     18  C   LIG    1        1.480  -2.087  -1.561  0.00  0.00    -0.000 C 
BRANCH  18  19
ATOM     19  C   LIG    1        2.163  -3.463  -1.459  0.00  0.00    -0.000 C 
BRANCH  19  20
ATOM     20  C   LIG    1        1.713  -4.442  -2.561  0.00  0.00    -0.000 C 
BRANCH  20  21
ATOM     21  C   LIG    1        2.273  -5.870  -2.409  0.00  0.00    -0.000 C 
BRANCH  21  22
ATOM     22  C   LIG    1        3.804  -5.974  -2.555  0.00  0.00    -0.000 C 
BRANCH  22  23
ATOM     23  C   LIG    1        4.313  -7.424  -2.476  0.00  0.00    -0.000 C 
BRANCH  23  24
ATOM     24  C   LIG    1        5.843  -7.532  -2.604  0.00  0.00    -0.000 C 
BRANCH  24  25
ATOM     25  C   LIG    1        6.349  -8.984  -2.534  0.00  0.00    -0.003 C 
ATOM     26  C   LIG    1        7.875  -9.093  -2.653  0.00  0.00    +0.004 C 
ENDBRANCH  24  25
ENDBRANCH  23  24
ENDBRANCH  22  23
ENDBRANCH  21  22
ENDBRANCH  20  21
ENDBRANCH  19  20
ENDBRANCH  18  19
ENDBRANCH  17  18
ENDBRANCH  16  17
ENDBRANCH  15  16
ENDBRANCH  14  15
ENDBRANCH   1  14
TORSDOF 17
