REMARK  Name = DB11328
REMARK                            x       y       z     vdW  Elec       q    Type
REMARK                         _______ _______ _______ _____ _____    ______ ____
ROOT
ATOM      1  C   LIG    1       -0.100  -0.050   0.039  0.00  0.00    +0.152 C 
ENDROOT
BRANCH   1   2
ATOM      2  O   LIG    1       -0.642   1.264   0.086  0.00  0.00    -0.213 OA
BRANCH   2   3
ATOM      3  S   LIG    1       -1.826   1.655  -1.023  0.00  0.00    +0.208 S 
ATOM      4  O   LIG    1       -1.214   1.695  -2.356  0.00  0.00    -0.118 OA
ATOM      5  O   LIG    1       -3.009   0.831  -0.750  0.00  0.00    -0.118 OA
BRANCH   3   6
ATOM      6  O   LIG    1       -2.149   3.214  -0.549  0.00  0.00    -0.231 OA
ATOM      7  H   LIG    1       -1.448   3.821  -0.854  0.00  0.00    +0.247 HD
ENDBRANCH   3   6
ENDBRANCH   2   3
ENDBRANCH   1   2
BRANCH   1   8
ATOM      8  C   LIG    1        1.439   0.070   0.017  0.00  0.00    +0.034 C 
BRANCH   8   9
ATOM      9  C   LIG    1        1.976   0.851  -1.203  0.00  0.00    +0.006 C 
BRANCH   9  10
ATOM     10  C   LIG    1        3.523   0.876  -1.332  0.00  0.00    -0.011 C 
BRANCH  10  11
ATOM     11  C   LIG    1        4.240   1.468  -0.088  0.00  0.00    -0.000 C 
ATOM     12  C   LIG    1        3.873   2.921   0.259  0.00  0.00    +0.004 C 
ENDBRANCH  10  11
BRANCH  10  13
ATOM     13  C   LIG    1        3.995   1.569  -2.638  0.00  0.00    +0.003 C 
BRANCH  13  14
ATOM     14  C   LIG    1        3.623   0.826  -3.938  0.00  0.00    +0.000 C 
BRANCH  14  15
ATOM     15  C   LIG    1        4.228   1.479  -5.194  0.00  0.00    -0.003 C 
ATOM     16  C   LIG    1        3.854   0.745  -6.488  0.00  0.00    +0.004 C 
ENDBRANCH  14  15
ENDBRANCH  13  14
ENDBRANCH  10  13
ENDBRANCH   9  10
ENDBRANCH   8   9
ENDBRANCH   1   8
BRANCH   1  17
ATOM     17  C   LIG    1       -0.654  -0.820   1.262  0.00  0.00    +0.037 C 
BRANCH  17  18
ATOM     18  C   LIG    1       -0.218  -2.301   1.400  0.00  0.00    -0.015 C 
ATOM     19  C   LIG    1       -0.778  -2.918   2.694  0.00  0.00    +0.007 C 
ATOM     20  C   LIG    1       -0.602  -3.159   0.178  0.00  0.00    +0.007 C 
ENDBRANCH  17  18
ENDBRANCH   1  17
TORSDOF 12
