REMARK  Name = DB11793
REMARK                            x       y       z     vdW  Elec       q    Type
REMARK                         _______ _______ _______ _____ _____    ______ ____
ROOT
ATOM      1  C   LIG    1       -4.556  -0.538  -0.116  0.00  0.00    +0.001 A 
ATOM      2  C   LIG    1       -4.438   0.830   0.109  0.00  0.00    +0.015 A 
ATOM      3  C   LIG    1       -3.193   1.475   0.215  0.00  0.00    +0.064 A 
ATOM      4  C   LIG    1       -2.046   0.651   0.083  0.00  0.00    +0.105 A 
ATOM      5  N   LIG    1       -0.730   1.028   0.144  0.00  0.00    -0.166 NA
ATOM      6  N   LIG    1       -0.028  -0.111  -0.045  0.00  0.00    -0.239 N 
ATOM      7  C   LIG    1       -0.832  -1.217  -0.225  0.00  0.00    +0.123 A 
ATOM      8  C   LIG    1       -2.170  -0.755  -0.150  0.00  0.00    +0.021 A 
ATOM      9  C   LIG    1       -3.434  -1.347  -0.249  0.00  0.00    +0.011 A 
ENDROOT
BRANCH   6  10
ATOM     10  C   LIG    1        1.390  -0.079  -0.043  0.00  0.00    +0.065 A 
ATOM     11  C   LIG    1        2.082   0.878   0.712  0.00  0.00    +0.028 A 
ATOM     12  C   LIG    1        3.473   0.905   0.704  0.00  0.00    +0.006 A 
ATOM     13  C   LIG    1        4.193  -0.021  -0.057  0.00  0.00    -0.043 A 
ATOM     14  C   LIG    1        3.503  -0.978  -0.810  0.00  0.00    +0.006 A 
ATOM     15  C   LIG    1        2.111  -1.009  -0.802  0.00  0.00    +0.028 A 
BRANCH  13  16
ATOM     16  C   LIG    1        5.724   0.020  -0.072  0.00  0.00    +0.033 C 
ATOM     17  C   LIG    1        6.351  -1.301   0.453  0.00  0.00    +0.089 C 
ATOM     18  N   LIG    1        7.809  -1.347   0.320  0.00  0.00    -0.315 NA
ATOM     19  H   LIG    1        8.156  -2.252   0.607  0.00  0.00    +0.122 HD
ATOM     20  C   LIG    1        8.310  -1.009  -1.011  0.00  0.00    +0.081 C 
ATOM     21  C   LIG    1        7.797   0.366  -1.477  0.00  0.00    +0.016 C 
ATOM     22  C   LIG    1        6.265   0.439  -1.456  0.00  0.00    +0.010 C 
ENDBRANCH  13  16
ENDBRANCH   6  10
BRANCH   3  23
ATOM     23  C   LIG    1       -3.140   2.967   0.473  0.00  0.00    +0.244 C 
ATOM     24  N   LIG    1       -4.175   3.700   0.048  0.00  0.00    -0.325 N 
ATOM     25  H   LIG    1       -4.951   3.261  -0.423  0.00  0.00    +0.145 HD
ATOM     26  H   LIG    1       -4.176   4.700   0.187  0.00  0.00    +0.145 HD
ATOM     27  O   LIG    1       -2.173   3.488   1.026  0.00  0.00    -0.270 OA
ENDBRANCH   3  23
TORSDOF 3
