REMARK  Name = DB11064
REMARK                            x       y       z     vdW  Elec       q    Type
REMARK                         _______ _______ _______ _____ _____    ______ ____
ROOT
ATOM      1  C   LIG    1       -0.424   1.342  -0.199  0.00  0.00    +0.343 C 
ATOM      2  O   LIG    1        0.209   2.196  -0.825  0.00  0.00    -0.245 OA
ENDROOT
BRANCH   1   3
ATOM      3  C   LIG    1       -1.923   1.372  -0.004  0.00  0.00    +0.100 A 
ATOM      4  C   LIG    1       -2.561   0.345   0.720  0.00  0.00    +0.018 A 
ATOM      5  C   LIG    1       -3.941   0.345   0.915  0.00  0.00    +0.001 A 
ATOM      6  C   LIG    1       -4.718   1.372   0.391  0.00  0.00    +0.004 A 
ATOM      7  C   LIG    1       -4.114   2.399  -0.328  0.00  0.00    +0.046 A 
ATOM      8  C   LIG    1       -2.731   2.408  -0.530  0.00  0.00    +0.131 A 
BRANCH   8   9
ATOM      9  O   LIG    1       -2.220   3.458  -1.253  0.00  0.00    -0.506 OA
ATOM     10  H   LIG    1       -2.896   4.076  -1.543  0.00  0.00    +0.292 HD
ENDBRANCH   8   9
ENDBRANCH   1   3
BRANCH   1  11
ATOM     11  O   LIG    1        0.171   0.267   0.388  0.00  0.00    -0.458 OA
BRANCH  11  12
ATOM     12  C   LIG    1        1.574   0.024   0.296  0.00  0.00    +0.178 C 
ATOM     13  C   LIG    1        2.006  -0.924   1.439  0.00  0.00    +0.048 C 
ATOM     14  C   LIG    1        1.479  -2.367   1.242  0.00  0.00    -0.010 C 
ATOM     15  C   LIG    1        2.024  -2.889  -0.111  0.00  0.00    +0.010 C 
ATOM     16  C   LIG    1        1.549  -2.045  -1.332  0.00  0.00    -0.031 C 
ATOM     17  C   LIG    1        2.325  -2.561  -2.567  0.00  0.00    +0.011 C 
ATOM     18  C   LIG    1        0.019  -2.151  -1.551  0.00  0.00    +0.011 C 
ATOM     19  C   LIG    1        1.913  -3.280   2.403  0.00  0.00    +0.007 C 
ATOM     20  C   LIG    1        2.004  -0.571  -1.079  0.00  0.00    +0.051 C 
ENDBRANCH  11  12
ENDBRANCH   1  11
TORSDOF 4
