REMARK  Name = DB11942
REMARK                            x       y       z     vdW  Elec       q    Type
REMARK                         _______ _______ _______ _____ _____    ______ ____
ROOT
ATOM      1  N   LIG    1        1.369   0.195  -0.377  0.00  0.00    -0.227 N 
ATOM      2  N   LIG    1        2.354   1.077  -0.181  0.00  0.00    -0.145 NA
ATOM      3  C   LIG    1        3.211   0.405   0.568  0.00  0.00    +0.182 A 
ATOM      4  N   LIG    1        2.874  -0.854   0.829  0.00  0.00    -0.214 NA
ATOM      5  C   LIG    1        1.723  -0.981   0.221  0.00  0.00    +0.225 A 
ENDROOT
BRANCH   3   6
ATOM      6  C   LIG    1        4.477   1.030   1.091  0.00  0.00    +0.022 A 
ATOM      7  C   LIG    1        5.363   0.296   1.891  0.00  0.00    +0.024 A 
ATOM      8  C   LIG    1        6.537   0.870   2.392  0.00  0.00    +0.056 A 
ATOM      9  C   LIG    1        6.828   2.203   2.082  0.00  0.00    +0.024 A 
ATOM     10  C   LIG    1        5.963   2.959   1.285  0.00  0.00    +0.056 A 
ATOM     11  C   LIG    1        4.793   2.364   0.797  0.00  0.00    +0.024 A 
BRANCH   8  12
ATOM     12  C   LIG    1        7.470   0.034   3.265  0.00  0.00    +0.417 C 
ATOM     13  F   LIG    1        6.809  -0.403   4.338  0.00  0.00    -0.166 F 
ATOM     14  F   LIG    1        8.532   0.724   3.685  0.00  0.00    -0.166 F 
ATOM     15  F   LIG    1        7.907  -1.019   2.573  0.00  0.00    -0.166 F 
ENDBRANCH   8  12
BRANCH  10  16
ATOM     16  C   LIG    1        6.300   4.413   0.962  0.00  0.00    +0.417 C 
ATOM     17  F   LIG    1        6.008   5.172   2.018  0.00  0.00    -0.166 F 
ATOM     18  F   LIG    1        5.611   4.869  -0.086  0.00  0.00    -0.166 F 
ATOM     19  F   LIG    1        7.599   4.546   0.688  0.00  0.00    -0.166 F 
ENDBRANCH  10  16
ENDBRANCH   3   6
BRANCH   1  21
ATOM     20  C   LIG    1       -0.462   1.613  -1.342  0.00  0.00    +0.088 C 
ATOM     21  C   LIG    1        0.221   0.457  -1.154  0.00  0.00    +0.119 C 
BRANCH  20  24
ATOM     22  N   LIG    1       -0.671   3.929  -1.445  0.00  0.00    -0.232 N 
ATOM     23  H   LIG    1       -1.177   3.821  -2.312  0.00  0.00    +0.173 HD
ATOM     24  C   LIG    1       -0.208   2.894  -0.714  0.00  0.00    +0.254 C 
ATOM     25  O   LIG    1        0.333   3.017   0.388  0.00  0.00    -0.269 OA
BRANCH  22  26
ATOM     26  N   LIG    1       -0.660   5.252  -0.953  0.00  0.00    -0.247 N 
ATOM     27  H   LIG    1        0.254   5.665  -1.075  0.00  0.00    +0.172 HD
BRANCH  26  31
ATOM     28  C   LIG    1       -2.944   6.536   2.228  0.00  0.00    +0.130 A 
ATOM     29  N   LIG    1       -1.793   7.205   1.957  0.00  0.00    -0.258 NA
ATOM     30  C   LIG    1       -1.052   6.767   0.904  0.00  0.00    +0.155 A 
ATOM     31  C   LIG    1       -1.449   5.672   0.130  0.00  0.00    +0.153 A 
ATOM     32  N   LIG    1       -2.611   5.011   0.402  0.00  0.00    -0.236 NA
ATOM     33  C   LIG    1       -3.352   5.447   1.455  0.00  0.00    +0.132 A 
ENDBRANCH  26  31
ENDBRANCH  22  26
ENDBRANCH  20  24
ENDBRANCH   1  21
TORSDOF 7
