REMARK  Name = DB11742
REMARK                            x       y       z     vdW  Elec       q    Type
REMARK                         _______ _______ _______ _____ _____    ______ ____
ROOT
ATOM      1  C   LIG    1       -2.616   0.553   1.114  0.00  0.00    +0.122 C 
ATOM      2  C   LIG    1       -2.128  -0.588   0.208  0.00  0.00    +0.047 C 
ATOM      3  C   LIG    1       -0.596  -0.744   0.285  0.00  0.00    +0.087 C 
ATOM      4  N   LIG    1        0.095   0.508  -0.065  0.00  0.00    -0.302 NA
ATOM      5  C   LIG    1       -0.342   1.642   0.763  0.00  0.00    +0.087 C 
ATOM      6  C   LIG    1       -1.872   1.843   0.712  0.00  0.00    +0.047 C 
ENDROOT
BRANCH   1   7
ATOM      7  O   LIG    1       -4.038   0.635   0.998  0.00  0.00    -0.364 OA
BRANCH   7   8
ATOM      8  C   LIG    1       -4.777   1.233   2.071  0.00  0.00    +0.179 C 
BRANCH   8   9
ATOM      9  C   LIG    1       -4.669   2.757   2.032  0.00  0.00    -0.014 A 
ATOM     10  C   LIG    1       -4.237   3.456   3.164  0.00  0.00    +0.006 A 
ATOM     11  C   LIG    1       -4.119   4.843   3.123  0.00  0.00    +0.000 A 
ATOM     12  C   LIG    1       -4.431   5.528   1.951  0.00  0.00    +0.000 A 
ATOM     13  C   LIG    1       -4.861   4.839   0.818  0.00  0.00    +0.000 A 
ATOM     14  C   LIG    1       -4.978   3.453   0.858  0.00  0.00    +0.006 A 
ENDBRANCH   8   9
BRANCH   8  15
ATOM     15  C   LIG    1       -6.234   0.762   2.036  0.00  0.00    -0.014 A 
ATOM     16  C   LIG    1       -6.770   0.118   0.912  0.00  0.00    +0.006 A 
ATOM     17  C   LIG    1       -8.095  -0.311   0.917  0.00  0.00    +0.000 A 
ATOM     18  C   LIG    1       -8.885  -0.102   2.045  0.00  0.00    +0.000 A 
ATOM     19  C   LIG    1       -8.361   0.532   3.169  0.00  0.00    +0.000 A 
ATOM     20  C   LIG    1       -7.037   0.961   3.165  0.00  0.00    +0.006 A 
ENDBRANCH   8  15
ENDBRANCH   7   8
ENDBRANCH   1   7
BRANCH   4  21
ATOM     21  C   LIG    1        1.557   0.377  -0.038  0.00  0.00    +0.085 C 
BRANCH  21  22
ATOM     22  C   LIG    1        2.110  -0.526  -1.162  0.00  0.00    +0.023 C 
BRANCH  22  23
ATOM     23  C   LIG    1        1.778  -0.020  -2.581  0.00  0.00    +0.081 C 
BRANCH  23  24
ATOM     24  C   LIG    1        2.245  -0.983  -3.682  0.00  0.00    +0.163 C 
ATOM     25  O   LIG    1        3.384  -0.839  -4.131  0.00  0.00    -0.292 OA
BRANCH  24  26
ATOM     26  C   LIG    1        1.275  -2.000  -4.208  0.00  0.00    +0.017 A 
ATOM     27  C   LIG    1        0.060  -2.266  -3.563  0.00  0.00    +0.011 A 
ATOM     28  C   LIG    1       -0.815  -3.221  -4.071  0.00  0.00    +0.005 A 
ATOM     29  C   LIG    1       -0.505  -3.938  -5.235  0.00  0.00    -0.042 A 
ATOM     30  C   LIG    1        0.716  -3.674  -5.872  0.00  0.00    +0.005 A 
ATOM     31  C   LIG    1        1.595  -2.720  -5.364  0.00  0.00    +0.011 A 
BRANCH  29  32
ATOM     32  C   LIG    1       -1.510  -4.990  -5.770  0.00  0.00    -0.013 C 
ATOM     33  C   LIG    1       -2.871  -4.312  -6.068  0.00  0.00    +0.015 C 
ATOM     34  C   LIG    1       -1.041  -5.677  -7.081  0.00  0.00    +0.015 C 
ATOM     35  C   LIG    1       -1.714  -6.101  -4.710  0.00  0.00    +0.015 C 
ENDBRANCH  29  32
ENDBRANCH  24  26
ENDBRANCH  23  24
ENDBRANCH  22  23
ENDBRANCH  21  22
ENDBRANCH   4  21
TORSDOF 10
