REMARK  Name = DB11864
REMARK                            x       y       z     vdW  Elec       q    Type
REMARK                         _______ _______ _______ _____ _____    ______ ____
ROOT
ATOM      1  N   LIG    1        7.559  -2.922  -0.364  0.00  0.00    -0.245 N 
ATOM      2  N   LIG    1        8.309  -1.919  -0.894  0.00  0.00    -0.177 NA
ATOM      3  C   LIG    1        9.567  -2.161  -0.605  0.00  0.00    +0.148 A 
ATOM      4  C   LIG    1        9.660  -3.368   0.139  0.00  0.00    +0.083 A 
ATOM      5  C   LIG    1       10.690  -4.137   0.715  0.00  0.00    +0.172 A 
ATOM      6  N   LIG    1       10.347  -5.297   1.380  0.00  0.00    -0.181 N 
ATOM      7  C   LIG    1        9.031  -5.702   1.486  0.00  0.00    +0.218 A 
ATOM      8  N   LIG    1        8.003  -4.980   0.940  0.00  0.00    -0.195 NA
ATOM      9  N   LIG    1       11.481  -5.868   1.841  0.00  0.00    -0.139 NA
ATOM     10  C   LIG    1       12.420  -5.023   1.428  0.00  0.00    +0.218 A 
ATOM     11  N   LIG    1       12.028  -3.953   0.744  0.00  0.00    -0.203 NA
ATOM     12  C   LIG    1        8.349  -3.852   0.292  0.00  0.00    +0.165 A 
ENDROOT
BRANCH  10  13
ATOM     13  C   LIG    1       13.827  -5.273   1.717  0.00  0.00    +0.173 A 
ATOM     14  O   LIG    1       14.735  -4.353   1.286  0.00  0.00    -0.460 OA
ATOM     15  C   LIG    1       15.965  -4.785   1.661  0.00  0.00    +0.196 A 
ATOM     16  C   LIG    1       15.861  -5.988   2.337  0.00  0.00    +0.042 A 
ATOM     17  C   LIG    1       14.502  -6.297   2.374  0.00  0.00    +0.053 A 
ENDBRANCH  10  13
BRANCH   7  18
ATOM     18  N   LIG    1        8.697  -6.876   2.159  0.00  0.00    -0.327 N 
ATOM     19  H   LIG    1        9.427  -7.437   2.572  0.00  0.00    +0.145 HD
ATOM     20  H   LIG    1        7.727  -7.150   2.219  0.00  0.00    +0.145 HD
ENDBRANCH   7  18
BRANCH   1  21
ATOM     21  C   LIG    1        6.111  -2.909  -0.539  0.00  0.00    +0.161 C 
BRANCH  21  22
ATOM     22  C   LIG    1        5.478  -1.683   0.159  0.00  0.00    +0.108 C 
BRANCH  22  26
ATOM     23  N   LIG    1        1.253  -0.746  -0.162  0.00  0.00    -0.327 N 
ATOM     24  C   LIG    1        1.879  -1.723  -1.073  0.00  0.00    +0.120 C 
ATOM     25  C   LIG    1        3.419  -1.618  -1.143  0.00  0.00    +0.103 C 
ATOM     26  N   LIG    1        4.013  -1.742   0.191  0.00  0.00    -0.298 NA
ATOM     27  C   LIG    1        3.497  -0.639   1.003  0.00  0.00    +0.103 C 
ATOM     28  C   LIG    1        1.959  -0.721   1.134  0.00  0.00    +0.120 C 
BRANCH  23  32
ATOM     29  C   LIG    1       -2.854   0.183  -0.313  0.00  0.00    +0.121 A 
ATOM     30  C   LIG    1       -1.954   1.026   0.354  0.00  0.00    +0.047 A 
ATOM     31  C   LIG    1       -0.599   0.711   0.397  0.00  0.00    +0.027 A 
ATOM     32  C   LIG    1       -0.108  -0.447  -0.220  0.00  0.00    +0.030 A 
ATOM     33  C   LIG    1       -1.015  -1.280  -0.891  0.00  0.00    +0.027 A 
ATOM     34  C   LIG    1       -2.371  -0.967  -0.934  0.00  0.00    +0.047 A 
BRANCH  29  35
ATOM     35  O   LIG    1       -4.214   0.409  -0.406  0.00  0.00    -0.490 OA
BRANCH  35  36
ATOM     36  C   LIG    1       -4.780   1.551   0.233  0.00  0.00    +0.257 C 
BRANCH  36  37
ATOM     37  C   LIG    1       -6.299   1.530   0.027  0.00  0.00    +0.200 C 
BRANCH  37  39
ATOM     38  C   LIG    1       -8.286   2.715   0.560  0.00  0.00    +0.194 C 
ATOM     39  O   LIG    1       -6.872   2.658   0.674  0.00  0.00    -0.380 OA
ENDBRANCH  37  39
ENDBRANCH  36  37
ENDBRANCH  35  36
ENDBRANCH  29  35
ENDBRANCH  23  32
ENDBRANCH  22  26
ENDBRANCH  21  22
ENDBRANCH   1  21
TORSDOF 10
