REMARK  Name = DB11830
REMARK                            x       y       z     vdW  Elec       q    Type
REMARK                         _______ _______ _______ _____ _____    ______ ____
ROOT
ATOM      1  C   LIG    1       -2.884   0.004  -0.125  0.00  0.00    +0.037 A 
ATOM      2  C   LIG    1       -2.110  -1.163  -0.229  0.00  0.00    +0.013 A 
ATOM      3  C   LIG    1       -0.722  -1.099  -0.166  0.00  0.00    +0.006 A 
ATOM      4  C   LIG    1       -0.084   0.128   0.016  0.00  0.00    -0.030 A 
ATOM      5  C   LIG    1       -0.842   1.298   0.104  0.00  0.00    +0.006 A 
ATOM      6  C   LIG    1       -2.231   1.235   0.037  0.00  0.00    +0.013 A 
ENDROOT
BRANCH   1   9
ATOM      7  N   LIG    1       -4.940  -1.180  -0.662  0.00  0.00    -0.280 N 
ATOM      8  H   LIG    1       -4.303  -1.929  -0.892  0.00  0.00    +0.155 HD
ATOM      9  C   LIG    1       -4.398  -0.043  -0.168  0.00  0.00    +0.248 C 
ATOM     10  O   LIG    1       -5.063   0.917   0.231  0.00  0.00    -0.270 OA
BRANCH   7  14
ATOM     11  C   LIG    1       -9.010  -2.182  -1.093  0.00  0.00    +0.002 A 
ATOM     12  C   LIG    1       -8.085  -3.148  -0.699  0.00  0.00    +0.024 A 
ATOM     13  C   LIG    1       -6.736  -2.816  -0.548  0.00  0.00    +0.046 A 
ATOM     14  C   LIG    1       -6.308  -1.496  -0.789  0.00  0.00    +0.055 A 
ATOM     15  C   LIG    1       -7.248  -0.536  -1.202  0.00  0.00    +0.025 A 
ATOM     16  C   LIG    1       -8.591  -0.878  -1.347  0.00  0.00    +0.002 A 
BRANCH  13  17
ATOM     17  N   LIG    1       -5.849  -3.824  -0.153  0.00  0.00    -0.357 N 
ATOM     18  H   LIG    1       -5.106  -3.533   0.466  0.00  0.00    +0.142 HD
ATOM     19  H   LIG    1       -6.260  -4.734  -0.002  0.00  0.00    +0.142 HD
ENDBRANCH  13  17
ENDBRANCH   7  14
ENDBRANCH   1   9
BRANCH   4  20
ATOM     20  C   LIG    1        1.438   0.176   0.116  0.00  0.00    +0.139 C 
BRANCH  20  21
ATOM     21  N   LIG    1        1.904   0.794   1.359  0.00  0.00    -0.309 N 
ATOM     22  H   LIG    1        2.567   1.552   1.286  0.00  0.00    +0.149 HD
BRANCH  21  23
ATOM     23  C   LIG    1        1.740   0.188   2.616  0.00  0.00    +0.216 A 
ATOM     24  N   LIG    1        0.955  -0.918   2.740  0.00  0.00    -0.214 NA
ATOM     25  C   LIG    1        0.787  -1.455   3.983  0.00  0.00    +0.077 A 
ATOM     26  C   LIG    1        1.438  -0.893   5.093  0.00  0.00    +0.048 A 
ATOM     27  C   LIG    1        2.234   0.234   4.874  0.00  0.00    +0.116 A 
ATOM     28  N   LIG    1        2.390   0.789   3.645  0.00  0.00    -0.223 NA
BRANCH  25  29
ATOM     29  C   LIG    1       -0.113  -2.650   4.082  0.00  0.00    +0.019 A 
ATOM     30  C   LIG    1       -0.634  -3.084   5.313  0.00  0.00    +0.120 A 
ATOM     31  N   LIG    1       -1.462  -4.150   5.455  0.00  0.00    -0.263 NA
ATOM     32  C   LIG    1       -1.809  -4.835   4.339  0.00  0.00    +0.111 A 
ATOM     33  C   LIG    1       -1.352  -4.489   3.070  0.00  0.00    +0.020 A 
ATOM     34  C   LIG    1       -0.500  -3.391   2.948  0.00  0.00    +0.013 A 
ENDBRANCH  25  29
ENDBRANCH  21  23
ENDBRANCH  20  21
ENDBRANCH   4  20
TORSDOF 7
