REMARK  Name = DB11990
REMARK                            x       y       z     vdW  Elec       q    Type
REMARK                         _______ _______ _______ _____ _____    ______ ____
ROOT
ATOM      1  C   LIG    1       -0.981  -2.335  -1.245  0.00  0.00    -0.043 C 
ATOM      2  C   LIG    1       -0.726  -0.814  -1.500  0.00  0.00    -0.011 C 
ATOM      3  C   LIG    1       -0.325  -0.158  -0.170  0.00  0.00    -0.071 C 
ATOM      4  C   LIG    1       -1.127  -0.971   0.844  0.00  0.00    -0.015 C 
ATOM      5  C   LIG    1       -1.085  -2.406   0.313  0.00  0.00    +0.004 C 
ENDROOT
BRANCH   1   7
ATOM      6  C   LIG    1       -2.239  -2.724  -3.501  0.00  0.00    +0.008 C 
ATOM      7  C   LIG    1       -2.303  -2.821  -1.959  0.00  0.00    -0.013 C 
ATOM      8  C   LIG    1       -3.616  -2.169  -1.455  0.00  0.00    +0.008 C 
ENDBRANCH   1   7
BRANCH   3   9
ATOM      9  N   LIG    1        1.190  -0.139   0.118  0.00  0.00    +0.385 N 
ATOM     10  H   LIG    1        1.554  -1.079   0.051  0.00  0.00    -0.085 HD
ATOM     11  H   LIG    1        1.333   0.123   1.083  0.00  0.00    -0.085 HD
BRANCH   9  12
ATOM     12  C   LIG    1        2.070   0.787  -0.750  0.00  0.00    -0.038 C 
ATOM     13  C   LIG    1        3.555   0.431  -0.459  0.00  0.00    +0.130 C 
ATOM     14  C   LIG    1        4.450   1.446  -1.212  0.00  0.00    +0.189 C 
ATOM     15  O   LIG    1        4.196   2.752  -0.699  0.00  0.00    -0.377 OA
ATOM     16  C   LIG    1        2.873   3.215  -0.972  0.00  0.00    +0.158 C 
ATOM     17  C   LIG    1        1.819   2.268  -0.357  0.00  0.00    +0.015 C 
BRANCH  13  18
ATOM     18  O   LIG    1        3.797   0.437   0.953  0.00  0.00    -0.379 OA
ATOM     19  C   LIG    1        5.046  -0.098   1.372  0.00  0.00    +0.194 C 
ENDBRANCH  13  18
ENDBRANCH   9  12
ENDBRANCH   3   9
BRANCH   1  20
ATOM     20  C   LIG    1        0.300  -3.106  -1.731  0.00  0.00    -0.071 C 
BRANCH  20  21
ATOM     21  N   LIG    1        0.131  -4.646  -1.889  0.00  0.00    +0.383 N 
ATOM     22  H   LIG    1       -0.715  -4.793  -2.422  0.00  0.00    -0.081 HD
ATOM     23  C   LIG    1       -0.026  -5.430  -0.565  0.00  0.00    -0.041 C 
ATOM     24  C   LIG    1        1.313  -5.588   0.160  0.00  0.00    -0.042 A 
ATOM     25  C   LIG    1        1.342  -5.889   1.527  0.00  0.00    +0.017 A 
ATOM     26  C   LIG    1        2.550  -6.116   2.192  0.00  0.00    +0.073 A 
ATOM     27  C   LIG    1        3.723  -6.042   1.439  0.00  0.00    +0.123 A 
ATOM     28  N   LIG    1        3.731  -5.739   0.118  0.00  0.00    -0.259 NA
ATOM     29  C   LIG    1        2.553  -5.484  -0.510  0.00  0.00    +0.041 A 
ATOM     30  C   LIG    1        2.625  -5.109  -1.988  0.00  0.00    +0.037 C 
ATOM     31  C   LIG    1        1.278  -5.262  -2.727  0.00  0.00    -0.072 C 
BRANCH  26  32
ATOM     32  C   LIG    1        2.563  -6.447   3.681  0.00  0.00    +0.419 C 
ATOM     33  F   LIG    1        1.823  -7.533   3.906  0.00  0.00    -0.166 F 
ATOM     34  F   LIG    1        2.046  -5.427   4.366  0.00  0.00    -0.166 F 
ATOM     35  F   LIG    1        3.795  -6.678   4.139  0.00  0.00    -0.166 F 
ENDBRANCH  26  32
ENDBRANCH  20  21
ENDBRANCH   1  20
TORSDOF 7
