REMARK  Name = DB11526
REMARK                            x       y       z     vdW  Elec       q    Type
REMARK                         _______ _______ _______ _____ _____    ______ ____
ROOT
ATOM      1  C   LIG    1        1.688   0.197   0.021  0.00  0.00    +0.035 A 
ATOM      2  C   LIG    1        2.316  -0.827   0.735  0.00  0.00    +0.046 A 
ATOM      3  C   LIG    1        3.716  -0.909   0.822  0.00  0.00    +0.037 A 
ATOM      4  C   LIG    1        4.491   0.060   0.155  0.00  0.00    -0.029 A 
ATOM      5  C   LIG    1        6.016   0.037   0.200  0.00  0.00    +0.045 C 
ATOM      6  C   LIG    1        3.864   1.077  -0.571  0.00  0.00    +0.007 A 
ATOM      7  C   LIG    1        2.476   1.148  -0.643  0.00  0.00    +0.024 A 
ENDROOT
BRANCH   1   9
ATOM      8  C   LIG    1       -0.593   1.139  -0.359  0.00  0.00    +0.248 C 
ATOM      9  N   LIG    1        0.281   0.170   0.001  0.00  0.00    -0.281 N 
ATOM     10  H   LIG    1       -0.123  -0.695   0.329  0.00  0.00    +0.155 HD
ATOM     11  O   LIG    1       -0.268   2.281  -0.691  0.00  0.00    -0.270 OA
BRANCH   8  12
ATOM     12  C   LIG    1       -2.057   0.759  -0.296  0.00  0.00    +0.037 A 
ATOM     13  C   LIG    1       -2.471  -0.582  -0.351  0.00  0.00    +0.013 A 
ATOM     14  C   LIG    1       -3.823  -0.908  -0.307  0.00  0.00    +0.002 A 
ATOM     15  C   LIG    1       -4.782   0.102  -0.216  0.00  0.00    -0.064 A 
ATOM     16  C   LIG    1       -4.384   1.437  -0.149  0.00  0.00    +0.002 A 
ATOM     17  C   LIG    1       -3.031   1.763  -0.195  0.00  0.00    +0.013 A 
BRANCH  15  18
ATOM     18  C   LIG    1       -6.260  -0.259  -0.162  0.00  0.00    -0.043 C 
BRANCH  18  19
ATOM     19  N   LIG    1       -6.893  -0.533  -1.546  0.00  0.00    +0.384 N 
ATOM     20  H   LIG    1       -6.335  -1.223  -2.030  0.00  0.00    -0.081 HD
ATOM     21  C   LIG    1       -6.940   0.744  -2.421  0.00  0.00    -0.063 C 
ATOM     22  C   LIG    1       -7.595   0.395  -3.780  0.00  0.00    +0.065 C 
ATOM     23  N   LIG    1       -8.944  -0.165  -3.635  0.00  0.00    -0.309 NA
ATOM     24  C   LIG    1       -9.947   0.815  -3.224  0.00  0.00    +0.104 C 
ATOM     25  C   LIG    1       -8.914  -1.369  -2.795  0.00  0.00    +0.065 C 
ATOM     26  C   LIG    1       -8.323  -1.103  -1.388  0.00  0.00    -0.063 C 
ENDBRANCH  18  19
ENDBRANCH  15  18
ENDBRANCH   8  12
ENDBRANCH   1   9
BRANCH   3  27
ATOM     27  N   LIG    1        4.382  -1.928   1.538  0.00  0.00    -0.293 N 
ATOM     28  H   LIG    1        5.382  -1.853   1.423  0.00  0.00    +0.154 HD
BRANCH  27  29
ATOM     29  C   LIG    1        3.913  -2.926   2.363  0.00  0.00    +0.163 A 
ATOM     30  N   LIG    1        2.678  -3.152   2.742  0.00  0.00    -0.225 NA
ATOM     31  C   LIG    1        2.549  -4.186   3.560  0.00  0.00    +0.082 A 
ATOM     32  C   LIG    1        3.762  -4.819   3.850  0.00  0.00    +0.077 A 
ATOM     33  S   LIG    1        5.070  -4.026   3.029  0.00  0.00    -0.060 S 
BRANCH  31  34
ATOM     34  C   LIG    1        1.196  -4.578   4.082  0.00  0.00    +0.019 A 
ATOM     35  C   LIG    1        0.025  -3.901   3.702  0.00  0.00    +0.013 A 
ATOM     36  C   LIG    1       -1.214  -4.298   4.209  0.00  0.00    +0.020 A 
ATOM     37  C   LIG    1       -1.255  -5.374   5.094  0.00  0.00    +0.111 A 
ATOM     38  N   LIG    1       -0.146  -6.049   5.484  0.00  0.00    -0.263 NA
ATOM     39  C   LIG    1        1.049  -5.648   4.979  0.00  0.00    +0.120 A 
ENDBRANCH  31  34
ENDBRANCH  27  29
ENDBRANCH   3  27
TORSDOF 7
