REMARK  Name = DB11324
REMARK                            x       y       z     vdW  Elec       q    Type
REMARK                         _______ _______ _______ _____ _____    ______ ____
ROOT
ATOM      1  N   LIG    1       -1.310   1.986  -2.144  0.00  0.00    -0.311 N 
ATOM      2  H   LIG    1       -0.859   2.034  -3.046  0.00  0.00    +0.149 HD
ATOM      3  C   LIG    1       -0.902   1.045  -1.273  0.00  0.00    +0.213 C 
ATOM      4  O   LIG    1       -1.407   0.889  -0.160  0.00  0.00    -0.276 OA
ENDROOT
BRANCH   1   5
ATOM      5  C   LIG    1       -2.404   2.931  -1.919  0.00  0.00    +0.139 C 
BRANCH   5   7
ATOM      6  C   LIG    1       -4.491   2.196  -0.677  0.00  0.00    +0.054 A 
ATOM      7  C   LIG    1       -3.787   2.290  -1.882  0.00  0.00    -0.027 A 
ATOM      8  C   LIG    1       -4.379   1.833  -3.061  0.00  0.00    +0.009 A 
ATOM      9  C   LIG    1       -5.652   1.269  -3.033  0.00  0.00    +0.049 A 
ATOM     10  C   LIG    1       -6.347   1.165  -1.828  0.00  0.00    +0.158 A 
ATOM     11  C   LIG    1       -5.777   1.627  -0.633  0.00  0.00    +0.162 A 
BRANCH  10  12
ATOM     12  O   LIG    1       -7.599   0.604  -1.833  0.00  0.00    -0.503 OA
ATOM     13  H   LIG    1       -7.881   0.326  -2.707  0.00  0.00    +0.292 HD
ENDBRANCH  10  12
BRANCH  11  14
ATOM     14  O   LIG    1       -6.522   1.497   0.526  0.00  0.00    -0.491 OA
ATOM     15  C   LIG    1       -5.978   1.949   1.762  0.00  0.00    +0.277 C 
ENDBRANCH  11  14
ENDBRANCH   5   7
ENDBRANCH   1   5
BRANCH   3  16
ATOM     16  C   LIG    1        0.246   0.139  -1.748  0.00  0.00    +0.096 C 
BRANCH  16  17
ATOM     17  C   LIG    1        1.141  -0.393  -0.608  0.00  0.00    +0.009 C 
BRANCH  17  18
ATOM     18  C   LIG    1        2.297  -1.269  -1.122  0.00  0.00    +0.000 C 
BRANCH  18  19
ATOM     19  C   LIG    1        3.213  -1.777   0.006  0.00  0.00    +0.000 C 
BRANCH  19  20
ATOM     20  C   LIG    1        4.362  -2.663  -0.507  0.00  0.00    -0.000 C 
BRANCH  20  21
ATOM     21  C   LIG    1        5.291  -3.152   0.619  0.00  0.00    -0.000 C 
BRANCH  21  22
ATOM     22  C   LIG    1        6.443  -4.034   0.107  0.00  0.00    -0.003 C 
ATOM     23  C   LIG    1        7.363  -4.528   1.232  0.00  0.00    +0.004 C 
ENDBRANCH  21  22
ENDBRANCH  20  21
ENDBRANCH  19  20
ENDBRANCH  18  19
ENDBRANCH  17  18
ENDBRANCH  16  17
ENDBRANCH   3  16
TORSDOF 11
