REMARK  Name = DB11207
REMARK                            x       y       z     vdW  Elec       q    Type
REMARK                         _______ _______ _______ _____ _____    ______ ____
ROOT
ATOM      1  C   LIG    1        3.267  -1.388   0.029  0.00  0.00    +0.092 C 
ATOM      2  C   LIG    1        4.097  -2.453   0.050  0.00  0.00    +0.015 C 
ENDROOT
BRANCH   2   3
ATOM      3  C   LIG    1        5.577  -2.419   0.041  0.00  0.00    -0.025 A 
ATOM      4  C   LIG    1        6.303  -1.222   0.038  0.00  0.00    +0.011 A 
ATOM      5  C   LIG    1        7.696  -1.241   0.025  0.00  0.00    +0.046 A 
ATOM      6  C   LIG    1        8.388  -2.461   0.015  0.00  0.00    +0.120 A 
ATOM      7  C   LIG    1        7.662  -3.652   0.018  0.00  0.00    +0.046 A 
ATOM      8  C   LIG    1        6.270  -3.633   0.030  0.00  0.00    +0.011 A 
BRANCH   6   9
ATOM      9  O   LIG    1        9.765  -2.577   0.002  0.00  0.00    -0.495 OA
ATOM     10  C   LIG    1       10.560  -1.396  -0.006  0.00  0.00    +0.277 C 
ENDBRANCH   6   9
ENDBRANCH   2   3
BRANCH   1  11
ATOM     11  C   LIG    1        1.814  -1.520   0.038  0.00  0.00    +0.332 C 
ATOM     12  O   LIG    1        1.224  -2.603   0.085  0.00  0.00    -0.246 OA
BRANCH  11  13
ATOM     13  O   LIG    1        1.203  -0.316  -0.014  0.00  0.00    -0.462 OA
BRANCH  13  14
ATOM     14  C   LIG    1       -0.216  -0.217  -0.027  0.00  0.00    +0.232 C 
BRANCH  14  15
ATOM     15  C   LIG    1       -0.623   1.265  -0.107  0.00  0.00    +0.044 C 
BRANCH  15  17
ATOM     16  C   LIG    1       -2.876   0.897  -1.289  0.00  0.00    +0.007 C 
ATOM     17  C   LIG    1       -2.150   1.505  -0.072  0.00  0.00    -0.014 C 
ATOM     18  C   LIG    1       -2.472   3.004   0.061  0.00  0.00    +0.007 C 
ENDBRANCH  15  17
ENDBRANCH  14  15
ENDBRANCH  13  14
ENDBRANCH  11  13
ENDBRANCH   1  11
TORSDOF 7
