REMARK  Name = DB11575
REMARK                            x       y       z     vdW  Elec       q    Type
REMARK                         _______ _______ _______ _____ _____    ______ ____
ROOT
ATOM      1  C   LIG    1        3.491  -0.055  -0.607  0.00  0.00    +0.166 C 
ATOM      2  C   LIG    1        4.289   1.168  -1.096  0.00  0.00    +0.078 C 
ATOM      3  C   LIG    1        5.654   0.618  -1.503  0.00  0.00    +0.195 C 
ATOM      4  C   LIG    1        5.367  -0.817  -1.948  0.00  0.00    +0.153 C 
ATOM      5  O   LIG    1        6.554   0.520  -0.392  0.00  0.00    -0.470 OA
ATOM      6  C   LIG    1        7.047   1.659   0.223  0.00  0.00    +0.238 A 
ATOM      7  N   LIG    1        6.906   2.864  -0.401  0.00  0.00    -0.210 NA
ATOM      8  C   LIG    1        7.392   3.969   0.231  0.00  0.00    +0.096 A 
ATOM      9  C   LIG    1        7.266   5.239  -0.379  0.00  0.00    +0.075 A 
ATOM     10  C   LIG    1        7.761   6.387   0.261  0.00  0.00    +0.122 A 
ATOM     11  C   LIG    1        8.377   6.263   1.506  0.00  0.00    +0.048 A 
ATOM     12  C   LIG    1        8.518   5.027   2.132  0.00  0.00    +0.033 A 
ATOM     13  C   LIG    1        8.028   3.860   1.504  0.00  0.00    +0.090 A 
ATOM     14  N   LIG    1        8.168   2.650   2.114  0.00  0.00    -0.245 NA
ATOM     15  C   LIG    1        7.677   1.559   1.469  0.00  0.00    +0.103 A 
ATOM     16  C   LIG    1        7.851   0.227   2.188  0.00  0.00    +0.061 C 
ATOM     17  C   LIG    1        9.316  -0.255   2.223  0.00  0.00    +0.006 C 
ATOM     18  C   LIG    1        9.475  -1.735   2.622  0.00  0.00    +0.000 C 
ATOM     19  C   LIG    1        9.005  -2.078   4.050  0.00  0.00    +0.000 C 
ATOM     20  C   LIG    1        8.948  -3.592   4.331  0.00  0.00    +0.007 C 
ATOM     21  C   LIG    1        7.800  -4.310   3.592  0.00  0.00    +0.033 C 
ATOM     22  C   LIG    1        7.946  -5.814   3.503  0.00  0.00    +0.052 C 
ATOM     23  C   LIG    1        7.985  -4.967   2.246  0.00  0.00    +0.182 C 
ATOM     24  O   LIG    1        6.849  -5.103   1.399  0.00  0.00    -0.447 OA
ATOM     25  C   LIG    1        6.587  -4.200   0.431  0.00  0.00    +0.401 C 
ATOM     26  O   LIG    1        7.311  -3.245   0.139  0.00  0.00    -0.226 OA
ATOM     27  N   LIG    1        5.370  -4.519  -0.162  0.00  0.00    -0.269 N 
ATOM     28  H   LIG    1        4.828  -5.292   0.195  0.00  0.00    +0.153 HD
ATOM     29  C   LIG    1        4.801  -3.696  -1.248  0.00  0.00    +0.168 C 
ATOM     30  C   LIG    1        4.016  -2.490  -0.645  0.00  0.00    +0.237 C 
ATOM     31  O   LIG    1        3.154  -2.740   0.202  0.00  0.00    -0.274 OA
ATOM     32  N   LIG    1        4.234  -1.229  -1.110  0.00  0.00    -0.285 N 
ENDROOT
BRANCH   1  35
ATOM     33  N   LIG    1        1.103   0.244  -0.152  0.00  0.00    -0.299 N 
ATOM     34  H   LIG    1        1.427   0.459   0.779  0.00  0.00    +0.150 HD
ATOM     35  C   LIG    1        2.026  -0.015  -1.095  0.00  0.00    +0.234 C 
ATOM     36  O   LIG    1        1.762  -0.128  -2.294  0.00  0.00    -0.274 OA
BRANCH  33  37
ATOM     37  C   LIG    1       -0.330   0.427  -0.391  0.00  0.00    +0.119 C 
ATOM     38  C   LIG    1       -1.101  -0.676  -1.120  0.00  0.00    +0.046 C 
ATOM     39  C   LIG    1       -1.302  -0.476   0.360  0.00  0.00    +0.046 C 
BRANCH  37  40
ATOM     40  C   LIG    1       -0.795   1.895  -0.466  0.00  0.00    +0.256 C 
ATOM     41  O   LIG    1       -1.232   2.396  -1.501  0.00  0.00    -0.272 OA
ATOM     42  N   LIG    1       -0.664   2.602   0.751  0.00  0.00    -0.188 N 
ATOM     43  H   LIG    1       -0.275   2.125   1.568  0.00  0.00    +0.176 HD
BRANCH  42  44
ATOM     44  S   LIG    1       -1.046   4.303   0.988  0.00  0.00    +0.048 S 
ATOM     45  O   LIG    1       -0.526   5.059  -0.157  0.00  0.00    -0.155 OA
ATOM     46  O   LIG    1       -0.623   4.654   2.348  0.00  0.00    -0.155 OA
BRANCH  44  47
ATOM     47  C   LIG    1       -2.941   4.338   0.944  0.00  0.00    +0.151 C 
ATOM     48  C   LIG    1       -3.596   5.659   0.654  0.00  0.00    +0.030 C 
ATOM     49  C   LIG    1       -3.611   4.544  -0.387  0.00  0.00    +0.030 C 
ENDBRANCH  44  47
ENDBRANCH  42  44
ENDBRANCH  37  40
BRANCH  38  50
ATOM     50  C   LIG    1       -2.290  -0.423  -2.034  0.00  0.00    -0.028 C 
ATOM     51  C   LIG    1       -2.520  -1.090  -3.175  0.00  0.00    +0.004 C 
ENDBRANCH  38  50
ENDBRANCH  33  37
ENDBRANCH   1  35
BRANCH  29  52
ATOM     52  C   LIG    1        3.993  -4.562  -2.290  0.00  0.00    -0.011 C 
ATOM     53  C   LIG    1        4.914  -5.646  -2.909  0.00  0.00    +0.013 C 
ATOM     54  C   LIG    1        2.785  -5.289  -1.640  0.00  0.00    +0.013 C 
ATOM     55  C   LIG    1        3.464  -3.683  -3.455  0.00  0.00    +0.013 C 
ENDBRANCH  29  52
BRANCH  10  56
ATOM     56  O   LIG    1        7.684   7.663  -0.264  0.00  0.00    -0.495 OA
ATOM     57  C   LIG    1        7.077   7.855  -1.537  0.00  0.00    +0.277 C 
ENDBRANCH  10  56
TORSDOF 8
