REMARK  Name = DB11867
REMARK                            x       y       z     vdW  Elec       q    Type
REMARK                         _______ _______ _______ _____ _____    ______ ____
ROOT
ATOM      1  N   LIG    1        2.504  -0.032   0.870  0.00  0.00    -0.243 N 
ATOM      2  N   LIG    1        2.120   0.334   2.094  0.00  0.00    -0.133 NA
ATOM      3  C   LIG    1        2.733  -0.534   2.870  0.00  0.00    +0.239 A 
ATOM      4  N   LIG    1        3.523  -1.394   2.247  0.00  0.00    -0.194 NA
ATOM      5  C   LIG    1        3.389  -1.081   0.978  0.00  0.00    +0.161 A 
ENDROOT
BRANCH   5   6
ATOM      6  C   LIG    1        4.091  -1.785  -0.136  0.00  0.00    +0.022 A 
ATOM      7  C   LIG    1        4.703  -1.073  -1.176  0.00  0.00    +0.031 A 
ATOM      8  C   LIG    1        5.358  -1.782  -2.185  0.00  0.00    +0.111 A 
ATOM      9  N   LIG    1        5.438  -3.136  -2.203  0.00  0.00    -0.263 NA
ATOM     10  C   LIG    1        4.853  -3.816  -1.185  0.00  0.00    +0.111 A 
ATOM     11  C   LIG    1        4.179  -3.183  -0.139  0.00  0.00    +0.031 A 
ENDBRANCH   5   6
BRANCH   3  12
ATOM     12  N   LIG    1        2.610  -0.563   4.242  0.00  0.00    -0.282 N 
ATOM     13  H   LIG    1        3.394  -0.899   4.783  0.00  0.00    +0.155 HD
BRANCH  12  14
ATOM     14  C   LIG    1        1.627   0.043   5.048  0.00  0.00    +0.037 A 
ATOM     15  C   LIG    1        0.346   0.385   4.567  0.00  0.00    +0.073 A 
ATOM     16  C   LIG    1       -0.550   0.972   5.452  0.00  0.00    +0.174 A 
ATOM     17  O   LIG    1       -1.823   1.384   5.220  0.00  0.00    -0.395 OA
ATOM     18  C   LIG    1       -2.302   1.910   6.431  0.00  0.00    +0.589 C 
ATOM     19  F   LIG    1       -3.376   1.227   6.827  0.00  0.00    -0.125 F 
ATOM     20  F   LIG    1       -2.622   3.195   6.271  0.00  0.00    -0.125 F 
ATOM     21  O   LIG    1       -1.279   1.787   7.386  0.00  0.00    -0.395 OA
ATOM     22  C   LIG    1       -0.224   1.211   6.754  0.00  0.00    +0.173 A 
ATOM     23  C   LIG    1        1.022   0.876   7.270  0.00  0.00    +0.051 A 
ATOM     24  C   LIG    1        1.946   0.283   6.399  0.00  0.00    +0.027 A 
ENDBRANCH  12  14
ENDBRANCH   3  12
BRANCH   1  25
ATOM     25  C   LIG    1        1.952   0.636  -0.317  0.00  0.00    +0.155 C 
BRANCH  25  26
ATOM     26  C   LIG    1        0.397   0.614  -0.368  0.00  0.00    +0.119 C 
BRANCH  26  29
ATOM     27  C   LIG    1       -2.464   0.304   0.349  0.00  0.00    +0.131 C 
ATOM     28  N   LIG    1       -1.634   1.377   0.900  0.00  0.00    -0.308 N 
ATOM     29  C   LIG    1       -0.336   1.605   0.570  0.00  0.00    +0.217 C 
ATOM     30  O   LIG    1        0.286   2.579   0.999  0.00  0.00    -0.276 OA
ATOM     31  C   LIG    1       -2.346   2.207   1.876  0.00  0.00    +0.131 C 
ENDBRANCH  26  29
ENDBRANCH  25  26
ENDBRANCH   1  25
TORSDOF 6
