REMARK  Name = DB11833
REMARK                            x       y       z     vdW  Elec       q    Type
REMARK                         _______ _______ _______ _____ _____    ______ ____
ROOT
ATOM      1  C   LIG    1       -0.487  -2.638  -0.068  0.00  0.00    +0.067 C 
ATOM      2  C   LIG    1       -0.811  -1.155  -0.016  0.00  0.00    +0.056 A 
ATOM      3  N   LIG    1       -2.103  -0.660   0.002  0.00  0.00    -0.300 N 
ATOM      4  C   LIG    1       -1.954   0.713   0.024  0.00  0.00    +0.113 A 
ATOM      5  C   LIG    1       -3.105   1.699   0.069  0.00  0.00    +0.086 C 
ATOM      6  N   LIG    1       -0.697   1.083   0.026  0.00  0.00    -0.224 NA
ATOM      7  C   LIG    1        0.012  -0.029   0.003  0.00  0.00    +0.135 A 
ENDROOT
BRANCH   3   8
ATOM      8  C   LIG    1       -3.309  -1.394   0.002  0.00  0.00    +0.048 A 
ATOM      9  C   LIG    1       -4.263  -1.166  -0.995  0.00  0.00    +0.029 A 
ATOM     10  C   LIG    1       -5.452  -1.891  -0.992  0.00  0.00    +0.040 A 
ATOM     11  C   LIG    1       -5.683  -2.837   0.005  0.00  0.00    +0.124 A 
ATOM     12  F   LIG    1       -6.838  -3.540   0.007  0.00  0.00    -0.205 F 
ATOM     13  C   LIG    1       -4.735  -3.066   1.001  0.00  0.00    +0.040 A 
ATOM     14  C   LIG    1       -3.544  -2.344   1.000  0.00  0.00    +0.029 A 
ENDBRANCH   3   8
BRANCH   7  15
ATOM     15  C   LIG    1        1.466  -0.000  -0.005  0.00  0.00    -0.039 C 
ATOM     16  C   LIG    1        2.688   0.007  -0.009  0.00  0.00    -0.059 C 
BRANCH  16  17
ATOM     17  C   LIG    1        4.143   0.000  -0.010  0.00  0.00    +0.030 A 
ATOM     18  C   LIG    1        4.844  -1.151  -0.385  0.00  0.00    +0.057 A 
ATOM     19  C   LIG    1        6.241  -1.122  -0.374  0.00  0.00    +0.130 A 
ATOM     20 CL   LIG    1        7.114  -2.538  -0.834  0.00  0.00    -0.062 Cl
ATOM     21  N   LIG    1        6.944  -0.017  -0.013  0.00  0.00    -0.243 NA
ATOM     22  C   LIG    1        6.251   1.093   0.347  0.00  0.00    +0.113 A 
ATOM     23  C   LIG    1        4.856   1.144   0.363  0.00  0.00    +0.036 A 
ENDBRANCH  16  17
ENDBRANCH   7  15
TORSDOF 3
