REMARK  Name = DB11625
REMARK                            x       y       z     vdW  Elec       q    Type
REMARK                         _______ _______ _______ _____ _____    ______ ____
ROOT
ATOM      1  C   LIG    1        0.001   0.000  -0.002  0.00  0.00    +0.390 C 
ATOM      2  F   LIG    1       -0.460   1.253   0.043  0.00  0.00    -0.192 F 
ATOM      3  F   LIG    1       -0.461  -0.593   1.102  0.00  0.00    -0.192 F 
ENDROOT
BRANCH   1   4
ATOM      4  C   LIG    1       -0.584  -0.720  -1.258  0.00  0.00    +0.409 C 
ATOM      5  F   LIG    1       -0.144  -1.980  -1.308  0.00  0.00    -0.189 F 
ATOM      6  F   LIG    1       -0.140  -0.131  -2.371  0.00  0.00    -0.189 F 
BRANCH   4   7
ATOM      7  C   LIG    1       -2.134  -0.740  -1.299  0.00  0.00    +0.460 C 
ATOM      8  F   LIG    1       -2.650   0.490  -1.312  0.00  0.00    -0.165 F 
ATOM      9  F   LIG    1       -2.655  -1.366  -0.243  0.00  0.00    -0.165 F 
ATOM     10  F   LIG    1       -2.581  -1.366  -2.389  0.00  0.00    -0.165 F 
ENDBRANCH   4   7
ENDBRANCH   1   4
BRANCH   1  11
ATOM     11  C   LIG    1        1.562   0.022   0.038  0.00  0.00    +0.409 C 
ATOM     12  F   LIG    1        2.039   0.623  -1.055  0.00  0.00    -0.189 F 
ATOM     13  F   LIG    1        2.038  -1.225   0.010  0.00  0.00    -0.189 F 
BRANCH  11  14
ATOM     14  C   LIG    1        2.143   0.740   1.284  0.00  0.00    +0.460 C 
ATOM     15  F   LIG    1        1.756   0.161   2.422  0.00  0.00    -0.165 F 
ATOM     16  F   LIG    1        1.759   2.016   1.352  0.00  0.00    -0.165 F 
ATOM     17  F   LIG    1        3.477   0.730   1.270  0.00  0.00    -0.165 F 
ENDBRANCH  11  14
ENDBRANCH   1  11
TORSDOF 4
