REMARK  Name = DB11995
REMARK                            x       y       z     vdW  Elec       q    Type
REMARK                         _______ _______ _______ _____ _____    ______ ____
ROOT
ATOM      1  C   LIG    1        1.245   0.590   0.233  0.00  0.00    +0.167 A 
ATOM      2  S   LIG    1        2.097   2.022   0.729  0.00  0.00    -0.037 S 
ATOM      3  C   LIG    1        3.593   1.161   0.450  0.00  0.00    +0.098 A 
ATOM      4  C   LIG    1        3.318  -0.144   0.009  0.00  0.00    +0.108 A 
ATOM      5  N   LIG    1        2.022  -0.410  -0.102  0.00  0.00    -0.222 NA
ENDROOT
BRANCH   3   6
ATOM      6  N   LIG    1        4.794   1.767   0.659  0.00  0.00    -0.320 N 
ATOM      7  C   LIG    1        5.203   2.113   2.024  0.00  0.00    +0.121 C 
ATOM      8  C   LIG    1        6.717   2.406   2.129  0.00  0.00    +0.103 C 
ATOM      9  N   LIG    1        7.130   3.491   1.226  0.00  0.00    -0.296 NA
ATOM     10  C   LIG    1        6.756   3.094  -0.140  0.00  0.00    +0.103 C 
ATOM     11  C   LIG    1        5.240   2.819  -0.259  0.00  0.00    +0.121 C 
BRANCH   9  12
ATOM     12  C   LIG    1        8.571   3.822   1.332  0.00  0.00    +0.057 C 
ATOM     13  C   LIG    1        8.998   5.058   0.481  0.00  0.00    +0.019 C 
ATOM     14  C   LIG    1       10.505   5.373   0.552  0.00  0.00    +0.002 C 
ATOM     15  C   LIG    1       10.993   5.541   1.998  0.00  0.00    +0.000 C 
ATOM     16  C   LIG    1       10.627   4.316   2.846  0.00  0.00    +0.002 C 
ATOM     17  C   LIG    1        9.120   3.994   2.783  0.00  0.00    +0.019 C 
ENDBRANCH   9  12
ENDBRANCH   3   6
BRANCH   4  18
ATOM     18  C   LIG    1        4.316  -1.175  -0.338  0.00  0.00    +0.041 A 
ATOM     19  S   LIG    1        3.898  -2.558  -1.321  0.00  0.00    -0.094 S 
ATOM     20  C   LIG    1        5.512  -3.179  -1.229  0.00  0.00    +0.065 A 
ATOM     21  C   LIG    1        6.335  -2.365  -0.469  0.00  0.00    +0.049 A 
ATOM     22 CL   LIG    1        7.995  -2.693  -0.172  0.00  0.00    -0.083 Cl
ATOM     23  C   LIG    1        5.661  -1.247   0.032  0.00  0.00    +0.037 A 
ENDBRANCH   4  18
BRANCH   1  25
ATOM     24  C   LIG    1       -1.068   1.404   0.495  0.00  0.00    +0.251 C 
ATOM     25  N   LIG    1       -0.139   0.467   0.187  0.00  0.00    -0.261 N 
ATOM     26  H   LIG    1       -0.479  -0.434  -0.116  0.00  0.00    +0.157 HD
ATOM     27  O   LIG    1       -0.799   2.547   0.877  0.00  0.00    -0.270 OA
BRANCH  24  34
ATOM     28  C   LIG    1       -2.888  -0.269  -0.182  0.00  0.00    +0.038 A 
ATOM     29  C   LIG    1       -4.237  -0.619  -0.283  0.00  0.00    +0.082 A 
ATOM     30 CL   LIG    1       -4.664  -2.159  -0.951  0.00  0.00    -0.080 Cl
ATOM     31  C   LIG    1       -5.205   0.293   0.162  0.00  0.00    +0.140 A 
ATOM     32  N   LIG    1       -4.864   1.504   0.684  0.00  0.00    -0.238 NA
ATOM     33  C   LIG    1       -3.550   1.824   0.774  0.00  0.00    +0.126 A 
ATOM     34  C   LIG    1       -2.514   0.975   0.357  0.00  0.00    +0.057 A 
BRANCH  31  35
ATOM     35  N   LIG    1       -6.558  -0.000   0.086  0.00  0.00    -0.314 N 
ATOM     36  C   LIG    1       -7.369   0.799  -0.847  0.00  0.00    +0.107 C 
ATOM     37  C   LIG    1       -8.739   0.148  -1.139  0.00  0.00    +0.033 C 
ATOM     38  C   LIG    1       -9.577  -0.178   0.117  0.00  0.00    +0.101 C 
ATOM     39  C   LIG    1       -8.663  -0.839   1.176  0.00  0.00    +0.033 C 
ATOM     40  C   LIG    1       -7.280  -0.171   1.358  0.00  0.00    +0.107 C 
BRANCH  38  41
ATOM     41  C   LIG    1      -10.207   1.131   0.661  0.00  0.00    +0.308 C 
ATOM     42  O   LIG    1       -9.830   1.718   1.675  0.00  0.00    -0.251 OA
BRANCH  41  43
ATOM     43  O   LIG    1      -11.243   1.550  -0.124  0.00  0.00    -0.480 OA
ATOM     44  H   LIG    1      -11.642   2.359   0.204  0.00  0.00    +0.295 HD
ENDBRANCH  41  43
ENDBRANCH  38  41
ENDBRANCH  31  35
ENDBRANCH  24  34
ENDBRANCH   1  25
TORSDOF 8
