REMARK  Name = DB11145
REMARK                            x       y       z     vdW  Elec       q    Type
REMARK                         _______ _______ _______ _____ _____    ______ ____
ROOT
ATOM      1  C   LIG    1       -2.090   1.190   0.000  0.00  0.00    +0.004 A 
ATOM      2  C   LIG    1       -0.699   1.193   0.000  0.00  0.00    +0.047 A 
ATOM      3  C   LIG    1        0.022  -0.000   0.000  0.00  0.00    +0.143 A 
ATOM      4  C   LIG    1       -0.671  -1.246   0.000  0.00  0.00    +0.112 A 
ATOM      5  N   LIG    1        0.034  -2.418   0.000  0.00  0.00    -0.251 NA
ATOM      6  C   LIG    1       -0.648  -3.589   0.000  0.00  0.00    +0.111 A 
ATOM      7  C   LIG    1       -2.036  -3.669   0.000  0.00  0.00    +0.020 A 
ATOM      8  C   LIG    1       -2.776  -2.490   0.000  0.00  0.00    +0.011 A 
ATOM      9  C   LIG    1       -2.102  -1.242   0.000  0.00  0.00    +0.004 A 
ATOM     10  C   LIG    1       -2.796  -0.009   0.000  0.00  0.00    +0.010 A 
ENDROOT
BRANCH   3  11
ATOM     11  O   LIG    1        1.394   0.059   0.000  0.00  0.00    -0.505 OA
ATOM     12  H   LIG    1        1.729   0.959   0.000  0.00  0.00    +0.292 HD
ENDBRANCH   3  11
TORSDOF 1
