REMARK  Name = DB11398
REMARK                            x       y       z     vdW  Elec       q    Type
REMARK                         _______ _______ _______ _____ _____    ______ ____
ROOT
ATOM      1  C   LIG    1        1.585   0.067   0.015  0.00  0.00    +0.011 A 
ATOM      2  C   LIG    1        2.279   0.473  -1.143  0.00  0.00    +0.049 A 
ATOM      3 CL   LIG    1        1.454   0.996  -2.571  0.00  0.00    -0.083 Cl
ATOM      4  C   LIG    1        3.673   0.466  -1.169  0.00  0.00    +0.045 A 
ATOM      5  C   LIG    1        4.401   0.060  -0.047  0.00  0.00    +0.057 A 
ATOM      6  C   LIG    1        3.722  -0.349   1.102  0.00  0.00    +0.045 A 
ATOM      7  C   LIG    1        2.327  -0.345   1.139  0.00  0.00    +0.049 A 
ATOM      8 CL   LIG    1        1.565  -0.853   2.608  0.00  0.00    -0.083 Cl
ENDROOT
BRANCH   5   9
ATOM      9  N   LIG    1        5.808   0.053  -0.074  0.00  0.00    -0.188 N 
ATOM     10  N   LIG    1        6.375  -1.232  -0.049  0.00  0.00    -0.218 NA
ATOM     11  H   LIG    1        6.012  -1.747  -0.851  0.00  0.00    +0.146 HD
ATOM     12  C   LIG    1        7.660  -1.292  -0.094  0.00  0.00    +0.187 C 
ATOM     13  C   LIG    1        8.522  -0.097  -0.163  0.00  0.00    +0.241 C 
ATOM     14  O   LIG    1        9.740  -0.260  -0.207  0.00  0.00    -0.274 OA
ATOM     15  N   LIG    1        7.883   1.081  -0.172  0.00  0.00    -0.237 N 
ATOM     16  H   LIG    1        8.433   1.897  -0.216  0.00  0.00    +0.159 HD
ATOM     17  C   LIG    1        6.550   1.235  -0.124  0.00  0.00    +0.327 C 
ATOM     18  O   LIG    1        5.960   2.318  -0.119  0.00  0.00    -0.250 OA
ENDBRANCH   5   9
BRANCH   1  19
ATOM     19  C   LIG    1        0.047   0.080   0.056  0.00  0.00    +0.154 C 
BRANCH  19  22
ATOM     20  C   LIG    1       -0.768   3.674   1.038  0.00  0.00    +0.020 A 
ATOM     21  C   LIG    1       -0.231   2.390   1.035  0.00  0.00    +0.006 A 
ATOM     22  C   LIG    1       -0.565   1.486   0.021  0.00  0.00    -0.026 A 
ATOM     23  C   LIG    1       -1.456   1.880  -0.987  0.00  0.00    +0.006 A 
ATOM     24  C   LIG    1       -1.992   3.165  -0.985  0.00  0.00    +0.020 A 
ATOM     25  C   LIG    1       -1.645   4.059   0.026  0.00  0.00    +0.041 A 
ATOM     26 CL   LIG    1       -2.307   5.653   0.026  0.00  0.00    -0.084 Cl
ENDBRANCH  19  22
BRANCH  19  27
ATOM     27  C   LIG    1       -0.518  -0.863  -0.930  0.00  0.00    +0.075 C 
ATOM     28  N   LIG    1       -0.961  -1.604  -1.701  0.00  0.00    -0.196 NA
ENDBRANCH  19  27
ENDBRANCH   1  19
TORSDOF 4
