REMARK  Name = DB11901
REMARK                            x       y       z     vdW  Elec       q    Type
REMARK                         _______ _______ _______ _____ _____    ______ ____
ROOT
ATOM      1  N   LIG    1        1.334   0.180   0.209  0.00  0.00    -0.267 N 
ATOM      2  C   LIG    1        2.193   0.027  -0.958  0.00  0.00    +0.118 C 
ATOM      3  C   LIG    1        2.124   1.047  -2.119  0.00  0.00    +0.036 C 
ATOM      4  C   LIG    1        2.292  -0.119  -3.112  0.00  0.00    +0.005 C 
ATOM      5  C   LIG    1        1.922  -1.100  -1.983  0.00  0.00    +0.036 C 
ATOM      6  C   LIG    1        3.568  -0.060  -0.318  0.00  0.00    +0.249 C 
ATOM      7  O   LIG    1        4.608  -0.211  -0.964  0.00  0.00    -0.272 OA
ATOM      8  N   LIG    1        3.342   0.060   1.003  0.00  0.00    -0.218 N 
ATOM      9  C   LIG    1        2.028   0.207   1.395  0.00  0.00    +0.152 C 
ATOM     10  S   LIG    1        1.407   0.380   2.949  0.00  0.00    -0.017 S 
ENDROOT
BRANCH   1  15
ATOM     11  C   LIG    1       -2.843   0.482  -0.305  0.00  0.00    +0.072 A 
ATOM     12  C   LIG    1       -2.035   1.634  -0.323  0.00  0.00    +0.137 A 
ATOM     13  F   LIG    1       -2.565   2.865  -0.524  0.00  0.00    -0.205 F 
ATOM     14  C   LIG    1       -0.654   1.532  -0.145  0.00  0.00    +0.062 A 
ATOM     15  C   LIG    1       -0.059   0.282   0.045  0.00  0.00    +0.039 A 
ATOM     16  C   LIG    1       -0.851  -0.867   0.070  0.00  0.00    +0.024 A 
ATOM     17  C   LIG    1       -2.230  -0.767  -0.106  0.00  0.00    +0.018 A 
BRANCH  11  21
ATOM     18  C   LIG    1       -6.328  -0.564  -1.481  0.00  0.00    +0.128 C 
ATOM     19  N   LIG    1       -4.907  -0.445  -1.172  0.00  0.00    -0.314 N 
ATOM     20  H   LIG    1       -4.314  -1.193  -1.501  0.00  0.00    +0.149 HD
ATOM     21  C   LIG    1       -4.338   0.580  -0.509  0.00  0.00    +0.247 C 
ATOM     22  O   LIG    1       -4.970   1.553  -0.092  0.00  0.00    -0.270 OA
ENDBRANCH  11  21
ENDBRANCH   1  15
BRANCH   8  23
ATOM     23  C   LIG    1        4.435   0.024   1.894  0.00  0.00    +0.062 A 
ATOM     24  C   LIG    1        5.192   1.172   2.142  0.00  0.00    +0.136 A 
ATOM     25  N   LIG    1        6.256   1.180   2.982  0.00  0.00    -0.242 NA
ATOM     26  C   LIG    1        6.595   0.020   3.603  0.00  0.00    +0.152 A 
ATOM     27  C   LIG    1        5.891  -1.190   3.414  0.00  0.00    +0.092 A 
ATOM     28  C   LIG    1        4.796  -1.166   2.537  0.00  0.00    +0.040 A 
BRANCH  27  29
ATOM     29  C   LIG    1        6.279  -2.496   4.124  0.00  0.00    +0.420 C 
ATOM     30  F   LIG    1        5.469  -3.508   3.807  0.00  0.00    -0.166 F 
ATOM     31  F   LIG    1        6.224  -2.330   5.446  0.00  0.00    -0.166 F 
ATOM     32  F   LIG    1        7.520  -2.846   3.784  0.00  0.00    -0.166 F 
ENDBRANCH  27  29
BRANCH  26  33
ATOM     33  C   LIG    1        7.753   0.150   4.479  0.00  0.00    +0.120 C 
ATOM     34  N   LIG    1        8.673   0.252   5.174  0.00  0.00    -0.189 NA
ENDBRANCH  26  33
ENDBRANCH   8  23
TORSDOF 5
