REMARK  Name = DB11918
REMARK                            x       y       z     vdW  Elec       q    Type
REMARK                         _______ _______ _______ _____ _____    ______ ____
ROOT
ATOM      1  O   UNK    1       -1.691   0.280  -1.636  0.00  0.00    -0.284 OA
ENDROOT
BRANCH   1   2
ATOM      2  P   UNK    1       -0.365  -0.532  -0.877  0.00  0.00    +0.475 P 
ATOM      3  O   UNK    1       -0.394  -1.981  -1.308  0.00  0.00    -0.227 OA
BRANCH   2   4
ATOM      4  O   UNK    1       -0.292  -0.114   0.575  0.00  0.00    -0.302 OA
ATOM      5  H   UNK    1       -0.994  -0.558   1.075  0.00  0.00    +0.222 HD
ENDBRANCH   2   4
BRANCH   2   6
ATOM      6  O   UNK    1        0.888   0.263  -1.766  0.00  0.00    -0.281 OA
BRANCH   6   7
ATOM      7  C   UNK    1        2.051   0.682  -1.067  0.00  0.00    +0.165 C 
ATOM      8  C   UNK    1        3.015   1.344  -2.045  0.00  0.00    +0.175 C 
ATOM      9  O   UNK    1        4.299   1.047  -1.494  0.00  0.00    -0.348 OA
ATOM     10  C   UNK    1        4.228   0.161  -0.404  0.00  0.00    +0.228 C 
ATOM     11  C   UNK    1        2.843  -0.481  -0.497  0.00  0.00    +0.089 C 
BRANCH  10  12
ATOM     12  N   UNK    1        4.606   0.788   0.872  0.00  0.00    -0.256 N 
ATOM     13  C   UNK    1        4.850  -0.064   1.959  0.00  0.00    +0.354 A 
ATOM     14  O   UNK    1        4.742  -1.284   1.813  0.00  0.00    -0.244 OA
ATOM     15  N   UNK    1        5.225   0.553   3.177  0.00  0.00    -0.159 NA
ATOM     16  C   UNK    1        5.293   1.838   3.219  0.00  0.00    +0.218 A 
ATOM     17  N   UNK    1        5.051   2.711   2.157  0.00  0.00    -0.205 NA
ATOM     18  C   UNK    1        4.720   2.165   1.034  0.00  0.00    +0.209 A 
BRANCH  16  19
ATOM     19  N   UNK    1        5.637   2.403   4.419  0.00  0.00    -0.327 N 
ATOM     20  H   UNK    1        5.690   3.405   4.514  0.00  0.00    +0.145 HD
ATOM     21  H   UNK    1        5.816   1.819   5.223  0.00  0.00    +0.145 HD
ENDBRANCH  16  19
ENDBRANCH  10  12
BRANCH   8  22
ATOM     22  C   UNK    1        2.804   2.862  -2.200  0.00  0.00    +0.190 C 
BRANCH  22  23
ATOM     23  O   UNK    1        3.750   3.408  -3.095  0.00  0.00    -0.392 OA
ATOM     24  H   UNK    1        4.624   3.313  -2.709  0.00  0.00    +0.210 HD
ENDBRANCH  22  23
ENDBRANCH   8  22
ENDBRANCH   6   7
ENDBRANCH   2   6
ENDBRANCH   1   2
BRANCH   1  25
ATOM     25  C   UNK    1       -1.777   1.692  -1.508  0.00  0.00    +0.206 C 
BRANCH  25  28
ATOM     26  C   UNK    1       -2.012   2.904   1.477  0.00  0.00    +0.225 C 
ATOM     27  O   UNK    1       -2.493   1.778   0.800  0.00  0.00    -0.348 OA
ATOM     28  C   UNK    1       -2.900   2.089  -0.526  0.00  0.00    +0.175 C 
ATOM     29  C   UNK    1       -3.174   3.593  -0.440  0.00  0.00    +0.150 C 
ATOM     30  C   UNK    1       -2.104   4.090   0.519  0.00  0.00    +0.088 C 
BRANCH  26  32
ATOM     31  C   UNK    1        0.573   2.986   1.773  0.00  0.00    +0.203 A 
ATOM     32  N   UNK    1       -0.676   2.619   2.138  0.00  0.00    -0.288 N 
ATOM     33  C   UNK    1       -0.497   1.786   3.207  0.00  0.00    +0.171 A 
ATOM     34  N   UNK    1       -1.473   1.120   3.893  0.00  0.00    -0.196 NA
ATOM     35  C   UNK    1       -1.009   0.378   4.844  0.00  0.00    +0.195 A 
ATOM     36  N   UNK    1        0.342   0.296   5.140  0.00  0.00    -0.293 N 
ATOM     37  H   UNK    1        0.615  -0.302   5.906  0.00  0.00    +0.172 HD
ATOM     38  C   UNK    1        1.380   0.946   4.518  0.00  0.00    +0.280 A 
ATOM     39  O   UNK    1        2.545   0.824   4.887  0.00  0.00    -0.265 OA
ATOM     40  C   UNK    1        0.852   1.745   3.431  0.00  0.00    +0.172 A 
ATOM     41  N   UNK    1        1.516   2.498   2.544  0.00  0.00    -0.229 NA
BRANCH  35  42
ATOM     42  N   UNK    1       -1.826  -0.362   5.606  0.00  0.00    -0.329 N 
ATOM     43  H   UNK    1       -1.457  -0.948   6.339  0.00  0.00    +0.145 HD
ATOM     44  H   UNK    1       -2.822  -0.353   5.438  0.00  0.00    +0.145 HD
ENDBRANCH  35  42
ENDBRANCH  26  32
BRANCH  29  45
ATOM     45  O   UNK    1       -4.485   3.876   0.018  0.00  0.00    -0.389 OA
ATOM     46  H   UNK    1       -4.615   3.427   0.857  0.00  0.00    +0.210 HD
ENDBRANCH  29  45
ENDBRANCH  25  28
ENDBRANCH   1  25
TORSDOF 13
