REMARK  Name = DB11264
REMARK                            x       y       z     vdW  Elec       q    Type
REMARK                         _______ _______ _______ _____ _____    ______ ____
ROOT
ATOM      1  C   LIG    1        1.209   0.258  -0.166  0.00  0.00    +0.181 C 
ENDROOT
BRANCH   1   2
ATOM      2  C   LIG    1       -0.260  -0.085   0.164  0.00  0.00    +0.190 C 
BRANCH   2   3
ATOM      3  O   LIG    1       -1.086   1.062   0.096  0.00  0.00    -0.392 OA
ATOM      4  H   LIG    1       -1.977   0.810   0.345  0.00  0.00    +0.210 HD
ENDBRANCH   2   3
ENDBRANCH   1   2
BRANCH   1   5
ATOM      5  O   LIG    1        1.672   1.126   0.864  0.00  0.00    -0.279 OA
BRANCH   5   6
ATOM      6  P   LIG    1        3.313   1.771   0.942  0.00  0.00    +0.473 P 
ATOM      7  O   LIG    1        4.208   0.611   1.417  0.00  0.00    -0.228 OA
BRANCH   6   8
ATOM      8  O   LIG    1        3.650   2.246  -0.484  0.00  0.00    -0.303 OA
ATOM      9  H   LIG    1        4.548   2.612  -0.500  0.00  0.00    +0.222 HD
ENDBRANCH   6   8
BRANCH   6  10
ATOM     10  O   LIG    1        3.252   2.926   1.957  0.00  0.00    -0.303 OA
ATOM     11  H   LIG    1        4.132   3.326   2.045  0.00  0.00    +0.222 HD
ENDBRANCH   6  10
ENDBRANCH   5   6
ENDBRANCH   1   5
BRANCH   1  12
ATOM     12  C   LIG    1        2.104  -0.998  -0.296  0.00  0.00    +0.190 C 
BRANCH  12  13
ATOM     13  O   LIG    1        1.650  -1.870  -1.314  0.00  0.00    -0.392 OA
ATOM     14  H   LIG    1        2.264  -2.605  -1.375  0.00  0.00    +0.210 HD
ENDBRANCH  12  13
ENDBRANCH   1  12
TORSDOF 8
