REMARK  Name = DB11366
REMARK                            x       y       z     vdW  Elec       q    Type
REMARK                         _______ _______ _______ _____ _____    ______ ____
ROOT
ATOM      1  C   LIG    1        1.443  -0.041  -0.151  0.00  0.00    +0.144 A 
ATOM      2  C   LIG    1        2.144   0.083  -1.329  0.00  0.00    +0.209 A 
ATOM      3  N   LIG    1        3.545  -0.061  -1.426  0.00  0.00    -0.314 N 
ATOM      4  C   LIG    1        4.240  -0.574  -2.630  0.00  0.00    +0.152 C 
ATOM      5  C   LIG    1        4.315   0.056  -0.238  0.00  0.00    +0.055 A 
ATOM      6  C   LIG    1        5.701   0.287  -0.273  0.00  0.00    +0.026 A 
ATOM      7  C   LIG    1        6.444   0.352   0.902  0.00  0.00    +0.002 A 
ATOM      8  C   LIG    1        5.814   0.186   2.130  0.00  0.00    +0.001 A 
ATOM      9  C   LIG    1        4.439  -0.028   2.183  0.00  0.00    +0.014 A 
ATOM     10  C   LIG    1        3.665  -0.078   1.011  0.00  0.00    +0.046 A 
ATOM     11  C   LIG    1        2.176  -0.275   1.121  0.00  0.00    +0.205 A 
ATOM     12  O   LIG    1        1.646  -0.523   2.209  0.00  0.00    -0.286 OA
ENDROOT
BRANCH   1  14
ATOM     13  O   LIG    1       -0.732  -0.866   0.021  0.00  0.00    -0.269 OA
ATOM     14  C   LIG    1       -0.012   0.132  -0.054  0.00  0.00    +0.259 C 
ATOM     15  N   LIG    1       -0.516   1.405  -0.045  0.00  0.00    -0.270 N 
ATOM     16  C   LIG    1       -1.963   1.618   0.061  0.00  0.00    +0.138 C 
BRANCH  15  17
ATOM     17  C   LIG    1        0.286   2.562  -0.003  0.00  0.00    +0.036 A 
ATOM     18  C   LIG    1        0.920   2.939   1.186  0.00  0.00    +0.023 A 
ATOM     19  C   LIG    1        1.707   4.087   1.214  0.00  0.00    +0.002 A 
ATOM     20  C   LIG    1        1.844   4.859   0.061  0.00  0.00    +0.000 A 
ATOM     21  C   LIG    1        1.198   4.497  -1.119  0.00  0.00    +0.002 A 
ATOM     22  C   LIG    1        0.411   3.349  -1.152  0.00  0.00    +0.023 A 
ENDBRANCH  15  17
ENDBRANCH   1  14
BRANCH   2  23
ATOM     23  O   LIG    1        1.617   0.373  -2.481  0.00  0.00    -0.493 OA
ATOM     24  H   LIG    1        0.691   0.495  -2.554  0.00  0.00    +0.294 HD
ENDBRANCH   2  23
TORSDOF 3
