REMARK  Name = DB11750
REMARK                            x       y       z     vdW  Elec       q    Type
REMARK                         _______ _______ _______ _____ _____    ______ ____
ROOT
ATOM      1  C   LIG    1       -0.403  -0.896   1.193  0.00  0.00    +0.010 C 
ATOM      2  C   LIG    1       -0.002  -0.020  -0.065  0.00  0.00    +0.133 C 
ATOM      3  C   LIG    1       -0.638  -0.792  -1.295  0.00  0.00    +0.026 C 
ATOM      4  C   LIG    1        0.271  -1.554  -2.288  0.00  0.00    +0.011 C 
ATOM      5  C   LIG    1       -1.725  -1.716  -0.689  0.00  0.00    +0.011 C 
ATOM      6  C   LIG    1       -1.843  -1.285   0.778  0.00  0.00    +0.005 C 
ATOM      7  C   LIG    1       -2.570  -2.202   1.804  0.00  0.00    +0.034 C 
ATOM      8  C   LIG    1       -3.987  -2.599   1.322  0.00  0.00    +0.011 C 
ATOM      9  C   LIG    1       -4.737  -3.479   2.336  0.00  0.00    +0.032 C 
ATOM     10  C   LIG    1       -4.792  -2.756   3.682  0.00  0.00    -0.053 C 
ATOM     11  C   LIG    1       -5.967  -2.430   4.273  0.00  0.00    +0.051 C 
ATOM     12  C   LIG    1       -6.102  -1.712   5.540  0.00  0.00    +0.179 C 
ATOM     13  O   LIG    1       -7.188  -1.439   6.047  0.00  0.00    -0.288 OA
ATOM     14  C   LIG    1       -4.824  -1.346   6.144  0.00  0.00    +0.047 C 
ATOM     15  C   LIG    1       -3.625  -1.641   5.604  0.00  0.00    -0.009 C 
ATOM     16  C   LIG    1       -3.401  -2.401   4.285  0.00  0.00    +0.044 C 
ATOM     17  C   LIG    1       -2.696  -3.735   4.660  0.00  0.00    +0.023 C 
ATOM     18  C   LIG    1       -2.627  -1.515   3.220  0.00  0.00    +0.153 C 
ATOM     19  F   LIG    1       -3.378  -0.415   3.058  0.00  0.00    -0.238 F 
ATOM     20  C   LIG    1       -1.232  -0.932   3.675  0.00  0.00    +0.154 C 
ATOM     21  C   LIG    1        0.523  -2.152   1.362  0.00  0.00    +0.015 C 
ATOM     22  C   LIG    1       -0.526  -0.124   2.546  0.00  0.00    +0.044 C 
ENDROOT
BRANCH   2  23
ATOM     23  O   LIG    1       -0.607   1.274  -0.020  0.00  0.00    -0.380 OA
ATOM     24  H   LIG    1       -1.559   1.162   0.029  0.00  0.00    +0.211 HD
ENDBRANCH   2  23
BRANCH   2  25
ATOM     25  C   LIG    1        1.546   0.248  -0.138  0.00  0.00    +0.180 C 
ATOM     26  O   LIG    1        2.331  -0.639  -0.478  0.00  0.00    -0.293 OA
BRANCH  25  27
ATOM     27  C   LIG    1        2.089   1.641   0.246  0.00  0.00    +0.186 C 
ATOM     28 CL   LIG    1        3.876   1.717   0.218  0.00  0.00    -0.117 Cl
ENDBRANCH  25  27
ENDBRANCH   2  25
BRANCH  20  29
ATOM     29  O   LIG    1       -0.349  -1.881   4.238  0.00  0.00    -0.389 OA
ATOM     30  H   LIG    1       -0.778  -2.286   4.995  0.00  0.00    +0.210 HD
ENDBRANCH  20  29
TORSDOF 4
