REMARK  Name = DB11327
REMARK                            x       y       z     vdW  Elec       q    Type
REMARK                         _______ _______ _______ _____ _____    ______ ____
ROOT
ATOM      1  S   LIG    1        0.048  -0.245   1.008  0.00  0.00    -0.063 S 
ENDROOT
BRANCH   1   2
ATOM      2  C   LIG    1       -0.009   1.407   0.365  0.00  0.00    +0.136 C 
ATOM      3  C   LIG    1       -0.783   1.690  -0.764  0.00  0.00    +0.035 C 
ATOM      4  C   LIG    1       -0.808   2.990  -1.269  0.00  0.00    +0.004 C 
ATOM      5  C   LIG    1       -0.065   3.992  -0.642  0.00  0.00    +0.019 C 
ATOM      6  C   LIG    1        0.692   3.672   0.486  0.00  0.00    +0.109 C 
ATOM      7  N   LIG    1        0.701   2.404   0.957  0.00  0.00    -0.166 NA
BRANCH   7   8
ATOM      8  O   LIG    1        1.391   2.171   1.988  0.00  0.00    -0.311 OA
ATOM      9  H   LIG    1        1.315   1.233   2.222  0.00  0.00    +0.237 HD
ENDBRANCH   7   8
ENDBRANCH   1   2
BRANCH   1  10
ATOM     10  S   LIG    1        2.008  -0.751   0.717  0.00  0.00    -0.063 S 
BRANCH  10  11
ATOM     11  C   LIG    1        2.067  -1.019  -1.036  0.00  0.00    +0.136 C 
ATOM     12  C   LIG    1        2.841  -0.182  -1.844  0.00  0.00    +0.035 C 
ATOM     13  C   LIG    1        2.868  -0.396  -3.223  0.00  0.00    +0.004 C 
ATOM     14  C   LIG    1        2.126  -1.440  -3.778  0.00  0.00    +0.019 C 
ATOM     15  C   LIG    1        1.369  -2.257  -2.937  0.00  0.00    +0.109 C 
ATOM     16  N   LIG    1        1.358  -2.031  -1.604  0.00  0.00    -0.166 NA
BRANCH  16  17
ATOM     17  O   LIG    1        0.671  -2.809  -0.887  0.00  0.00    -0.311 OA
ATOM     18  H   LIG    1        0.746  -2.543   0.042  0.00  0.00    +0.237 HD
ENDBRANCH  16  17
ENDBRANCH  10  11
ENDBRANCH   1  10
TORSDOF 5
