REMARK  Name = DB11843
REMARK                            x       y       z     vdW  Elec       q    Type
REMARK                         _______ _______ _______ _____ _____    ______ ____
ROOT
ATOM      1  O   LIG    1        1.786   0.080  -2.198  0.00  0.00    -0.485 OA
ENDROOT
BRANCH   1   2
ATOM      2  C   LIG    1        2.253   0.618  -3.383  0.00  0.00    +0.121 A 
ATOM      3  C   LIG    1        3.304   1.542  -3.477  0.00  0.00    +0.046 A 
ATOM      4  C   LIG    1        3.702   2.029  -4.719  0.00  0.00    +0.012 A 
ATOM      5  C   LIG    1        3.060   1.604  -5.889  0.00  0.00    -0.011 A 
ATOM      6  C   LIG    1        2.008   0.688  -5.789  0.00  0.00    +0.012 A 
ATOM      7  C   LIG    1        1.612   0.199  -4.547  0.00  0.00    +0.046 A 
BRANCH   5   8
ATOM      8  C   LIG    1        3.460   2.110  -7.244  0.00  0.00    +0.021 A 
ATOM      9  S   LIG    1        5.059   2.757  -7.531  0.00  0.00    -0.078 S 
ATOM     10  C   LIG    1        4.702   3.057  -9.200  0.00  0.00    +0.089 A 
ATOM     11  C   LIG    1        3.409   2.670  -9.517  0.00  0.00    +0.027 A 
ATOM     12  C   LIG    1        2.716   2.139  -8.425  0.00  0.00    +0.017 A 
BRANCH  10  13
ATOM     13  C   LIG    1        5.706   3.644 -10.070  0.00  0.00    +0.106 C 
ATOM     14  N   LIG    1        6.506   4.111 -10.764  0.00  0.00    -0.190 NA
ENDBRANCH  10  13
ENDBRANCH   5   8
ENDBRANCH   1   2
BRANCH   1  16
ATOM     15  C   LIG    1        1.535  -0.096   0.192  0.00  0.00    +0.144 C 
ATOM     16  C   LIG    1        2.381   0.447  -0.947  0.00  0.00    +0.220 C 
ATOM     17  C   LIG    1        3.712  -0.284  -0.719  0.00  0.00    +0.206 C 
ATOM     18  O   LIG    1        3.365  -1.512  -0.072  0.00  0.00    -0.374 OA
ATOM     19  C   LIG    1        1.970  -1.558   0.221  0.00  0.00    +0.184 C 
BRANCH  15  20
ATOM     20  N   LIG    1        0.068   0.102   0.108  0.00  0.00    -0.185 NA
ATOM     21  H   LIG    1       -0.403  -0.438   0.839  0.00  0.00    +0.148 HD
BRANCH  20  22
ATOM     22  S   LIG    1       -0.565   1.746  -0.006  0.00  0.00    +0.032 S 
ATOM     23  O   LIG    1       -0.463   2.335   1.333  0.00  0.00    -0.158 OA
ATOM     24  O   LIG    1        0.071   2.414  -1.148  0.00  0.00    -0.158 OA
BRANCH  22  26
ATOM     25  C   LIG    1       -2.531   0.779  -1.775  0.00  0.00    +0.033 C 
ATOM     26  C   LIG    1       -2.401   1.481  -0.412  0.00  0.00    +0.142 C 
ATOM     27  C   LIG    1       -3.125   2.836  -0.375  0.00  0.00    +0.033 C 
ENDBRANCH  22  26
ENDBRANCH  20  22
ENDBRANCH  15  20
ENDBRANCH   1  16
TORSDOF 7
