REMARK  Name = DB11235
REMARK                            x       y       z     vdW  Elec       q    Type
REMARK                         _______ _______ _______ _____ _____    ______ ____
ROOT
ATOM      1  N   LIG    1        1.743   0.195  -0.249  0.00  0.00    -0.294 N 
ENDROOT
BRANCH   1   2
ATOM      2  C   LIG    1        2.187   0.365  -1.593  0.00  0.00    +0.218 A 
ATOM      3  N   LIG    1        1.291   0.159  -2.604  0.00  0.00    -0.223 NA
ATOM      4  C   LIG    1        1.729   0.321  -3.879  0.00  0.00    +0.116 A 
ATOM      5  C   LIG    1        3.042   0.686  -4.176  0.00  0.00    +0.039 A 
ATOM      6  C   LIG    1        3.898   0.880  -3.092  0.00  0.00    +0.116 A 
ATOM      7  N   LIG    1        3.487   0.727  -1.807  0.00  0.00    -0.223 NA
ENDBRANCH   1   2
BRANCH   1   8
ATOM      8  C   LIG    1        0.316   0.023   0.047  0.00  0.00    +0.123 C 
BRANCH   8   9
ATOM      9  C   LIG    1       -0.454   1.362   0.070  0.00  0.00    +0.102 C 
BRANCH   9  11
ATOM     10  C   LIG    1       -2.645   0.448  -0.459  0.00  0.00    +0.104 C 
ATOM     11  N   LIG    1       -1.846   1.208   0.502  0.00  0.00    -0.307 NA
ATOM     12  C   LIG    1       -2.450   2.525   0.686  0.00  0.00    +0.104 C 
ENDBRANCH   9  11
ENDBRANCH   8   9
ENDBRANCH   1   8
BRANCH   1  13
ATOM     13  C   LIG    1        2.631   0.505   0.884  0.00  0.00    +0.143 C 
BRANCH  13  14
ATOM     14  C   LIG    1        3.801  -0.468   1.033  0.00  0.00    -0.030 A 
ATOM     15  C   LIG    1        3.632  -1.842   0.834  0.00  0.00    +0.009 A 
ATOM     16  C   LIG    1        4.713  -2.707   0.976  0.00  0.00    +0.046 A 
ATOM     17  C   LIG    1        5.978  -2.208   1.327  0.00  0.00    +0.120 A 
ATOM     18  C   LIG    1        6.134  -0.838   1.537  0.00  0.00    +0.046 A 
ATOM     19  C   LIG    1        5.054   0.029   1.395  0.00  0.00    +0.009 A 
BRANCH  17  20
ATOM     20  O   LIG    1        7.107  -2.989   1.486  0.00  0.00    -0.495 OA
ATOM     21  C   LIG    1        7.018  -4.392   1.268  0.00  0.00    +0.277 C 
ENDBRANCH  17  20
ENDBRANCH  13  14
ENDBRANCH   1  13
TORSDOF 7
