REMARK  Name = DB11729
REMARK                            x       y       z     vdW  Elec       q    Type
REMARK                         _______ _______ _______ _____ _____    ______ ____
ROOT
ATOM      1  C   LIG    1       -5.138   1.924   1.225  0.00  0.00    +0.039 C 
ATOM      2  N   LIG    1       -4.793   0.507   1.038  0.00  0.00    -0.299 NA
ATOM      3  H   LIG    1       -4.299   0.163   1.848  0.00  0.00    +0.123 HD
ATOM      4  C   LIG    1       -4.159  -0.032  -0.171  0.00  0.00    +0.117 C 
ATOM      5  C   LIG    1       -2.618   0.012  -0.169  0.00  0.00    +0.002 A 
ATOM      6  C   LIG    1       -1.834  -1.151  -0.094  0.00  0.00    +0.053 A 
ATOM      7  C   LIG    1       -0.434  -1.110   0.000  0.00  0.00    +0.122 A 
ATOM      8  C   LIG    1        0.201   0.138   0.033  0.00  0.00    -0.021 A 
ATOM      9  C   LIG    1       -0.556   1.305  -0.060  0.00  0.00    +0.032 A 
ATOM     10  C   LIG    1       -1.948   1.251  -0.179  0.00  0.00    +0.094 A 
ATOM     11  S   LIG    1       -2.828   2.805  -0.391  0.00  0.00    -0.001 S 
ATOM     12  O   LIG    1       -1.849   3.895  -0.294  0.00  0.00    -0.169 OA
ATOM     13  O   LIG    1       -3.677   2.689  -1.580  0.00  0.00    -0.169 OA
ATOM     14  C   LIG    1       -3.905   2.879   1.166  0.00  0.00    +0.194 C 
ENDROOT
BRANCH   4  15
ATOM     15  C   LIG    1       -4.764  -1.407  -0.496  0.00  0.00    -0.026 A 
ATOM     16  C   LIG    1       -4.982  -2.366   0.505  0.00  0.00    +0.005 A 
ATOM     17  C   LIG    1       -5.540  -3.601   0.185  0.00  0.00    +0.000 A 
ATOM     18  C   LIG    1       -5.885  -3.880  -1.135  0.00  0.00    +0.000 A 
ATOM     19  C   LIG    1       -5.678  -2.936  -2.137  0.00  0.00    +0.000 A 
ATOM     20  C   LIG    1       -5.120  -1.701  -1.817  0.00  0.00    +0.005 A 
ENDBRANCH   4  15
BRANCH   1  21
ATOM     21  C   LIG    1       -5.689   1.997   2.688  0.00  0.00    +0.020 C 
ATOM     22  C   LIG    1       -6.966   1.190   3.007  0.00  0.00    +0.006 C 
ENDBRANCH   1  21
BRANCH   7  23
ATOM     23  O   LIG    1        0.365  -2.237   0.074  0.00  0.00    -0.495 OA
ATOM     24  C   LIG    1       -0.231  -3.530   0.075  0.00  0.00    +0.277 C 
ENDBRANCH   7  23
BRANCH   1  25
ATOM     25  C   LIG    1       -6.258   2.293   0.192  0.00  0.00    +0.024 C 
BRANCH  25  26
ATOM     26  C   LIG    1       -6.846   3.719   0.291  0.00  0.00    +0.002 C 
BRANCH  26  28
ATOM     27  C   LIG    1       -8.571   5.376  -0.631  0.00  0.00    +0.004 C 
ATOM     28  C   LIG    1       -7.971   3.967  -0.730  0.00  0.00    -0.003 C 
ENDBRANCH  26  28
ENDBRANCH  25  26
ENDBRANCH   1  25
BRANCH   8  29
ATOM     29  C   LIG    1        1.718   0.242   0.142  0.00  0.00    -0.043 C 
BRANCH  29  30
ATOM     30  N   LIG    1        2.271  -0.338   1.455  0.00  0.00    +0.384 N 
ATOM     31  H   LIG    1        1.908  -1.280   1.528  0.00  0.00    -0.085 HD
ATOM     32  H   LIG    1        1.915   0.184   2.243  0.00  0.00    -0.085 HD
BRANCH  30  33
ATOM     33  C   LIG    1        3.809  -0.447   1.561  0.00  0.00    -0.050 C 
BRANCH  33  34
ATOM     34  C   LIG    1        4.388   0.961   1.898  0.00  0.00    +0.105 C 
BRANCH  34  35
ATOM     35  C   LIG    1        5.925   1.075   1.777  0.00  0.00    +0.303 C 
ATOM     36  O   LIG    1        6.488   1.893   2.538  0.00  0.00    -0.251 OA
BRANCH  35  37
ATOM     37  O   LIG    1        6.522   0.396   0.910  0.00  0.00    -0.481 OA
ATOM     38  H   LIG    1        6.043  -0.201   0.370  0.00  0.00    +0.295 HD
ENDBRANCH  35  37
ENDBRANCH  34  35
ENDBRANCH  33  34
BRANCH  33  39
ATOM     39  C   LIG    1        4.174  -1.544   2.614  0.00  0.00    +0.105 C 
BRANCH  39  40
ATOM     40  C   LIG    1        3.596  -2.959   2.346  0.00  0.00    +0.303 C 
ATOM     41  O   LIG    1        3.448  -3.343   1.163  0.00  0.00    -0.251 OA
BRANCH  40  42
ATOM     42  O   LIG    1        3.321  -3.655   3.349  0.00  0.00    -0.481 OA
ATOM     43  H   LIG    1        3.454  -3.310   4.210  0.00  0.00    +0.295 HD
ENDBRANCH  40  42
ENDBRANCH  39  40
ENDBRANCH  33  39
ENDBRANCH  30  33
ENDBRANCH  29  30
ENDBRANCH   8  29
TORSDOF 15
