REMARK  Name = DB11846
REMARK                            x       y       z     vdW  Elec       q    Type
REMARK                         _______ _______ _______ _____ _____    ______ ____
ROOT
ATOM      1  N   LIG    1       -0.792   1.104   0.000  0.00  0.00    -0.250 NA
ATOM      2  H   LIG    1       -0.485   2.065   0.000  0.00  0.00    +0.128 HD
ATOM      3  C   LIG    1       -2.110   0.696   0.000  0.00  0.00    +0.182 C 
ATOM      4  C   LIG    1       -2.108  -0.692   0.000  0.00  0.00    +0.132 C 
ATOM      5  N   LIG    1       -0.786  -1.127   0.000  0.00  0.00    -0.263 NA
ATOM      6  C   LIG    1       -0.359  -2.520   0.000  0.00  0.00    +0.108 C 
ATOM      7  C   LIG    1        0.029  -0.001   0.000  0.00  0.00    +0.175 C 
ENDROOT
BRANCH   7   8
ATOM      8  N   LIG    1        1.383   0.039   0.000  0.00  0.00    -0.297 NA
ATOM      9  H   LIG    1        1.870   0.924  -0.000  0.00  0.00    +0.121 HD
ATOM     10  H   LIG    1        1.922  -0.815   0.000  0.00  0.00    +0.121 HD
ENDBRANCH   7   8
BRANCH   3  11
ATOM     11  O   LIG    1       -3.079   1.512   0.000  0.00  0.00    -0.369 OA
ATOM     12  H   LIG    1       -2.736   2.420   0.000  0.00  0.00    +0.212 HD
ENDBRANCH   3  11
TORSDOF 2
