REMARK  Name = DB11779
REMARK                            x       y       z     vdW  Elec       q    Type
REMARK                         _______ _______ _______ _____ _____    ______ ____
ROOT
ATOM      1  C   LIG    1        3.795   2.763   3.670  0.00  0.00    +0.162 C 
ATOM      2  C   LIG    1        2.665   2.570   2.598  0.00  0.00    +0.237 C 
ATOM      3  O   LIG    1        2.984   1.956   1.579  0.00  0.00    -0.274 OA
ATOM      4  N   LIG    1        1.375   2.981   2.794  0.00  0.00    -0.285 N 
ATOM      5  C   LIG    1        0.945   3.979   3.781  0.00  0.00    +0.153 C 
ATOM      6  C   LIG    1       -0.472   4.363   3.356  0.00  0.00    +0.198 C 
ATOM      7  C   LIG    1       -1.009   3.119   2.670  0.00  0.00    +0.078 C 
ATOM      8  C   LIG    1        0.221   2.460   2.015  0.00  0.00    +0.166 C 
ATOM      9  C   LIG    1        0.287   2.752   0.493  0.00  0.00    +0.234 C 
ATOM     10  O   LIG    1        0.330   3.919   0.105  0.00  0.00    -0.274 OA
ATOM     11  N   LIG    1        0.229   1.743  -0.398  0.00  0.00    -0.299 N 
ATOM     12  H   LIG    1        0.271   2.018  -1.369  0.00  0.00    +0.150 HD
ATOM     13  C   LIG    1        0.347   0.287  -0.191  0.00  0.00    +0.119 C 
ATOM     14  C   LIG    1       -0.793  -0.550  -0.738  0.00  0.00    +0.046 C 
ATOM     15  C   LIG    1       -0.626  -0.448   0.759  0.00  0.00    +0.046 C 
ATOM     16  C   LIG    1       -0.347  -1.769   1.473  0.00  0.00    -0.025 C 
ATOM     17  C   LIG    1        0.355  -1.949   2.609  0.00  0.00    -0.031 C 
ATOM     18  C   LIG    1        1.111  -0.882   3.381  0.00  0.00    +0.027 C 
ATOM     19  C   LIG    1        2.268  -1.418   4.252  0.00  0.00    +0.004 C 
ATOM     20  C   LIG    1        3.236  -0.306   4.713  0.00  0.00    +0.000 C 
ATOM     21  C   LIG    1        4.253   0.101   3.619  0.00  0.00    +0.002 C 
ATOM     22  C   LIG    1        4.807   1.555   3.661  0.00  0.00    +0.032 C 
ENDROOT
BRANCH   1  24
ATOM     23  C   LIG    1        4.056   3.544   6.072  0.00  0.00    +0.401 C 
ATOM     24  N   LIG    1        3.293   3.002   5.037  0.00  0.00    -0.270 N 
ATOM     25  H   LIG    1        2.384   2.626   5.264  0.00  0.00    +0.153 HD
ATOM     26  O   LIG    1        3.653   3.635   7.230  0.00  0.00    -0.226 OA
BRANCH  23  27
ATOM     27  O   LIG    1        5.285   3.967   5.641  0.00  0.00    -0.445 OA
BRANCH  27  29
ATOM     28  C   LIG    1        6.794   3.485   7.529  0.00  0.00    +0.055 C 
ATOM     29  C   LIG    1        6.321   4.516   6.475  0.00  0.00    +0.107 C 
ATOM     30  C   LIG    1        7.477   4.811   5.497  0.00  0.00    +0.055 C 
ATOM     31  C   LIG    1        5.869   5.834   7.150  0.00  0.00    +0.055 C 
ENDBRANCH  27  29
ENDBRANCH  23  27
ENDBRANCH   1  24
BRANCH  13  32
ATOM     32  C   LIG    1        1.734  -0.313  -0.536  0.00  0.00    +0.256 C 
ATOM     33  N   LIG    1        2.154  -0.141  -1.767  0.00  0.00    -0.188 N 
ATOM     34  H   LIG    1        1.576   0.317  -2.419  0.00  0.00    +0.176 HD
ATOM     35  O   LIG    1        2.347  -0.896   0.362  0.00  0.00    -0.272 OA
BRANCH  33  36
ATOM     36  S   LIG    1        3.571  -0.660  -2.213  0.00  0.00    +0.048 S 
ATOM     37  O   LIG    1        3.602  -2.117  -2.389  0.00  0.00    -0.155 OA
ATOM     38  O   LIG    1        4.668  -0.067  -1.439  0.00  0.00    -0.155 OA
BRANCH  36  39
ATOM     39  C   LIG    1        3.815   0.033  -3.973  0.00  0.00    +0.151 C 
ATOM     40  C   LIG    1        2.599   0.193  -4.857  0.00  0.00    +0.030 C 
ATOM     41  C   LIG    1        3.278   1.414  -4.270  0.00  0.00    +0.030 C 
ENDBRANCH  36  39
ENDBRANCH  33  36
ENDBRANCH  13  32
BRANCH   6  42
ATOM     42  O   LIG    1       -1.293   4.698   4.475  0.00  0.00    -0.445 OA
BRANCH  42  43
ATOM     43  C   LIG    1       -1.173   5.890   5.123  0.00  0.00    +0.404 C 
ATOM     44  N   LIG    1       -2.061   5.976   6.199  0.00  0.00    -0.259 N 
ATOM     45  C   LIG    1       -2.070   7.120   7.107  0.00  0.00    +0.149 C 
ATOM     46  C   LIG    1       -3.289   6.855   7.956  0.00  0.00    +0.010 A 
ATOM     47  C   LIG    1       -3.907   7.670   8.908  0.00  0.00    +0.128 A 
ATOM     48  F   LIG    1       -3.414   8.900   9.177  0.00  0.00    -0.205 F 
ATOM     49  C   LIG    1       -5.038   7.211   9.585  0.00  0.00    +0.039 A 
ATOM     50  C   LIG    1       -5.549   5.940   9.311  0.00  0.00    +0.003 A 
ATOM     51  C   LIG    1       -4.930   5.127   8.360  0.00  0.00    +0.006 A 
ATOM     52  C   LIG    1       -3.801   5.590   7.681  0.00  0.00    -0.023 A 
ATOM     53  C   LIG    1       -2.961   4.906   6.631  0.00  0.00    +0.147 C 
ATOM     54  O   LIG    1       -0.376   6.772   4.793  0.00  0.00    -0.226 OA
ENDBRANCH  42  43
ENDBRANCH   6  42
TORSDOF 8
