REMARK  Name = DB11860
REMARK                            x       y       z     vdW  Elec       q    Type
REMARK                         _______ _______ _______ _____ _____    ______ ____
ROOT
ATOM      1  C   LIG    1        3.389  -5.892  -2.251  0.00  0.00    +0.073 C 
ATOM      2  C   LIG    1        2.749  -7.105  -1.543  0.00  0.00    +0.026 C 
ATOM      3  C   LIG    1        3.731  -7.854  -0.589  0.00  0.00    -0.001 C 
ATOM      4  C   LIG    1        3.051  -9.019   0.185  0.00  0.00    +0.035 C 
ATOM      5  C   LIG    1        2.729 -10.268  -0.670  0.00  0.00    +0.118 C 
ATOM      6  C   LIG    1        3.965 -10.744  -1.496  0.00  0.00    +0.025 C 
ATOM      7  C   LIG    1        3.614 -11.894  -2.487  0.00  0.00    +0.003 C 
ATOM      8  C   LIG    1        2.870 -13.122  -1.958  0.00  0.00    +0.005 C 
ATOM      9  C   LIG    1        3.103 -14.193  -3.036  0.00  0.00    +0.005 C 
ATOM     10  C   LIG    1        4.124 -13.622  -4.063  0.00  0.00    +0.001 C 
ATOM     11  C   LIG    1        4.830 -12.461  -3.271  0.00  0.00    +0.000 C 
ATOM     12  C   LIG    1        5.925 -13.059  -2.328  0.00  0.00    +0.014 C 
ATOM     13  C   LIG    1        5.443 -11.278  -4.099  0.00  0.00    +0.121 C 
ATOM     14  C   LIG    1        5.790 -10.065  -3.194  0.00  0.00    +0.036 C 
ATOM     15  C   LIG    1        4.618  -9.559  -2.293  0.00  0.00    +0.003 C 
ATOM     16  C   LIG    1        5.015  -8.354  -1.350  0.00  0.00    -0.026 C 
ATOM     17  C   LIG    1        6.090  -8.770  -0.299  0.00  0.00    +0.012 C 
ATOM     18  C   LIG    1        5.619  -7.132  -2.122  0.00  0.00    +0.009 C 
ATOM     19  C   LIG    1        4.609  -6.420  -3.046  0.00  0.00    +0.023 C 
ENDROOT
BRANCH   1  21
ATOM     20  C   LIG    1        3.960  -3.547  -1.601  0.00  0.00    +0.213 C 
ATOM     21  N   LIG    1        3.740  -4.837  -1.292  0.00  0.00    -0.312 N 
ATOM     22  H   LIG    1        3.954  -5.145  -0.355  0.00  0.00    +0.149 HD
ATOM     23  O   LIG    1        3.865  -3.098  -2.745  0.00  0.00    -0.276 OA
BRANCH  20  24
ATOM     24  C   LIG    1        4.363  -2.626  -0.439  0.00  0.00    +0.096 C 
BRANCH  24  25
ATOM     25  C   LIG    1        3.740  -1.210  -0.487  0.00  0.00    +0.009 C 
BRANCH  25  26
ATOM     26  C   LIG    1        2.203  -1.184  -0.362  0.00  0.00    +0.000 C 
BRANCH  26  27
ATOM     27  C   LIG    1        1.623   0.242  -0.334  0.00  0.00    +0.000 C 
BRANCH  27  28
ATOM     28  C   LIG    1        0.090   0.257  -0.201  0.00  0.00    +0.000 C 
BRANCH  28  29
ATOM     29  C   LIG    1       -0.502   1.677  -0.131  0.00  0.00    +0.000 C 
BRANCH  29  30
ATOM     30  C   LIG    1       -2.034   1.670   0.017  0.00  0.00    -0.000 C 
BRANCH  30  31
ATOM     31  C   LIG    1       -2.644   3.081   0.135  0.00  0.00    -0.000 C 
BRANCH  31  32
ATOM     32  C   LIG    1       -4.186   3.100   0.184  0.00  0.00    -0.000 C 
BRANCH  32  33
ATOM     33  C   LIG    1       -4.789   2.426   1.432  0.00  0.00    -0.000 C 
BRANCH  33  34
ATOM     34  C   LIG    1       -6.327   2.478   1.468  0.00  0.00    -0.000 C 
BRANCH  34  35
ATOM     35  C   LIG    1       -6.912   1.750   2.690  0.00  0.00    -0.000 C 
BRANCH  35  36
ATOM     36  C   LIG    1       -8.451   1.735   2.708  0.00  0.00    -0.000 C 
BRANCH  36  37
ATOM     37  C   LIG    1       -9.021   0.968   3.915  0.00  0.00    -0.000 C 
BRANCH  37  38
ATOM     38  C   LIG    1      -10.558   0.903   3.918  0.00  0.00    -0.000 C 
BRANCH  38  39
ATOM     39  C   LIG    1      -11.119   0.111   5.112  0.00  0.00    -0.000 C 
BRANCH  39  40
ATOM     40  C   LIG    1      -12.655   0.016   5.104  0.00  0.00    -0.000 C 
BRANCH  40  42
ATOM     41  C   LIG    1      -14.743  -0.888   6.281  0.00  0.00    +0.004 C 
ATOM     42  C   LIG    1      -13.212  -0.785   6.294  0.00  0.00    -0.003 C 
ENDBRANCH  40  42
ENDBRANCH  39  40
ENDBRANCH  38  39
ENDBRANCH  37  38
ENDBRANCH  36  37
ENDBRANCH  35  36
ENDBRANCH  34  35
ENDBRANCH  33  34
ENDBRANCH  32  33
ENDBRANCH  31  32
ENDBRANCH  30  31
ENDBRANCH  29  30
ENDBRANCH  28  29
ENDBRANCH  27  28
ENDBRANCH  26  27
ENDBRANCH  25  26
ENDBRANCH  24  25
ENDBRANCH  20  24
ENDBRANCH   1  21
BRANCH   5  43
ATOM     43  O   LIG    1        1.582 -10.041  -1.471  0.00  0.00    -0.391 OA
ATOM     44  H   LIG    1        1.373 -10.854  -1.938  0.00  0.00    +0.210 HD
ENDBRANCH   5  43
BRANCH  10  45
ATOM     45  C   LIG    1        5.005 -14.730  -4.740  0.00  0.00    -0.010 C 
ATOM     46  C   LIG    1        6.071 -14.155  -5.699  0.00  0.00    +0.008 C 
BRANCH  45  47
ATOM     47  C   LIG    1        4.122 -15.781  -5.475  0.00  0.00    +0.014 C 
BRANCH  47  48
ATOM     48  C   LIG    1        4.882 -17.040  -5.983  0.00  0.00    +0.121 C 
BRANCH  48  49
ATOM     49  C   LIG    1        3.973 -18.226  -6.389  0.00  0.00    +0.305 C 
ATOM     50  O   LIG    1        4.517 -19.353  -6.433  0.00  0.00    -0.251 OA
BRANCH  49  51
ATOM     51  O   LIG    1        2.773 -18.017  -6.685  0.00  0.00    -0.481 OA
ATOM     52  H   LIG    1        2.422 -17.150  -6.633  0.00  0.00    +0.295 HD
ENDBRANCH  49  51
ENDBRANCH  48  49
ENDBRANCH  47  48
ENDBRANCH  45  47
ENDBRANCH  10  45
BRANCH  13  53
ATOM     53  O   LIG    1        4.582 -10.869  -5.150  0.00  0.00    -0.391 OA
ATOM     54  H   LIG    1        5.013 -10.167  -5.642  0.00  0.00    +0.210 HD
ENDBRANCH  13  53
TORSDOF 26
