REMARK  Name = DB11664
REMARK                            x       y       z     vdW  Elec       q    Type
REMARK                         _______ _______ _______ _____ _____    ______ ____
ROOT
ATOM      1  C   LIG    1        3.941  -4.264   1.146  0.00  0.00    +0.026 A 
ATOM      2  C   LIG    1        3.106  -3.533   0.294  0.00  0.00    +0.050 A 
ATOM      3  N   LIG    1        2.440  -3.905  -0.853  0.00  0.00    -0.360 N 
ATOM      4  H   LIG    1        2.442  -4.810  -1.299  0.00  0.00    +0.165 HD
ATOM      5  C   LIG    1        1.731  -2.840  -1.345  0.00  0.00    +0.087 A 
ATOM      6  C   LIG    1        1.906  -1.731  -0.538  0.00  0.00    -0.021 A 
ATOM      7  C   LIG    1        2.793  -2.157   0.518  0.00  0.00    +0.045 A 
ATOM      8  C   LIG    1        3.361  -1.522   1.638  0.00  0.00    +0.141 A 
ATOM      9  C   LIG    1        4.185  -2.251   2.497  0.00  0.00    +0.047 A 
ATOM     10  C   LIG    1        4.466  -3.591   2.249  0.00  0.00    +0.006 A 
ENDROOT
BRANCH   6  11
ATOM     11  C   LIG    1        1.299  -0.355  -0.706  0.00  0.00    +0.019 C 
BRANCH  11  12
ATOM     12  C   LIG    1        0.176  -0.101   0.321  0.00  0.00    -0.075 C 
BRANCH  12  13
ATOM     13  N   LIG    1       -0.403   1.327   0.195  0.00  0.00    +0.376 N 
ATOM     14  H   LIG    1       -0.573   1.497  -0.786  0.00  0.00    -0.083 HD
ATOM     15  C   LIG    1        0.566   2.416   0.701  0.00  0.00    -0.097 C 
ATOM     16  C   LIG    1       -1.759   1.443   0.918  0.00  0.00    -0.097 C 
ENDBRANCH  12  13
ENDBRANCH  11  12
ENDBRANCH   6  11
BRANCH   8  17
ATOM     17  O   LIG    1        3.040  -0.201   1.820  0.00  0.00    -0.403 OA
BRANCH  17  18
ATOM     18  P   LIG    1        3.741   1.007   2.893  0.00  0.00    +0.528 P 
ATOM     19  O   LIG    1        2.991   0.852   4.228  0.00  0.00    -0.216 OA
BRANCH  18  20
ATOM     20  O   LIG    1        5.243   0.686   3.001  0.00  0.00    -0.293 OA
ATOM     21  H   LIG    1        5.662   0.800   2.134  0.00  0.00    +0.223 HD
ENDBRANCH  18  20
BRANCH  18  22
ATOM     22  O   LIG    1        3.470   2.359   2.209  0.00  0.00    -0.293 OA
ATOM     23  H   LIG    1        2.514   2.514   2.166  0.00  0.00    +0.223 HD
ENDBRANCH  18  22
ENDBRANCH  17  18
ENDBRANCH   8  17
TORSDOF 7
