REMARK  Name = DB11831
REMARK                            x       y       z     vdW  Elec       q    Type
REMARK                         _______ _______ _______ _____ _____    ______ ____
ROOT
ATOM      1  C   LIG    1       -0.701   1.215   0.000  0.00  0.00    +0.034 A 
ATOM      2  C   LIG    1        0.012   0.007   0.000  0.00  0.00    +0.124 A 
ATOM      3  C   LIG    1       -0.711  -1.196   0.000  0.00  0.00    +0.066 A 
ATOM      4  C   LIG    1       -2.110  -1.197   0.000  0.00  0.00    +0.142 A 
ATOM      5  C   LIG    1       -2.804   0.020   0.000  0.00  0.00    +0.071 A 
ATOM      6 CL   LIG    1       -4.533   0.066   0.000  0.00  0.00    -0.081 Cl
ATOM      7  C   LIG    1       -2.095   1.220   0.000  0.00  0.00    +0.024 A 
ENDROOT
BRANCH   2   8
ATOM      8  N   LIG    1        1.496   0.002   0.000  0.00  0.00    +0.006 N 
ATOM      9  O   LIG    1        2.080  -1.078   0.000  0.00  0.00    -0.130 OA
BRANCH   8  10
ATOM     10  O   LIG    1        2.087   1.078   0.000  0.00  0.00    -0.396 OA
ATOM     11  H   LIG    1        1.601   1.879   0.000  0.00  0.00    +0.329 HD
ENDBRANCH   8  10
ENDBRANCH   2   8
BRANCH   4  12
ATOM     12  N   LIG    1       -2.828  -2.476   0.000  0.00  0.00    +0.007 N 
ATOM     13  O   LIG    1       -3.106  -2.969   1.087  0.00  0.00    -0.130 OA
BRANCH  12  14
ATOM     14  O   LIG    1       -3.106  -2.969  -1.087  0.00  0.00    -0.396 OA
ATOM     15  H   LIG    1       -2.859  -2.531  -1.878  0.00  0.00    +0.329 HD
ENDBRANCH  12  14
ENDBRANCH   4  12
TORSDOF 4
