REMARK  Name = DB11502
REMARK                            x       y       z     vdW  Elec       q    Type
REMARK                         _______ _______ _______ _____ _____    ______ ____
ROOT
ATOM      1  O   LIG    1       -2.556   0.961  -1.052  0.00  0.00    -0.461 OA
ENDROOT
BRANCH   1   2
ATOM      2  C   LIG    1       -3.907   0.896  -1.149  0.00  0.00    +0.339 C 
ATOM      3  O   LIG    1       -4.675   1.384  -0.314  0.00  0.00    -0.245 OA
BRANCH   2   4
ATOM      4  C   LIG    1       -4.376   0.172  -2.378  0.00  0.00    +0.059 A 
ATOM      5  C   LIG    1       -5.753   0.042  -2.612  0.00  0.00    +0.017 A 
ATOM      6  C   LIG    1       -6.219  -0.624  -3.743  0.00  0.00    +0.023 A 
ATOM      7  C   LIG    1       -5.312  -1.168  -4.649  0.00  0.00    +0.025 A 
ATOM      8  C   LIG    1       -3.942  -1.050  -4.431  0.00  0.00    +0.023 A 
ATOM      9  C   LIG    1       -3.475  -0.384  -3.301  0.00  0.00    +0.017 A 
BRANCH   7  10
ATOM     10  N   LIG    1       -5.780  -1.834  -5.782  0.00  0.00    -0.358 N 
ATOM     11  H   LIG    1       -5.119  -2.216  -6.442  0.00  0.00    +0.142 HD
ATOM     12  H   LIG    1       -6.774  -1.904  -5.941  0.00  0.00    +0.142 HD
ENDBRANCH   7  10
ENDBRANCH   2   4
ENDBRANCH   1   2
BRANCH   1  13
ATOM     13  C   LIG    1       -1.926   1.595   0.055  0.00  0.00    +0.234 C 
BRANCH  13  14
ATOM     14  C   LIG    1       -0.398   1.481  -0.066  0.00  0.00    +0.056 C 
BRANCH  14  15
ATOM     15  C   LIG    1        0.098   0.019  -0.079  0.00  0.00    +0.087 C 
BRANCH  15  16
ATOM     16  N   LIG    1        1.561  -0.143  -0.016  0.00  0.00    -0.302 NA
BRANCH  16  17
ATOM     17  C   LIG    1        2.236   0.458  -1.178  0.00  0.00    +0.084 C 
BRANCH  17  18
ATOM     18  C   LIG    1        2.776   1.871  -0.868  0.00  0.00    +0.015 C 
BRANCH  18  19
ATOM     19  C   LIG    1        3.146   2.663  -2.133  0.00  0.00    -0.002 C 
ATOM     20  C   LIG    1        3.742   4.043  -1.822  0.00  0.00    +0.004 C 
ENDBRANCH  18  19
ENDBRANCH  17  18
ENDBRANCH  16  17
BRANCH  16  21
ATOM     21  C   LIG    1        1.926  -1.564   0.092  0.00  0.00    +0.084 C 
BRANCH  21  22
ATOM     22  C   LIG    1        1.462  -2.257   1.395  0.00  0.00    +0.015 C 
BRANCH  22  23
ATOM     23  C   LIG    1        1.941  -1.574   2.691  0.00  0.00    -0.002 C 
ATOM     24  C   LIG    1        1.517  -2.331   3.957  0.00  0.00    +0.004 C 
ENDBRANCH  22  23
ENDBRANCH  21  22
ENDBRANCH  16  21
ENDBRANCH  15  16
ENDBRANCH  14  15
ENDBRANCH  13  14
ENDBRANCH   1  13
TORSDOF 13
