REMARK  Name = DB11644
REMARK                            x       y       z     vdW  Elec       q    Type
REMARK                         _______ _______ _______ _____ _____    ______ ____
ROOT
ATOM      1  C   LIG    1        1.481  -0.065   0.000  0.00  0.00    +0.228 A 
ATOM      2  O   LIG    1        2.092  -1.291   0.000  0.00  0.00    -0.435 OA
ATOM      3  C   LIG    1        3.419  -0.993   0.000  0.00  0.00    +0.156 A 
ATOM      4  C   LIG    1        4.511  -1.864   0.000  0.00  0.00    +0.063 A 
ATOM      5  C   LIG    1        5.794  -1.284   0.000  0.00  0.00    +0.062 A 
ATOM      6  C   LIG    1        5.927   0.118   0.000  0.00  0.00    +0.017 A 
ATOM      7  C   LIG    1        4.821   0.976   0.000  0.00  0.00    +0.032 A 
ATOM      8  C   LIG    1        3.544   0.402   0.000  0.00  0.00    +0.110 A 
ATOM      9  N   LIG    1        2.301   0.970   0.000  0.00  0.00    -0.209 NA
ENDROOT
BRANCH   1  17
ATOM     10  C   LIG    1       -0.693   1.202   0.000  0.00  0.00    +0.033 A 
ATOM     11  C   LIG    1       -2.088   1.242   0.000  0.00  0.00    +0.043 A 
ATOM     12 CL   LIG    1       -2.909   2.761   0.000  0.00  0.00    -0.083 Cl
ATOM     13  C   LIG    1       -2.820   0.055   0.000  0.00  0.00    +0.040 A 
ATOM     14  C   LIG    1       -2.156  -1.172   0.000  0.00  0.00    +0.043 A 
ATOM     15 CL   LIG    1       -3.059  -2.643   0.000  0.00  0.00    -0.083 Cl
ATOM     16  C   LIG    1       -0.760  -1.210   0.000  0.00  0.00    +0.033 A 
ATOM     17  C   LIG    1       -0.014  -0.024   0.000  0.00  0.00    +0.040 A 
ENDBRANCH   1  17
BRANCH   5  18
ATOM     18  C   LIG    1        7.033  -2.151   0.000  0.00  0.00    +0.337 C 
ATOM     19  O   LIG    1        8.169  -1.676   0.000  0.00  0.00    -0.245 OA
BRANCH  18  20
ATOM     20  O   LIG    1        6.801  -3.498   0.000  0.00  0.00    -0.477 OA
ATOM     21  H   LIG    1        7.615  -4.006   0.000  0.00  0.00    +0.295 HD
ENDBRANCH  18  20
ENDBRANCH   5  18
TORSDOF 3
