REMARK  Name = DB11121
REMARK                            x       y       z     vdW  Elec       q    Type
REMARK                         _______ _______ _______ _____ _____    ______ ____
ROOT
ATOM      1  C   LIG    1       -0.043  -0.064   0.000  0.00  0.00    +0.045 C 
ATOM      2  C   LIG    1        1.480   0.021   0.000  0.00  0.00    -0.028 A 
ATOM      3  C   LIG    1        2.177   1.245   0.000  0.00  0.00    +0.047 A 
ATOM      4 CL   LIG    1        1.306   2.747   0.000  0.00  0.00    -0.083 Cl
ATOM      5  C   LIG    1        3.587   1.243   0.000  0.00  0.00    -0.028 A 
ATOM      6  C   LIG    1        4.415   2.522   0.000  0.00  0.00    +0.045 C 
ATOM      7  C   LIG    1        4.276   0.027   0.000  0.00  0.00    +0.050 A 
ATOM      8  C   LIG    1        3.584  -1.181   0.000  0.00  0.00    +0.117 A 
ATOM      9  C   LIG    1        2.192  -1.181   0.000  0.00  0.00    +0.050 A 
ENDROOT
BRANCH   8  10
ATOM     10  O   LIG    1        4.269  -2.367   0.000  0.00  0.00    -0.507 OA
ATOM     11  H   LIG    1        5.221  -2.250   0.000  0.00  0.00    +0.292 HD
ENDBRANCH   8  10
TORSDOF 1
