REMARK  Name = DB11927
REMARK                            x       y       z     vdW  Elec       q    Type
REMARK                         _______ _______ _______ _____ _____    ______ ____
ROOT
ATOM      1  C   LIG    1        1.720  -0.422   2.020  0.00  0.00    +0.510 C 
ATOM      2  O   LIG    1        1.851   0.260   3.041  0.00  0.00    -0.203 OA
ENDROOT
BRANCH   1   3
ATOM      3  O   LIG    1        0.639  -0.453   1.214  0.00  0.00    -0.432 OA
BRANCH   3   4
ATOM      4  C   LIG    1       -0.438   0.469   1.373  0.00  0.00    +0.251 C 
BRANCH   4   5
ATOM      5  C   LIG    1       -0.086   1.878   0.834  0.00  0.00    +0.125 C 
BRANCH   5   9
ATOM      6  N   LIG    1        0.442   2.743  -3.299  0.00  0.00    -0.174 NA
ATOM      7  C   LIG    1        1.523   3.104  -2.353  0.00  0.00    +0.125 C 
ATOM      8  C   LIG    1        0.949   3.172  -0.919  0.00  0.00    +0.101 C 
ATOM      9  N   LIG    1        0.364   1.866  -0.563  0.00  0.00    -0.297 NA
ATOM     10  C   LIG    1       -0.724   1.515  -1.497  0.00  0.00    +0.101 C 
ATOM     11  C   LIG    1       -0.167   1.442  -2.938  0.00  0.00    +0.125 C 
BRANCH   6  12
ATOM     12  S   LIG    1        0.840   2.933  -5.013  0.00  0.00    +0.061 S 
ATOM     13  O   LIG    1        2.181   2.380  -5.236  0.00  0.00    -0.153 OA
ATOM     14  O   LIG    1       -0.301   2.448  -5.799  0.00  0.00    -0.153 OA
BRANCH  12  19
ATOM     15  C   LIG    1       -0.232   6.834  -5.554  0.00  0.00    +0.061 A 
ATOM     16  C   LIG    1        1.018   7.492  -5.651  0.00  0.00    +0.131 A 
ATOM     17  C   LIG    1        2.196   6.730  -5.553  0.00  0.00    +0.048 A 
ATOM     18  C   LIG    1        2.148   5.353  -5.365  0.00  0.00    +0.032 A 
ATOM     19  C   LIG    1        0.919   4.704  -5.271  0.00  0.00    +0.106 A 
ATOM     20  C   LIG    1       -0.260   5.442  -5.365  0.00  0.00    +0.043 A 
BRANCH  15  29
ATOM     21  C   LIG    1       -3.320  10.704  -5.107  0.00  0.00    +0.089 A 
ATOM     22  N   LIG    1       -4.585  10.866  -5.450  0.00  0.00    -0.174 NA
ATOM     23  N   LIG    1       -4.997   9.680  -5.930  0.00  0.00    -0.260 N 
ATOM     24  C   LIG    1       -6.353   9.552  -6.445  0.00  0.00    +0.173 C 
ATOM     25  C   LIG    1       -3.985   8.755  -5.939  0.00  0.00    +0.151 A 
ATOM     26  C   LIG    1       -3.905   7.377  -6.399  0.00  0.00    +0.278 A 
ATOM     27  N   LIG    1       -2.624   6.920  -6.195  0.00  0.00    -0.305 N 
ATOM     28  H   LIG    1       -2.477   5.971  -6.507  0.00  0.00    +0.170 HD
ATOM     29  C   LIG    1       -1.519   7.568  -5.641  0.00  0.00    +0.145 A 
ATOM     30  N   LIG    1       -1.680   8.790  -5.226  0.00  0.00    -0.225 NA
ATOM     31  O   LIG    1       -4.781   6.678  -6.904  0.00  0.00    -0.265 OA
ATOM     32  C   LIG    1       -2.892   9.397  -5.385  0.00  0.00    +0.119 A 
BRANCH  21  33
ATOM     33  C   LIG    1       -2.526  11.857  -4.524  0.00  0.00    +0.059 C 
BRANCH  33  35
ATOM     34  C   LIG    1       -0.945  13.804  -5.041  0.00  0.00    +0.004 C 
ATOM     35  C   LIG    1       -1.780  12.650  -5.611  0.00  0.00    +0.003 C 
ENDBRANCH  33  35
ENDBRANCH  21  33
ENDBRANCH  15  29
BRANCH  16  36
ATOM     36  O   LIG    1        1.038   8.863  -5.858  0.00  0.00    -0.492 OA
BRANCH  36  37
ATOM     37  C   LIG    1        2.273   9.571  -5.899  0.00  0.00    +0.226 C 
ATOM     38  C   LIG    1        1.968  11.066  -6.032  0.00  0.00    +0.048 C 
ENDBRANCH  36  37
ENDBRANCH  16  36
ENDBRANCH  12  19
ENDBRANCH   6  12
ENDBRANCH   5   9
ENDBRANCH   4   5
ENDBRANCH   3   4
ENDBRANCH   1   3
BRANCH   1  39
ATOM     39  O   LIG    1        2.648  -1.236   1.476  0.00  0.00    -0.432 OA
BRANCH  39  40
ATOM     40  C   LIG    1        3.975  -1.334   1.997  0.00  0.00    +0.251 C 
BRANCH  40  41
ATOM     41  C   LIG    1        4.814  -0.036   1.860  0.00  0.00    +0.125 C 
BRANCH  41  42
ATOM     42  N   LIG    1        4.691   0.619   0.552  0.00  0.00    -0.297 NA
ATOM     43  C   LIG    1        5.389   1.918   0.567  0.00  0.00    +0.101 C 
ATOM     44  C   LIG    1        5.112   2.663  -0.758  0.00  0.00    +0.125 C 
ATOM     45  N   LIG    1        5.552   1.827  -1.900  0.00  0.00    -0.174 NA
ATOM     46  C   LIG    1        4.887   0.502  -1.900  0.00  0.00    +0.125 C 
ATOM     47  C   LIG    1        5.174  -0.219  -0.562  0.00  0.00    +0.101 C 
BRANCH  45  48
ATOM     48  S   LIG    1        5.625   2.653  -3.463  0.00  0.00    +0.061 S 
ATOM     49  O   LIG    1        4.519   3.616  -3.525  0.00  0.00    -0.153 OA
ATOM     50  O   LIG    1        5.793   1.643  -4.514  0.00  0.00    -0.153 OA
BRANCH  48  51
ATOM     51  C   LIG    1        7.153   3.581  -3.404  0.00  0.00    +0.106 A 
ATOM     52  C   LIG    1        8.367   2.910  -3.532  0.00  0.00    +0.043 A 
ATOM     53  C   LIG    1        9.588   3.603  -3.484  0.00  0.00    +0.061 A 
ATOM     54  C   LIG    1        9.577   5.009  -3.321  0.00  0.00    +0.131 A 
ATOM     55  C   LIG    1        8.341   5.665  -3.179  0.00  0.00    +0.048 A 
ATOM     56  C   LIG    1        7.142   4.960  -3.217  0.00  0.00    +0.032 A 
BRANCH  53  57
ATOM     57  C   LIG    1       10.848   2.828  -3.598  0.00  0.00    +0.145 A 
ATOM     58  N   LIG    1       11.955   3.156  -2.998  0.00  0.00    -0.225 NA
ATOM     59  C   LIG    1       13.064   2.380  -3.169  0.00  0.00    +0.119 A 
ATOM     60  C   LIG    1       14.377   2.514  -2.690  0.00  0.00    +0.089 A 
ATOM     61  N   LIG    1       15.137   1.523  -3.122  0.00  0.00    -0.174 NA
ATOM     62  N   LIG    1       14.340   0.734  -3.862  0.00  0.00    -0.260 N 
ATOM     63  C   LIG    1       14.908  -0.431  -4.524  0.00  0.00    +0.173 C 
ATOM     64  C   LIG    1       13.064   1.232  -3.943  0.00  0.00    +0.151 A 
ATOM     65  C   LIG    1       11.869   0.784  -4.641  0.00  0.00    +0.278 A 
ATOM     66  O   LIG    1       11.715  -0.202  -5.358  0.00  0.00    -0.265 OA
ATOM     67  N   LIG    1       10.852   1.673  -4.383  0.00  0.00    -0.305 N 
ATOM     68  H   LIG    1        9.984   1.440  -4.842  0.00  0.00    +0.170 HD
BRANCH  60  69
ATOM     69  C   LIG    1       14.964   3.599  -1.809  0.00  0.00    +0.059 C 
BRANCH  69  70
ATOM     70  C   LIG    1       15.832   4.592  -2.604  0.00  0.00    +0.003 C 
ATOM     71  C   LIG    1       16.412   5.712  -1.729  0.00  0.00    +0.004 C 
ENDBRANCH  69  70
ENDBRANCH  60  69
ENDBRANCH  53  57
BRANCH  54  72
ATOM     72  O   LIG    1       10.787   5.689  -3.301  0.00  0.00    -0.492 OA
BRANCH  72  73
ATOM     73  C   LIG    1       10.845   7.115  -3.356  0.00  0.00    +0.226 C 
ATOM     74  C   LIG    1       10.480   7.658  -4.748  0.00  0.00    +0.048 C 
ENDBRANCH  72  73
ENDBRANCH  54  72
ENDBRANCH  48  51
ENDBRANCH  45  48
ENDBRANCH  41  42
ENDBRANCH  40  41
ENDBRANCH  39  40
ENDBRANCH   1  39
TORSDOF 22
