REMARK  Name = DB11937
REMARK                            x       y       z     vdW  Elec       q    Type
REMARK                         _______ _______ _______ _____ _____    ______ ____
ROOT
ATOM      1  C   LIG    1       -4.772   1.677   0.000  0.00  0.00    +0.001 A 
ATOM      2  C   LIG    1       -4.202   0.404   0.000  0.00  0.00    +0.014 A 
ATOM      3  C   LIG    1       -2.808   0.239   0.000  0.00  0.00    +0.045 A 
ATOM      4  C   LIG    1       -2.203  -1.145   0.000  0.00  0.00    +0.190 A 
ATOM      5  O   LIG    1       -2.882  -2.171   0.000  0.00  0.00    -0.287 OA
ATOM      6  C   LIG    1       -0.731  -1.133   0.000  0.00  0.00    +0.084 A 
ATOM      7  CA  LIG    1        0.016   0.007   0.000  0.00  0.00    +0.128 A 
ATOM      8  N   LIG    1       -0.605   1.250   0.000  0.00  0.00    -0.349 N 
ATOM      9  H   LIG    1       -0.028   2.078   0.000  0.00  0.00    +0.166 HD
ATOM     10  C   LIG    1       -2.002   1.399   0.000  0.00  0.00    +0.051 A 
ATOM     11  C   LIG    1       -2.572   2.673   0.000  0.00  0.00    +0.026 A 
ATOM     12  C   LIG    1       -3.959   2.810   0.000  0.00  0.00    +0.002 A 
ENDROOT
BRANCH   7  13
ATOM     13  C   LIG    1        1.606   0.000   0.000  0.00  0.00    +0.353 C 
ATOM     14  OXT LIG    1        2.154  -1.128   0.000  0.00  0.00    -0.243 OA
BRANCH  13  15
ATOM     15  O   LIG    1        2.175   1.119   0.000  0.00  0.00    -0.476 OA
ATOM     16  H   LIG    1        3.111   1.169   0.000  0.00  0.00    +0.295 HD
ENDBRANCH  13  15
ENDBRANCH   7  13
TORSDOF 2
