REMARK  Name = DB11759
REMARK                            x       y       z     vdW  Elec       q    Type
REMARK                         _______ _______ _______ _____ _____    ______ ____
ROOT
ATOM      1  C   LIG    1        5.441   0.652  -5.711  0.00  0.00    +0.132 A 
ATOM      2  N   LIG    1        4.493   1.198  -6.523  0.00  0.00    -0.220 NA
ATOM      3  C   LIG    1        3.208   1.168  -6.090  0.00  0.00    +0.225 A 
ATOM      4  N   LIG    1        2.735   0.648  -4.928  0.00  0.00    -0.218 NA
ATOM      5  C   LIG    1        3.689   0.113  -4.153  0.00  0.00    +0.146 A 
ATOM      6  N   LIG    1        3.522  -0.499  -2.918  0.00  0.00    -0.329 N 
ATOM      7  C   LIG    1        4.770  -0.873  -2.458  0.00  0.00    +0.088 A 
ATOM      8  C   LIG    1        5.746  -0.558  -3.382  0.00  0.00    +0.032 A 
ATOM      9  C   LIG    1        5.079   0.080  -4.476  0.00  0.00    +0.059 A 
ENDROOT
BRANCH   6  10
ATOM     10  C   LIG    1        2.258  -0.646  -2.183  0.00  0.00    +0.092 C 
ATOM     11  C   LIG    1        2.088  -2.023  -1.500  0.00  0.00    +0.056 C 
ATOM     12  C   LIG    1        1.831  -1.734  -0.015  0.00  0.00    +0.122 C 
ATOM     13  C   LIG    1        1.322  -0.282   0.055  0.00  0.00    +0.048 C 
ATOM     14  C   LIG    1        2.104   0.411  -1.073  0.00  0.00    +0.033 C 
BRANCH  12  15
ATOM     15  O   LIG    1        1.110  -2.724   0.689  0.00  0.00    -0.391 OA
ATOM     16  H   LIG    1        1.718  -3.423   0.944  0.00  0.00    +0.210 HD
ENDBRANCH  12  15
BRANCH  13  17
ATOM     17  C   LIG    1       -0.212  -0.150  -0.078  0.00  0.00    +0.201 C 
BRANCH  17  18
ATOM     18  O   LIG    1       -0.578   1.219  -0.003  0.00  0.00    -0.225 OA
BRANCH  18  19
ATOM     19  S   LIG    1       -2.199   1.603  -0.124  0.00  0.00    +0.148 S 
ATOM     20  O   LIG    1       -2.312   3.064  -0.085  0.00  0.00    -0.130 OA
ATOM     21  O   LIG    1       -2.783   0.818  -1.218  0.00  0.00    -0.130 OA
BRANCH  19  22
ATOM     22  N   LIG    1       -2.818   0.973   1.392  0.00  0.00    -0.183 NA
ATOM     23  H   LIG    1       -3.067   1.661   2.108  0.00  0.00    +0.146 HD
ATOM     24  H   LIG    1       -3.401   0.134   1.339  0.00  0.00    +0.146 HD
ENDBRANCH  19  22
ENDBRANCH  18  19
ENDBRANCH  17  18
ENDBRANCH  13  17
ENDBRANCH   6  10
BRANCH   1  25
ATOM     25  N   LIG    1        6.791   0.652  -6.100  0.00  0.00    -0.322 N 
ATOM     26  H   LIG    1        7.478   0.225  -5.495  0.00  0.00    +0.148 HD
BRANCH  25  31
ATOM     27  C   LIG    1       11.478   0.735  -7.887  0.00  0.00    +0.000 A 
ATOM     28  C   LIG    1       10.900   1.963  -7.561  0.00  0.00    +0.004 A 
ATOM     29  C   LIG    1        9.512   2.069  -7.445  0.00  0.00    -0.042 A 
ATOM     30  C   LIG    1        8.707   0.937  -7.610  0.00  0.00    -0.024 A 
ATOM     31  C   LIG    1        7.250   1.266  -7.346  0.00  0.00    +0.103 C 
ATOM     32  C   LIG    1        7.242   2.804  -7.311  0.00  0.00    +0.032 C 
ATOM     33  C   LIG    1        9.290  -0.293  -7.924  0.00  0.00    +0.006 A 
ATOM     34  C   LIG    1        8.676   3.261  -7.039  0.00  0.00    +0.037 C 
ATOM     35  C   LIG    1       10.674  -0.390  -8.072  0.00  0.00    +0.000 A 
ENDBRANCH  25  31
ENDBRANCH   1  25
TORSDOF 8
