REMARK  Name = DB11950
REMARK                            x       y       z     vdW  Elec       q    Type
REMARK                         _______ _______ _______ _____ _____    ______ ____
ROOT
ATOM      1  N   LIG    1        1.174  -0.042   0.207  0.00  0.00    -0.319 N 
ATOM      2  C   LIG    1        1.790   0.510   1.426  0.00  0.00    +0.088 C 
ATOM      3  C   LIG    1        1.640  -0.412   2.659  0.00  0.00    -0.059 C 
ATOM      4  N   LIG    1        2.303  -1.781   2.390  0.00  0.00    +0.384 N 
ATOM      5  H   LIG    1        2.035  -2.397   3.146  0.00  0.00    -0.081 HD
ATOM      6  C   LIG    1        1.728  -2.370   1.081  0.00  0.00    -0.059 C 
ATOM      7  C   LIG    1        1.807  -1.342  -0.079  0.00  0.00    +0.088 C 
ENDROOT
BRANCH   1  12
ATOM      8  C   LIG    1       -3.806  -0.669  -0.271  0.00  0.00    +0.067 C 
ATOM      9  C   LIG    1       -2.394  -0.143  -0.160  0.00  0.00    +0.062 A 
ATOM     10  N   LIG    1       -2.167   1.149  -0.177  0.00  0.00    -0.170 NA
ATOM     11  N   LIG    1       -0.832   1.313  -0.077  0.00  0.00    -0.218 N 
ATOM     12  C   LIG    1       -0.181   0.091   0.046  0.00  0.00    +0.125 A 
ATOM     13  C   LIG    1       -1.198  -0.850  -0.035  0.00  0.00    +0.068 A 
BRANCH  11  14
ATOM     14  C   LIG    1       -0.302   2.631  -0.133  0.00  0.00    +0.067 A 
ATOM     15  C   LIG    1       -0.976   3.688   0.497  0.00  0.00    +0.028 A 
ATOM     16  C   LIG    1       -0.456   4.978   0.443  0.00  0.00    +0.002 A 
ATOM     17  C   LIG    1        0.732   5.216  -0.242  0.00  0.00    +0.000 A 
ATOM     18  C   LIG    1        1.405   4.176  -0.879  0.00  0.00    +0.002 A 
ATOM     19  C   LIG    1        0.888   2.885  -0.828  0.00  0.00    +0.028 A 
ENDBRANCH  11  14
ENDBRANCH   1  12
BRANCH   4  20
ATOM     20  C   LIG    1        3.854  -1.743   2.405  0.00  0.00    -0.052 C 
ATOM     21  C   LIG    1        4.599  -3.084   2.279  0.00  0.00    +0.066 C 
ATOM     22  N   LIG    1        5.732  -3.088   3.194  0.00  0.00    -0.307 NA
ATOM     23  H   LIG    1        6.550  -3.423   2.704  0.00  0.00    +0.123 HD
ATOM     24  C   LIG    1        5.932  -1.702   3.601  0.00  0.00    +0.139 C 
ATOM     25  C   LIG    1        4.527  -1.085   3.609  0.00  0.00    +0.014 C 
BRANCH  24  26
ATOM     26  C   LIG    1        6.598  -1.591   4.999  0.00  0.00    +0.233 C 
ATOM     27  O   LIG    1        6.326  -2.439   5.855  0.00  0.00    -0.274 OA
ATOM     28  N   LIG    1        7.479  -0.580   5.237  0.00  0.00    -0.290 N 
ATOM     29  C   LIG    1        7.373   0.734   4.593  0.00  0.00    +0.177 C 
ATOM     30  S   LIG    1        6.722   1.833   5.859  0.00  0.00    -0.140 S 
ATOM     31  C   LIG    1        7.455   0.863   7.197  0.00  0.00    +0.089 C 
ATOM     32  C   LIG    1        8.064  -0.409   6.575  0.00  0.00    +0.119 C 
ENDBRANCH  24  26
ENDBRANCH   4  20
TORSDOF 4
