REMARK  Name = DB11085
REMARK                            x       y       z     vdW  Elec       q    Type
REMARK                         _______ _______ _______ _____ _____    ______ ____
ROOT
ATOM      1  C   LIG    1       -2.083   1.202   0.000  0.00  0.00    +0.007 A 
ATOM      2  C   LIG    1       -0.688   1.202   0.000  0.00  0.00    +0.045 A 
ATOM      3  C   LIG    1        0.011  -0.007   0.000  0.00  0.00    +0.120 A 
ATOM      4  C   LIG    1       -0.688  -1.216   0.000  0.00  0.00    +0.090 A 
ATOM      5  C   LIG    1       -2.084  -1.216   0.000  0.00  0.00    +0.120 A 
ATOM      6  C   LIG    1       -2.782  -0.007   0.000  0.00  0.00    +0.045 A 
ENDROOT
BRANCH   3   7
ATOM      7  O   LIG    1        1.380  -0.005   0.000  0.00  0.00    -0.507 OA
ATOM      8  H   LIG    1        1.757  -0.887   0.000  0.00  0.00    +0.292 HD
ENDBRANCH   3   7
BRANCH   5   9
ATOM      9  O   LIG    1       -2.771  -2.401   0.000  0.00  0.00    -0.507 OA
ATOM     10  H   LIG    1       -2.195  -3.169   0.000  0.00  0.00    +0.292 HD
ENDBRANCH   5   9
TORSDOF 2
