REMARK  Name = DB11903
REMARK                            x       y       z     vdW  Elec       q    Type
REMARK                         _______ _______ _______ _____ _____    ______ ____
ROOT
ATOM      1  C   LIG    1       -2.689  -0.326  -0.171  0.00  0.00    +0.220 A 
ATOM      2  N   LIG    1       -2.084   0.866   0.053  0.00  0.00    -0.209 NA
ATOM      3  C   LIG    1       -0.726   0.883   0.183  0.00  0.00    +0.161 A 
ATOM      4  C   LIG    1        0.029  -0.317   0.135  0.00  0.00    +0.085 A 
ATOM      5  C   LIG    1       -0.695  -1.492  -0.114  0.00  0.00    +0.129 A 
ATOM      6  N   LIG    1       -2.042  -1.516  -0.266  0.00  0.00    -0.222 NA
ENDROOT
BRANCH   3   7
ATOM      7  C   LIG    1       -0.129   2.292   0.359  0.00  0.00    +0.435 C 
ATOM      8  F   LIG    1       -0.936   3.242  -0.122  0.00  0.00    -0.164 F 
ATOM      9  F   LIG    1        1.039   2.425  -0.270  0.00  0.00    -0.164 F 
ATOM     10  F   LIG    1        0.050   2.530   1.658  0.00  0.00    -0.164 F 
ENDBRANCH   3   7
BRANCH   4  11
ATOM     11  C   LIG    1        1.520  -0.412   0.343  0.00  0.00    +0.248 C 
ATOM     12  N   LIG    1        2.010   0.274   1.392  0.00  0.00    -0.311 N 
ATOM     13  H   LIG    1        1.374   0.851   1.923  0.00  0.00    +0.149 HD
ATOM     14  O   LIG    1        2.207  -1.131  -0.385  0.00  0.00    -0.270 OA
BRANCH  12  15
ATOM     15  C   LIG    1        3.414   0.326   1.806  0.00  0.00    +0.108 C 
BRANCH  15  16
ATOM     16  C   LIG    1        3.771  -0.630   2.968  0.00  0.00    +0.010 C 
ATOM     17  C   LIG    1        3.563  -2.127   2.637  0.00  0.00    +0.033 C 
ATOM     18  C   LIG    1        3.981  -3.020   3.823  0.00  0.00    +0.160 C 
ATOM     19  O   LIG    1        5.337  -2.749   4.180  0.00  0.00    -0.380 OA
ATOM     20  C   LIG    1        5.574  -1.402   4.593  0.00  0.00    +0.160 C 
ATOM     21  C   LIG    1        5.227  -0.435   3.443  0.00  0.00    +0.033 C 
ENDBRANCH  15  16
ENDBRANCH  12  15
ENDBRANCH   4  11
BRANCH   1  22
ATOM     22  N   LIG    1       -4.088  -0.279  -0.279  0.00  0.00    -0.282 N 
ATOM     23  H   LIG    1       -4.484   0.631  -0.092  0.00  0.00    +0.155 HD
BRANCH  22  30
ATOM     24  C   LIG    1       -5.706  -3.315  -1.700  0.00  0.00    +0.022 A 
ATOM     25  C   LIG    1       -6.933  -3.293  -1.041  0.00  0.00    +0.042 A 
ATOM     26 CL   LIG    1       -8.100  -4.528  -1.344  0.00  0.00    -0.083 Cl
ATOM     27  C   LIG    1       -7.217  -2.270  -0.136  0.00  0.00    +0.041 A 
ATOM     28  C   LIG    1       -6.277  -1.268   0.114  0.00  0.00    +0.064 A 
ATOM     29 CL   LIG    1       -6.685  -0.025   1.251  0.00  0.00    -0.082 Cl
ATOM     30  C   LIG    1       -5.037  -1.283  -0.547  0.00  0.00    +0.052 A 
ATOM     31  C   LIG    1       -4.763  -2.317  -1.454  0.00  0.00    +0.026 A 
ENDBRANCH  22  30
ENDBRANCH   1  22
TORSDOF 6
