REMARK  Name = DB11726
REMARK                            x       y       z     vdW  Elec       q    Type
REMARK                         _______ _______ _______ _____ _____    ______ ____
ROOT
ATOM      1  C   LIG    1        1.420  -0.057   0.137  0.00  0.00    +0.251 C 
ATOM      2  N   LIG    1        1.978  -1.227   0.503  0.00  0.00    -0.310 N 
ATOM      3  H   LIG    1        1.367  -2.004   0.710  0.00  0.00    +0.149 HD
ATOM      4  O   LIG    1        2.076   0.948  -0.150  0.00  0.00    -0.270 OA
ENDROOT
BRANCH   1  11
ATOM      5  C   LIG    1       -4.682  -0.973   0.195  0.00  0.00    +0.002 A 
ATOM      6  C   LIG    1       -4.821   0.351  -0.204  0.00  0.00    +0.021 A 
ATOM      7  C   LIG    1       -3.709   1.164  -0.405  0.00  0.00    +0.055 A 
ATOM      8 CL   LIG    1       -3.924   2.805  -0.904  0.00  0.00    -0.082 Cl
ATOM      9  C   LIG    1       -2.433   0.611  -0.192  0.00  0.00    +0.038 A 
ATOM     10  S   LIG    1       -0.867   1.400  -0.368  0.00  0.00    -0.082 S 
ATOM     11  C   LIG    1       -0.025  -0.064   0.096  0.00  0.00    +0.075 A 
ATOM     12  C   LIG    1       -0.902  -1.105   0.375  0.00  0.00    +0.029 A 
ATOM     13  C   LIG    1       -2.272  -0.748   0.219  0.00  0.00    -0.009 A 
ATOM     14  C   LIG    1       -3.423  -1.532   0.409  0.00  0.00    +0.009 A 
ENDBRANCH   1  11
BRANCH   2  15
ATOM     15  C   LIG    1        3.420  -1.485   0.599  0.00  0.00    +0.060 C 
ATOM     16  C   LIG    1        4.109  -1.704  -0.792  0.00  0.00    +0.004 C 
ATOM     17  C   LIG    1        5.581  -2.169  -0.572  0.00  0.00    -0.014 C 
ATOM     18  C   LIG    1        5.700  -3.469   0.258  0.00  0.00    -0.078 C 
ATOM     19  N   LIG    1        4.282  -3.886   0.704  0.00  0.00    +0.381 N 
ATOM     20  H   LIG    1        4.340  -4.714   1.280  0.00  0.00    -0.082 HD
ATOM     21  C   LIG    1        3.423  -4.182  -0.553  0.00  0.00    -0.078 C 
ATOM     22  C   LIG    1        3.408  -2.923  -1.464  0.00  0.00    -0.014 C 
ATOM     23  C   LIG    1        3.665  -2.723   1.522  0.00  0.00    -0.056 C 
ENDBRANCH   2  15
TORSDOF 2
