REMARK  Name = DB11821
REMARK                            x       y       z     vdW  Elec       q    Type
REMARK                         _______ _______ _______ _____ _____    ______ ____
ROOT
ATOM      1  C   UNK A  2        1.820   0.849  -0.180  0.00  0.00    +0.093 C 
ATOM      2  C   UNK A  2        2.576   0.317   1.039  0.00  0.00    +0.131 C 
ATOM      3  N   UNK A  2        2.926  -1.045   0.621  0.00  0.00    -0.288 N 
ATOM      4  C   GLY A  1        3.023  -2.115   1.459  0.00  0.00    +0.199 C 
ATOM      5  O   GLY A  1        3.244  -3.252   1.042  0.00  0.00    -0.278 OA
ATOM      6  C   UNK A  2        3.172  -1.097  -0.847  0.00  0.00    +0.186 C 
ATOM      7  C   UNK A  2        2.574   0.237  -1.355  0.00  0.00    +0.057 C 
ENDROOT
BRANCH   1   9
ATOM      8  C   UNK A  2       -0.576   0.984   0.520  0.00  0.00    +0.244 C 
ATOM      9  N   UNK A  2        0.416   0.424  -0.200  0.00  0.00    -0.307 N 
ATOM     10  H   UNK A  2        0.217  -0.427  -0.705  0.00  0.00    +0.149 HD
ATOM     11  O   UNK A  2       -0.394   1.958   1.255  0.00  0.00    -0.270 OA
BRANCH   8  15
ATOM     12  C   UNK A  2       -4.510  -0.737   0.127  0.00  0.00    +0.000 A 
ATOM     13  C   UNK A  2       -3.404  -1.450  -0.326  0.00  0.00    +0.001 A 
ATOM     14  C   UNK A  2       -2.130  -0.902  -0.204  0.00  0.00    +0.013 A 
ATOM     15  C   UNK A  2       -1.952   0.368   0.371  0.00  0.00    +0.037 A 
ATOM     16  C   UNK A  2       -3.079   1.069   0.826  0.00  0.00    +0.013 A 
ATOM     17  C   UNK A  2       -4.352   0.520   0.703  0.00  0.00    +0.001 A 
ENDBRANCH   8  15
ENDBRANCH   1   9
BRANCH   6  18
ATOM     18  C   UNK A  2        4.647  -1.380  -1.275  0.00  0.00    +0.326 C 
ATOM     19  O   UNK A  2        4.852  -1.463  -2.507  0.00  0.00    -0.249 OA
BRANCH  18  20
ATOM     20  O   UNK A  2        5.555  -1.476  -0.415  0.00  0.00    -0.479 OA
ATOM     21  H   UNK A  2        5.347  -1.406   0.496  0.00  0.00    +0.295 HD
ENDBRANCH  18  20
ENDBRANCH   6  18
BRANCH   4  22
ATOM     22  CA  GLY A  1        2.858  -1.940   2.981  0.00  0.00    +0.011 C 
BRANCH  22  23
ATOM     23  N   GLY A  1        4.105  -1.314   3.499  0.00  0.00    +0.384 N 
ATOM     24  H1  GLY A  1        4.908  -1.895   3.299  0.00  0.00    -0.089 HD
ATOM     25  H2  GLY A  1        4.259  -0.407   3.081  0.00  0.00    -0.089 HD
ATOM     26  H3  GLY A  1        4.058  -1.190   4.500  0.00  0.00    -0.089 HD
ENDBRANCH  22  23
ENDBRANCH   4  22
TORSDOF 6
