REMARK  Name = DB11971
REMARK                            x       y       z     vdW  Elec       q    Type
REMARK                         _______ _______ _______ _____ _____    ______ ____
ROOT
ATOM      1  C   LIG    1        1.375   2.555  -1.925  0.00  0.00    +0.014 C 
ATOM      2  C   LIG    1       -0.158   2.343  -1.653  0.00  0.00    +0.007 C 
ATOM      3  C   LIG    1       -0.920   3.728  -1.845  0.00  0.00    +0.143 C 
ATOM      4  C   LIG    1       -1.143   3.766  -3.395  0.00  0.00    +0.042 C 
ATOM      5  C   LIG    1       -0.876   2.361  -3.964  0.00  0.00    +0.008 C 
ATOM      6  C   LIG    1       -0.846   1.463  -2.730  0.00  0.00    +0.005 C 
ATOM      7  C   LIG    1       -0.239   0.037  -2.832  0.00  0.00    +0.020 C 
ATOM      8  C   LIG    1       -0.779  -0.817  -4.009  0.00  0.00    +0.013 C 
ATOM      9  C   LIG    1       -2.088  -1.542  -3.688  0.00  0.00    +0.036 C 
ATOM     10  C   LIG    1       -1.861  -2.408  -2.457  0.00  0.00    -0.041 C 
ATOM     11  C   LIG    1       -2.328  -3.678  -2.426  0.00  0.00    +0.050 C 
ATOM     12  C   LIG    1       -2.180  -4.581  -1.291  0.00  0.00    +0.157 C 
ATOM     13  O   LIG    1       -2.713  -5.688  -1.267  0.00  0.00    -0.293 OA
ATOM     14  C   LIG    1       -1.211  -4.109  -0.198  0.00  0.00    +0.083 C 
ATOM     15  C   LIG    1       -1.247  -2.577   0.020  0.00  0.00    +0.043 C 
ATOM     16  C   LIG    1       -1.144  -1.817  -1.314  0.00  0.00    -0.044 C 
ATOM     17  C   LIG    1       -0.435  -0.660  -1.454  0.00  0.00    -0.055 C 
ATOM     18  C   LIG    1        0.199   0.120  -0.274  0.00  0.00    +0.046 C 
ATOM     19  C   LIG    1       -0.344   1.589  -0.303  0.00  0.00    +0.022 C 
ENDROOT
BRANCH  18  20
ATOM     20  C   LIG    1        1.718  -0.039  -0.072  0.00  0.00    -0.040 A 
ATOM     21  C   LIG    1        2.354   0.658   0.964  0.00  0.00    +0.006 A 
ATOM     22  C   LIG    1        3.723   0.522   1.174  0.00  0.00    +0.027 A 
ATOM     23  C   LIG    1        4.469  -0.327   0.357  0.00  0.00    +0.088 A 
ATOM     24  C   LIG    1        3.847  -1.039  -0.667  0.00  0.00    +0.027 A 
ATOM     25  C   LIG    1        2.479  -0.900  -0.876  0.00  0.00    +0.006 A 
BRANCH  23  26
ATOM     26  S   LIG    1        6.232  -0.503   0.619  0.00  0.00    -0.006 S 
ATOM     27  C   LIG    1        6.968   0.784  -0.547  0.00  0.00    +0.200 C 
ATOM     28  O   LIG    1        6.617  -1.837   0.142  0.00  0.00    -0.170 OA
ATOM     29  O   LIG    1        6.520  -0.100   2.000  0.00  0.00    -0.170 OA
ENDBRANCH  23  26
ENDBRANCH  18  20
BRANCH   3  30
ATOM     30  C   LIG    1       -2.262   3.915  -1.015  0.00  0.00    +0.370 C 
ATOM     31  F   LIG    1       -2.006   3.806   0.292  0.00  0.00    -0.193 F 
ATOM     32  F   LIG    1       -3.127   2.941  -1.305  0.00  0.00    -0.193 F 
BRANCH  30  33
ATOM     33  C   LIG    1       -3.024   5.271  -1.179  0.00  0.00    +0.457 C 
ATOM     34  F   LIG    1       -3.404   5.525  -2.429  0.00  0.00    -0.165 F 
ATOM     35  F   LIG    1       -2.301   6.319  -0.781  0.00  0.00    -0.165 F 
ATOM     36  F   LIG    1       -4.134   5.274  -0.438  0.00  0.00    -0.165 F 
ENDBRANCH  30  33
ENDBRANCH   3  30
BRANCH   3  37
ATOM     37  O   LIG    1       -0.122   4.835  -1.438  0.00  0.00    -0.382 OA
ATOM     38  H   LIG    1        0.028   4.772  -0.492  0.00  0.00    +0.210 HD
ENDBRANCH   3  37
TORSDOF 5
