REMARK  Name = DB11283
REMARK                            x       y       z     vdW  Elec       q    Type
REMARK                         _______ _______ _______ _____ _____    ______ ____
ROOT
ATOM      1  C   LIG    1       -0.112  -0.226   0.313  0.00  0.00    +0.240 C 
ENDROOT
BRANCH   1   2
ATOM      2  C   LIG    1       -1.059   0.948   0.636  0.00  0.00    +0.220 C 
BRANCH   2   3
ATOM      3  O   LIG    1       -0.544   1.808   1.644  0.00  0.00    -0.283 OA
BRANCH   3   4
ATOM      4  P   LIG    1       -0.575   1.261   3.283  0.00  0.00    +0.475 P 
ATOM      5  O   LIG    1        0.283   0.021   3.403  0.00  0.00    -0.227 OA
BRANCH   4   6
ATOM      6  O   LIG    1       -2.006   1.322   3.769  0.00  0.00    -0.302 OA
ATOM      7  H   LIG    1       -2.512   0.593   3.378  0.00  0.00    +0.222 HD
ENDBRANCH   4   6
BRANCH   4   8
ATOM      8  O   LIG    1        0.317   2.567   3.989  0.00  0.00    -0.289 OA
BRANCH   8   9
ATOM      9  C   LIG    1       -0.253   3.865   3.973  0.00  0.00    +0.154 C 
BRANCH   9  10
ATOM     10  C   LIG    1        0.095   4.698   2.713  0.00  0.00    -0.047 C 
BRANCH  10  11
ATOM     11  N   LIG    1        1.616   4.804   2.372  0.00  0.00    +0.376 N 
ATOM     12  C   LIG    1        2.161   3.507   1.727  0.00  0.00    -0.093 C 
ATOM     13  C   LIG    1        2.469   5.152   3.616  0.00  0.00    -0.093 C 
ATOM     14  C   LIG    1        1.790   5.941   1.335  0.00  0.00    -0.093 C 
ENDBRANCH  10  11
ENDBRANCH   9  10
ENDBRANCH   8   9
ENDBRANCH   4   8
ENDBRANCH   3   4
ENDBRANCH   2   3
ENDBRANCH   1   2
BRANCH   1  15
ATOM     15  C   LIG    1        1.341   0.256   0.109  0.00  0.00    +0.279 C 
BRANCH  15  16
ATOM     16  O   LIG    1        2.235  -0.845   0.130  0.00  0.00    -0.461 OA
BRANCH  16  17
ATOM     17  C   LIG    1        3.553  -0.668   0.340  0.00  0.00    +0.307 C 
ATOM     18  O   LIG    1        4.136   0.411   0.466  0.00  0.00    -0.251 OA
BRANCH  17  19
ATOM     19  C   LIG    1        4.300  -1.998   0.452  0.00  0.00    +0.120 C 
BRANCH  19  20
ATOM     20  C   LIG    1        4.287  -2.591   1.879  0.00  0.00    +0.011 C 
BRANCH  20  21
ATOM     21  C   LIG    1        2.888  -2.966   2.415  0.00  0.00    +0.001 C 
BRANCH  21  22
ATOM     22  C   LIG    1        2.929  -3.615   3.809  0.00  0.00    +0.000 C 
BRANCH  22  23
ATOM     23  C   LIG    1        1.525  -3.943   4.353  0.00  0.00    +0.000 C 
BRANCH  23  24
ATOM     24  C   LIG    1        1.515  -4.488   5.795  0.00  0.00    +0.000 C 
BRANCH  24  25
ATOM     25  C   LIG    1        2.175  -5.872   5.957  0.00  0.00    -0.000 C 
BRANCH  25  26
ATOM     26  C   LIG    1        2.095  -6.407   7.397  0.00  0.00    -0.000 C 
BRANCH  26  27
ATOM     27  C   LIG    1        2.743  -7.793   7.559  0.00  0.00    -0.000 C 
BRANCH  27  28
ATOM     28  C   LIG    1        2.676  -8.320   9.004  0.00  0.00    -0.000 C 
BRANCH  28  29
ATOM     29  C   LIG    1        3.318  -9.710   9.166  0.00  0.00    -0.000 C 
BRANCH  29  30
ATOM     30  C   LIG    1        3.249 -10.237  10.610  0.00  0.00    -0.003 C 
ATOM     31  C   LIG    1        3.884 -11.624  10.771  0.00  0.00    +0.004 C 
ENDBRANCH  29  30
ENDBRANCH  28  29
ENDBRANCH  27  28
ENDBRANCH  26  27
ENDBRANCH  25  26
ENDBRANCH  24  25
ENDBRANCH  23  24
ENDBRANCH  22  23
ENDBRANCH  21  22
ENDBRANCH  20  21
ENDBRANCH  19  20
ENDBRANCH  17  19
ENDBRANCH  16  17
ENDBRANCH  15  16
ENDBRANCH   1  15
BRANCH   1  32
ATOM     32  O   LIG    1       -0.600  -0.860  -0.871  0.00  0.00    -0.456 OA
BRANCH  32  33
ATOM     33  C   LIG    1       -0.404  -2.181  -1.106  0.00  0.00    +0.308 C 
ATOM     34  O   LIG    1        0.136  -2.984  -0.343  0.00  0.00    -0.251 OA
BRANCH  33  35
ATOM     35  C   LIG    1       -0.896  -2.611  -2.492  0.00  0.00    +0.120 C 
BRANCH  35  36
ATOM     36  C   LIG    1        0.230  -3.135  -3.414  0.00  0.00    +0.011 C 
BRANCH  36  37
ATOM     37  C   LIG    1        1.362  -2.129  -3.721  0.00  0.00    +0.001 C 
BRANCH  37  38
ATOM     38  C   LIG    1        0.903  -0.891  -4.519  0.00  0.00    +0.000 C 
BRANCH  38  39
ATOM     39  C   LIG    1        2.004   0.167  -4.733  0.00  0.00    +0.000 C 
BRANCH  39  40
ATOM     40  C   LIG    1        2.378   0.930  -3.448  0.00  0.00    +0.000 C 
BRANCH  40  41
ATOM     41  C   LIG    1        3.417   2.042  -3.670  0.00  0.00    -0.000 C 
BRANCH  41  42
ATOM     42  C   LIG    1        3.764   2.786  -2.369  0.00  0.00    -0.000 C 
BRANCH  42  43
ATOM     43  C   LIG    1        4.828   3.882  -2.559  0.00  0.00    -0.000 C 
BRANCH  43  44
ATOM     44  C   LIG    1        5.116   4.710  -1.291  0.00  0.00    -0.000 C 
BRANCH  44  45
ATOM     45  C   LIG    1        5.749   3.909  -0.136  0.00  0.00    -0.000 C 
BRANCH  45  46
ATOM     46  C   LIG    1        6.062   4.781   1.093  0.00  0.00    -0.003 C 
ATOM     47  C   LIG    1        6.572   3.966   2.289  0.00  0.00    +0.004 C 
ENDBRANCH  45  46
ENDBRANCH  44  45
ENDBRANCH  43  44
ENDBRANCH  42  43
ENDBRANCH  41  42
ENDBRANCH  40  41
ENDBRANCH  39  40
ENDBRANCH  38  39
ENDBRANCH  37  38
ENDBRANCH  36  37
ENDBRANCH  35  36
ENDBRANCH  33  35
ENDBRANCH  32  33
ENDBRANCH   1  32
TORSDOF 37
