REMARK  Name = DB11703
REMARK                            x       y       z     vdW  Elec       q    Type
REMARK                         _______ _______ _______ _____ _____    ______ ____
ROOT
ATOM      1  C   LIG    1        1.517  -0.109  -0.130  0.00  0.00    +0.136 A 
ATOM      2  N   LIG    1        2.222  -1.076   0.550  0.00  0.00    -0.297 N 
ATOM      3  C   LIG    1        1.823  -2.191   1.246  0.00  0.00    +0.113 A 
ATOM      4  C   LIG    1        2.804  -2.979   1.835  0.00  0.00    +0.131 A 
ATOM      5  N   LIG    1        4.123  -2.694   1.736  0.00  0.00    -0.237 NA
ATOM      6  C   LIG    1        4.509  -1.594   1.042  0.00  0.00    +0.142 A 
ATOM      7  C   LIG    1        3.581  -0.723   0.426  0.00  0.00    +0.114 A 
ATOM      8  C   LIG    1        3.560   0.480  -0.342  0.00  0.00    +0.100 A 
ATOM      9  N   LIG    1        2.320   0.784  -0.670  0.00  0.00    -0.229 NA
ENDROOT
BRANCH   1  12
ATOM     10  C   LIG    1       -0.661   1.897   1.256  0.00  0.00    +0.292 C 
ATOM     11  N   LIG    1       -0.664   1.210   0.077  0.00  0.00    -0.281 N 
ATOM     12  C   LIG    1       -0.007  -0.086  -0.234  0.00  0.00    +0.143 C 
ATOM     13  C   LIG    1       -0.515  -0.414  -1.645  0.00  0.00    +0.032 C 
ATOM     14  C   LIG    1       -0.868   0.932  -2.245  0.00  0.00    +0.021 C 
ATOM     15  C   LIG    1       -1.440   1.712  -1.067  0.00  0.00    +0.109 C 
ATOM     16  O   LIG    1       -1.261   2.960   1.425  0.00  0.00    -0.260 OA
BRANCH  10  19
ATOM     17  C   LIG    1        1.718   0.249   4.228  0.00  0.00    +0.106 C 
ATOM     18  C   LIG    1        0.820   0.835   3.222  0.00  0.00    -0.096 C 
ATOM     19  C   LIG    1        0.099   1.308   2.357  0.00  0.00    -0.008 C 
ENDBRANCH  10  19
ENDBRANCH   1  12
BRANCH   8  20
ATOM     20  C   LIG    1        4.693   1.357  -0.762  0.00  0.00    +0.003 A 
ATOM     21  C   LIG    1        5.694   1.701   0.147  0.00  0.00    +0.011 A 
ATOM     22  C   LIG    1        6.753   2.513  -0.249  0.00  0.00    +0.014 A 
ATOM     23  C   LIG    1        6.832   2.993  -1.566  0.00  0.00    +0.037 A 
ATOM     24  C   LIG    1        5.822   2.640  -2.472  0.00  0.00    +0.014 A 
ATOM     25  C   LIG    1        4.763   1.829  -2.075  0.00  0.00    +0.011 A 
BRANCH  23  26
ATOM     26  C   LIG    1        7.966   3.889  -2.019  0.00  0.00    +0.249 C 
ATOM     27  N   LIG    1        9.080   3.866  -1.248  0.00  0.00    -0.266 N 
ATOM     28  H   LIG    1        9.048   3.278  -0.429  0.00  0.00    +0.157 HD
ATOM     29  O   LIG    1        7.846   4.568  -3.042  0.00  0.00    -0.270 OA
BRANCH  27  30
ATOM     30  C   LIG    1       10.272   4.599  -1.398  0.00  0.00    +0.125 A 
ATOM     31  N   LIG    1       10.520   5.364  -2.502  0.00  0.00    -0.240 NA
ATOM     32  C   LIG    1       11.695   6.039  -2.572  0.00  0.00    +0.113 A 
ATOM     33  C   LIG    1       12.660   5.983  -1.567  0.00  0.00    +0.020 A 
ATOM     34  C   LIG    1       12.403   5.196  -0.444  0.00  0.00    +0.005 A 
ATOM     35  C   LIG    1       11.199   4.494  -0.355  0.00  0.00    +0.044 A 
ENDBRANCH  27  30
ENDBRANCH  23  26
ENDBRANCH   8  20
BRANCH   6  36
ATOM     36  N   LIG    1        5.881  -1.377   0.946  0.00  0.00    -0.341 N 
ATOM     37  H   LIG    1        6.513  -2.032   1.382  0.00  0.00    +0.144 HD
ATOM     38  H   LIG    1        6.223  -0.586   0.421  0.00  0.00    +0.144 HD
ENDBRANCH   6  36
TORSDOF 6
