REMARK  Name = DB11278
REMARK                            x       y       z     vdW  Elec       q    Type
REMARK                         _______ _______ _______ _____ _____    ______ ____
ROOT
ATOM      1  C   LIG    1       -0.043   0.197   0.154  0.00  0.00    +0.161 C 
ENDROOT
BRANCH   1   4
ATOM      2  C   LIG    1       -1.484  -0.796   3.574  0.00  0.00    +0.000 A 
ATOM      3  C   LIG    1       -1.015  -0.019   2.519  0.00  0.00    +0.006 A 
ATOM      4  C   LIG    1       -0.575  -0.627   1.335  0.00  0.00    -0.018 A 
ATOM      5  C   LIG    1       -0.607  -2.022   1.225  0.00  0.00    +0.006 A 
ATOM      6  C   LIG    1       -1.076  -2.800   2.281  0.00  0.00    +0.000 A 
ATOM      7  C   LIG    1       -1.514  -2.183   3.450  0.00  0.00    +0.000 A 
ENDBRANCH   1   4
BRANCH   1   8
ATOM      8  O   LIG    1       -0.492   1.545   0.155  0.00  0.00    -0.386 OA
ATOM      9  H   LIG    1       -1.444   1.549   0.032  0.00  0.00    +0.210 HD
ENDBRANCH   1   8
BRANCH   1  10
ATOM     10  C   LIG    1        1.521   0.135   0.041  0.00  0.00    +0.086 C 
ATOM     11  C   LIG    1        2.198   0.860   1.238  0.00  0.00    +0.027 C 
BRANCH  10  12
ATOM     12  N   LIG    1        2.031   0.625  -1.266  0.00  0.00    -0.303 NA
ATOM     13  C   LIG    1        1.486  -0.105  -2.414  0.00  0.00    +0.105 C 
ATOM     14  C   LIG    1        3.492   0.576  -1.373  0.00  0.00    +0.105 C 
ENDBRANCH  10  12
ENDBRANCH   1  10
TORSDOF 4
