REMARK  Name = DB11899
REMARK                            x       y       z     vdW  Elec       q    Type
REMARK                         _______ _______ _______ _____ _____    ______ ____
ROOT
ATOM      1  C   LIG    1        1.477  -0.040   0.000  0.00  0.00    +0.049 A 
ATOM      2  C   LIG    1        2.385   1.053  -0.004  0.00  0.00    +0.166 A 
ATOM      3  N   LIG    1        2.224   2.381  -0.003  0.00  0.00    -0.231 NA
ATOM      4  C   LIG    1        3.339   3.167  -0.014  0.00  0.00    +0.062 A 
ATOM      5  C   LIG    1        4.646   2.644  -0.008  0.00  0.00    +0.079 A 
ATOM      6 BR   LIG    1        6.182   3.788   0.022  0.00  0.00    -0.045 Br
ATOM      7  C   LIG    1        4.804   1.253  -0.009  0.00  0.00    +0.136 A 
ATOM      8  N   LIG    1        3.665   0.481  -0.008  0.00  0.00    -0.199 N 
ATOM      9  N   LIG    1        3.603  -0.874  -0.005  0.00  0.00    -0.171 NA
ATOM     10  C   LIG    1        2.318  -1.157  -0.000  0.00  0.00    +0.145 A 
ENDROOT
BRANCH   4  11
ATOM     11  C   LIG    1        3.068   4.680   0.008  0.00  0.00    +0.022 C 
ATOM     12  C   LIG    1        1.803   5.107  -0.792  0.00  0.00    -0.073 C 
ATOM     13  N   LIG    1        1.608   6.633  -0.712  0.00  0.00    +0.379 N 
ATOM     14  H   LIG    1        2.379   7.091  -1.177  0.00  0.00    -0.086 HD
ATOM     15  H   LIG    1        0.767   6.889  -1.210  0.00  0.00    -0.086 HD
ATOM     16  C   LIG    1        1.518   7.139   0.739  0.00  0.00    -0.083 C 
ATOM     17  C   LIG    1        2.792   6.731   1.503  0.00  0.00    -0.018 C 
ATOM     18  C   LIG    1        3.047   5.212   1.461  0.00  0.00    +0.006 C 
ENDBRANCH   4  11
BRANCH   1  23
ATOM     19  C   LIG    1       -3.348   1.312   0.009  0.00  0.00    +0.172 C 
ATOM     20  N   LIG    1       -2.097   0.575   0.008  0.00  0.00    -0.274 N 
ATOM     21  N   LIG    1       -2.124  -0.763   0.009  0.00  0.00    -0.179 NA
ATOM     22  C   LIG    1       -0.858  -1.116   0.006  0.00  0.00    +0.143 A 
ATOM     23  C   LIG    1        0.024  -0.024   0.004  0.00  0.00    +0.025 A 
ATOM     24  C   LIG    1       -0.821   1.075   0.005  0.00  0.00    +0.116 A 
ENDBRANCH   1  23
BRANCH   7  25
ATOM     25  N   LIG    1        6.071   0.661  -0.007  0.00  0.00    -0.342 N 
ATOM     26  H   LIG    1        6.146  -0.346   0.015  0.00  0.00    +0.144 HD
ATOM     27  H   LIG    1        6.893   1.248   0.013  0.00  0.00    +0.144 HD
ENDBRANCH   7  25
TORSDOF 3
