REMARK  Name = DB11110
REMARK                            x       y       z     vdW  Elec       q    Type
REMARK                         _______ _______ _______ _____ _____    ______ ____
ROOT
ATOM      1  C   LIG    1        1.587   0.125   0.035  0.00  0.00    +0.182 C 
ENDROOT
BRANCH   1   2
ATOM      2  C   LIG    1        2.283   1.036  -1.053  0.00  0.00    +0.338 C 
ATOM      3  O   LIG    1        2.110   0.733  -2.258  0.00  0.00    -0.248 OA
BRANCH   2   4
ATOM      4  O   LIG    1        2.979   2.019  -0.700  0.00  0.00    -0.479 OA
ATOM      5  H   LIG    1        3.086   2.215   0.210  0.00  0.00    +0.295 HD
ENDBRANCH   2   4
ENDBRANCH   1   2
BRANCH   1   6
ATOM      6  O   LIG    1        1.858   0.570   1.369  0.00  0.00    -0.376 OA
ATOM      7  H   LIG    1        1.416  -0.021   1.981  0.00  0.00    +0.211 HD
ENDBRANCH   1   6
BRANCH   1   8
ATOM      8  C   LIG    1        2.082  -1.372  -0.085  0.00  0.00    +0.167 C 
BRANCH   8   9
ATOM      9  C   LIG    1        3.596  -1.697   0.079  0.00  0.00    +0.308 C 
ATOM     10  O   LIG    1        3.986  -2.773  -0.427  0.00  0.00    -0.251 OA
BRANCH   9  11
ATOM     11  O   LIG    1        4.342  -0.931   0.732  0.00  0.00    -0.481 OA
ATOM     12  H   LIG    1        3.999  -0.136   1.090  0.00  0.00    +0.295 HD
ENDBRANCH   9  11
ENDBRANCH   8   9
ENDBRANCH   1   8
BRANCH   1  13
ATOM     13  C   LIG    1        0.018   0.116  -0.162  0.00  0.00    +0.167 C 
BRANCH  13  14
ATOM     14  C   LIG    1       -0.775   1.454  -0.084  0.00  0.00    +0.308 C 
ATOM     15  O   LIG    1       -0.316   2.427   0.557  0.00  0.00    -0.251 OA
BRANCH  14  16
ATOM     16  O   LIG    1       -1.895   1.465  -0.645  0.00  0.00    -0.481 OA
ATOM     17  H   LIG    1       -2.192   0.709  -1.112  0.00  0.00    +0.295 HD
ENDBRANCH  14  16
ENDBRANCH  13  14
ENDBRANCH   1  13
TORSDOF 9
