REMARK  Name = DB11813
REMARK                            x       y       z     vdW  Elec       q    Type
REMARK                         _______ _______ _______ _____ _____    ______ ____
ROOT
ATOM      1  N   UNK A  1        6.151  -1.537  -1.236  0.00  0.00    -0.315 N 
ATOM      2  H   UNK A  1        6.406  -1.817  -0.299  0.00  0.00    +0.149 HD
ATOM      3  C   UNK A  1        7.114  -1.418  -2.168  0.00  0.00    +0.212 C 
ATOM      4  O   UNK A  1        6.889  -1.013  -3.310  0.00  0.00    -0.276 OA
ENDROOT
BRANCH   1   5
ATOM      5  C   UNK A  1        4.731  -1.297  -1.467  0.00  0.00    +0.104 C 
BRANCH   5   6
ATOM      6  C   UNK A  1        3.869  -1.751  -0.277  0.00  0.00    +0.019 C 
BRANCH   6   7
ATOM      7  C   UNK A  1        2.357  -1.532  -0.473  0.00  0.00    +0.002 C 
BRANCH   7   8
ATOM      8  C   UNK A  1        1.943  -0.050  -0.549  0.00  0.00    +0.000 C 
BRANCH   8   9
ATOM      9  C   UNK A  1        0.417   0.146  -0.558  0.00  0.00    +0.000 C 
BRANCH   9  10
ATOM     10  C   UNK A  1       -0.000   1.625  -0.500  0.00  0.00    +0.000 C 
BRANCH  10  11
ATOM     11  C   UNK A  1       -1.530   1.812  -0.487  0.00  0.00    +0.000 C 
BRANCH  11  12
ATOM     12  C   UNK A  1       -1.995   3.275  -0.351  0.00  0.00    +0.000 C 
BRANCH  12  13
ATOM     13  C   UNK A  1       -1.581   4.184  -1.526  0.00  0.00    +0.001 C 
BRANCH  13  14
ATOM     14  C   UNK A  1       -2.201   5.588  -1.448  0.00  0.00    +0.011 C 
BRANCH  14  15
ATOM     15  C   UNK A  1       -1.736   6.495  -2.604  0.00  0.00    +0.120 C 
BRANCH  15  16
ATOM     16  C   UNK A  1       -2.389   7.877  -2.587  0.00  0.00    +0.307 C 
ATOM     17  O   UNK A  1       -1.728   8.896  -2.384  0.00  0.00    -0.251 OA
BRANCH  16  18
ATOM     18  O   UNK A  1       -3.720   7.819  -2.827  0.00  0.00    -0.458 OA
BRANCH  18  31
ATOM     19  C   UNK A  1       -7.806   7.807  -6.248  0.00  0.00    +0.232 C 
ATOM     20  C   UNK A  1       -8.891   6.933  -5.620  0.00  0.00    +0.244 C 
ATOM     21  C   UNK A  1       -8.398   6.661  -4.206  0.00  0.00    -0.026 C 
ATOM     22  C   UNK A  1       -9.088   5.586  -3.377  0.00  0.00    +0.043 C 
ATOM     23  C   UNK A  1       -7.348   7.471  -3.906  0.00  0.00    -0.013 C 
ATOM     24  C   UNK A  1       -6.615   7.492  -2.555  0.00  0.00    +0.242 C 
ATOM     25  O   UNK A  1       -7.528   7.297  -1.473  0.00  0.00    -0.452 OA
ATOM     26  C   UNK A  1       -7.052   7.808  -0.319  0.00  0.00    +0.343 C 
ATOM     27  O   UNK A  1       -7.657   7.680   0.745  0.00  0.00    -0.247 OA
ATOM     28  C   UNK A  1       -5.756   8.575  -0.606  0.00  0.00    +0.195 C 
ATOM     29  C   UNK A  1       -5.665   9.851   0.272  0.00  0.00    +0.057 C 
ATOM     30  C   UNK A  1       -5.885   8.790  -2.141  0.00  0.00    +0.182 C 
ATOM     31  C   UNK A  1       -4.535   8.993  -2.902  0.00  0.00    +0.219 C 
ATOM     32  C   UNK A  1       -4.630   9.420  -4.392  0.00  0.00    +0.096 C 
ATOM     33  C   UNK A  1       -5.439   8.538  -5.406  0.00  0.00    +0.124 C 
ATOM     34  C   UNK A  1       -4.739   7.167  -5.603  0.00  0.00    +0.056 C 
ATOM     35  C   UNK A  1       -6.978   8.384  -5.088  0.00  0.00    +0.107 C 
BRANCH  28  36
ATOM     36  O   UNK A  1       -4.695   7.749  -0.150  0.00  0.00    -0.375 OA
ATOM     37  H   UNK A  1       -4.694   6.939  -0.665  0.00  0.00    +0.211 HD
ENDBRANCH  28  36
BRANCH  30  38
ATOM     38  O   UNK A  1       -6.664   9.955  -2.425  0.00  0.00    -0.378 OA
ATOM     39  H   UNK A  1       -6.192  10.727  -2.102  0.00  0.00    +0.211 HD
ENDBRANCH  30  38
BRANCH  19  40
ATOM     40  O   UNK A  1       -8.381   8.863  -7.021  0.00  0.00    -0.457 OA
BRANCH  40  41
ATOM     41  C   UNK A  1       -8.853   8.661  -8.272  0.00  0.00    +0.307 C 
ATOM     42  O   UNK A  1       -8.849   7.589  -8.882  0.00  0.00    -0.251 OA
BRANCH  41  43
ATOM     43  C   UNK A  1       -9.375   9.961  -8.894  0.00  0.00    +0.120 C 
BRANCH  43  44
ATOM     44  C   UNK A  1       -9.642   9.885 -10.412  0.00  0.00    +0.011 C 
BRANCH  44  45
ATOM     45  C   UNK A  1      -10.120  11.226 -10.993  0.00  0.00    +0.001 C 
BRANCH  45  46
ATOM     46  C   UNK A  1      -10.362  11.166 -12.514  0.00  0.00    +0.000 C 
BRANCH  46  47
ATOM     47  C   UNK A  1      -10.739  12.517 -13.153  0.00  0.00    -0.000 C 
BRANCH  47  49
ATOM     48  C   UNK A  1      -12.484  14.374 -13.428  0.00  0.00    +0.004 C 
ATOM     49  C   UNK A  1      -12.103  13.075 -12.703  0.00  0.00    -0.003 C 
ENDBRANCH  47  49
ENDBRANCH  46  47
ENDBRANCH  45  46
ENDBRANCH  44  45
ENDBRANCH  43  44
ENDBRANCH  41  43
ENDBRANCH  40  41
ENDBRANCH  19  40
BRANCH  20  50
ATOM     50  O   UNK A  1       -9.189   5.767  -6.409  0.00  0.00    -0.450 OA
BRANCH  50  51
ATOM     51  C   UNK A  1       -8.300   4.763  -6.683  0.00  0.00    +0.335 C 
ATOM     52  O   UNK A  1       -7.147   4.724  -6.247  0.00  0.00    -0.245 OA
BRANCH  51  53
ATOM     53  C   UNK A  1       -8.870   3.710  -7.542  0.00  0.00    +0.029 C 
ATOM     54  C   UNK A  1      -10.335   3.369  -7.281  0.00  0.00    +0.051 C 
ATOM     55  C   UNK A  1       -8.145   3.051  -8.478  0.00  0.00    -0.020 C 
ATOM     56  C   UNK A  1       -6.699   3.265  -8.902  0.00  0.00    +0.036 C 
ENDBRANCH  51  53
ENDBRANCH  50  51
ENDBRANCH  20  50
BRANCH  33  57
ATOM     57  O   UNK A  1       -5.247   9.122  -6.717  0.00  0.00    -0.458 OA
BRANCH  57  58
ATOM     58  C   UNK A  1       -5.653  10.365  -7.112  0.00  0.00    +0.304 C 
ATOM     59  C   UNK A  1       -5.293  10.645  -8.565  0.00  0.00    +0.136 C 
ATOM     60  O   UNK A  1       -6.263  11.193  -6.436  0.00  0.00    -0.251 OA
ENDBRANCH  57  58
ENDBRANCH  33  57
ENDBRANCH  18  31
ENDBRANCH  16  18
ENDBRANCH  15  16
ENDBRANCH  14  15
ENDBRANCH  13  14
ENDBRANCH  12  13
ENDBRANCH  11  12
ENDBRANCH  10  11
ENDBRANCH   9  10
ENDBRANCH   8   9
ENDBRANCH   7   8
ENDBRANCH   6   7
ENDBRANCH   5   6
ENDBRANCH   1   5
BRANCH   3  61
ATOM     61  C   UNK A  1        8.576  -1.670  -1.745  0.00  0.00    +0.088 C 
BRANCH  61  62
ATOM     62  C   UNK A  1        8.752  -2.578  -0.491  0.00  0.00    +0.021 C 
BRANCH  62  63
ATOM     63  N   UNK A  1       10.154  -2.591   0.047  0.00  0.00    +0.386 N 
ATOM     64  H   UNK A  1       10.715  -3.204  -0.528  0.00  0.00    -0.089 HD
ATOM     65  H   UNK A  1       10.527  -1.654   0.018  0.00  0.00    -0.089 HD
ATOM     66  H   UNK A  1       10.134  -2.927   1.000  0.00  0.00    -0.089 HD
ENDBRANCH  62  63
BRANCH  62  67
ATOM     67  C   UNK A  1        8.413  -4.064  -0.759  0.00  0.00    +0.200 C 
ATOM     68  N   UNK A  2        7.349  -4.547  -0.093  0.00  0.00    -0.304 N 
ATOM     69  H   UNK A  2        6.871  -3.951   0.569  0.00  0.00    +0.149 HD
ATOM     70  O   UNK A  1        9.079  -4.725  -1.563  0.00  0.00    -0.278 OA
BRANCH  68  71
ATOM     71  C   UNK A  2        6.762  -5.888  -0.264  0.00  0.00    +0.182 C 
BRANCH  71  72
ATOM     72  C   UNK A  2        5.880  -5.971  -1.568  0.00  0.00    +0.325 C 
ATOM     73  O   UNK A  2        5.975  -7.058  -2.183  0.00  0.00    -0.249 OA
BRANCH  72  74
ATOM     74  O   UNK A  2        5.132  -4.992  -1.807  0.00  0.00    -0.479 OA
ATOM     75  H   UNK A  2        5.164  -4.233  -1.259  0.00  0.00    +0.295 HD
ENDBRANCH  72  74
ENDBRANCH  71  72
BRANCH  71  76
ATOM     76  C   UNK A  2        5.943  -6.299   0.986  0.00  0.00    +0.043 C 
BRANCH  76  77
ATOM     77  C   UNK A  2        6.824  -6.580   2.237  0.00  0.00    +0.098 C 
BRANCH  77  78
ATOM     78  C   UNK A  2        6.124  -6.512   3.607  0.00  0.00    +0.214 C 
ATOM     79  N   UNK A  1        4.871  -6.025   3.658  0.00  0.00    -0.302 N 
ATOM     80  H   UNK A  2        4.442  -5.720   2.797  0.00  0.00    +0.150 HD
ATOM     81  O   UNK A  2        6.735  -6.881   4.610  0.00  0.00    -0.276 OA
BRANCH  79  82
ATOM     82  C   UNK A  1        4.049  -5.818   4.862  0.00  0.00    +0.182 C 
BRANCH  82  83
ATOM     83  C   UNK A  1        3.286  -7.127   5.296  0.00  0.00    +0.325 C 
ATOM     84  O   UNK A  1        3.186  -7.283   6.535  0.00  0.00    -0.249 OA
BRANCH  83  85
ATOM     85  O   UNK A  1        2.797  -7.825   4.374  0.00  0.00    -0.479 OA
ATOM     86  H   UNK A  1        2.951  -7.594   3.479  0.00  0.00    +0.295 HD
ENDBRANCH  83  85
ENDBRANCH  82  83
BRANCH  82  87
ATOM     87  C   UNK A  1        3.086  -4.627   4.622  0.00  0.00    +0.043 C 
BRANCH  87  88
ATOM     88  C   UNK A  1        2.515  -3.967   5.904  0.00  0.00    +0.098 C 
BRANCH  88  89
ATOM     89  C   UNK A  1        2.049  -2.517   5.690  0.00  0.00    +0.214 C 
ATOM     90  N   UNK A  1        1.400  -2.256   4.541  0.00  0.00    -0.302 N 
ATOM     91  H   UNK A  1        1.183  -3.031   3.930  0.00  0.00    +0.150 HD
ATOM     92  O   UNK A  1        2.263  -1.668   6.555  0.00  0.00    -0.276 OA
BRANCH  90  93
ATOM     93  C   UNK A  1        0.966  -0.942   4.034  0.00  0.00    +0.182 C 
BRANCH  93  94
ATOM     94  C   UNK A  1       -0.337  -1.113   3.163  0.00  0.00    +0.325 C 
ATOM     95  O   UNK A  1       -1.125  -0.141   3.229  0.00  0.00    -0.249 OA
BRANCH  94  96
ATOM     96  O   UNK A  1       -0.419  -2.137   2.440  0.00  0.00    -0.479 OA
ATOM     97  H   UNK A  1        0.244  -2.797   2.486  0.00  0.00    +0.295 HD
ENDBRANCH  94  96
ENDBRANCH  93  94
BRANCH  93  98
ATOM     98  C   UNK A  1        2.085  -0.264   3.189  0.00  0.00    +0.043 C 
BRANCH  98  99
ATOM     99  C   UNK A  1        3.208   0.415   4.013  0.00  0.00    +0.098 C 
BRANCH  99 100
ATOM    100  C   UNK A  1        4.615  -0.102   3.689  0.00  0.00    +0.214 C 
ATOM    101  N   UNK A  1        5.065  -1.104   4.465  0.00  0.00    -0.302 N 
ATOM    102  H   UNK A  1        4.462  -1.428   5.208  0.00  0.00    +0.150 HD
ATOM    103  O   UNK A  1        5.272   0.412   2.783  0.00  0.00    -0.276 OA
BRANCH 101 104
ATOM    104  C   UNK A  1        6.409  -1.716   4.463  0.00  0.00    +0.182 C 
BRANCH 104 105
ATOM    105  C   UNK A  1        6.846  -2.431   3.123  0.00  0.00    +0.325 C 
ATOM    106  O   UNK A  1        8.086  -2.576   3.007  0.00  0.00    -0.249 OA
BRANCH 105 107
ATOM    107  O   UNK A  1        5.940  -2.820   2.349  0.00  0.00    -0.479 OA
ATOM    108  H   UNK A  1        5.042  -2.645   2.554  0.00  0.00    +0.295 HD
ENDBRANCH 105 107
ENDBRANCH 104 105
BRANCH 104 109
ATOM    109  C   UNK A  1        6.481  -2.763   5.612  0.00  0.00    +0.045 C 
BRANCH 109 110
ATOM    110  C   UNK A  1        6.145  -2.205   7.019  0.00  0.00    +0.123 C 
BRANCH 110 111
ATOM    111  C   UNK A  1        6.209  -3.219   8.175  0.00  0.00    +0.305 C 
ATOM    112  O   UNK A  1        5.912  -2.781   9.309  0.00  0.00    -0.251 OA
BRANCH 111 113
ATOM    113  O   UNK A  1        6.550  -4.401   7.939  0.00  0.00    -0.481 OA
ATOM    114  H   UNK A  1        6.760  -4.662   7.064  0.00  0.00    +0.295 HD
ENDBRANCH 111 113
ENDBRANCH 110 111
ENDBRANCH 109 110
ENDBRANCH 104 109
ENDBRANCH 101 104
ENDBRANCH  99 100
ENDBRANCH  98  99
ENDBRANCH  93  98
ENDBRANCH  90  93
ENDBRANCH  88  89
ENDBRANCH  87  88
ENDBRANCH  82  87
ENDBRANCH  79  82
ENDBRANCH  77  78
ENDBRANCH  76  77
ENDBRANCH  71  76
ENDBRANCH  68  71
ENDBRANCH  62  67
ENDBRANCH  61  62
ENDBRANCH   3  61
TORSDOF 58
