REMARK  Name = DB11735
REMARK                            x       y       z     vdW  Elec       q    Type
REMARK                         _______ _______ _______ _____ _____    ______ ____
ROOT
ATOM      1  C   LIG    1        1.501   0.018   0.002  0.00  0.00    +0.176 C 
ENDROOT
BRANCH   1   2
ATOM      2  O   LIG    1        1.933  -1.334   0.005  0.00  0.00    -0.386 OA
ATOM      3  H   LIG    1        2.893  -1.346  -0.004  0.00  0.00    +0.210 HD
ENDBRANCH   1   2
BRANCH   1   4
ATOM      4  C   LIG    1       -0.056   0.065   0.058  0.00  0.00    +0.181 C 
BRANCH   4   5
ATOM      5  O   LIG    1       -0.504   1.413   0.020  0.00  0.00    -0.386 OA
ATOM      6  H   LIG    1       -0.232   1.844   0.834  0.00  0.00    +0.210 HD
ENDBRANCH   4   5
BRANCH   4   7
ATOM      7  C   LIG    1       -0.674  -0.688   1.278  0.00  0.00    +0.208 C 
BRANCH   7   8
ATOM      8  C   LIG    1       -2.207  -0.797   1.263  0.00  0.00    +0.257 C 
ATOM      9  O   LIG    1       -2.826  -1.019   0.223  0.00  0.00    -0.298 OA
ENDBRANCH   7   8
BRANCH   7  10
ATOM     10  O   LIG    1       -0.298  -0.089   2.507  0.00  0.00    -0.382 OA
ATOM     11  H   LIG    1       -0.585  -0.656   3.226  0.00  0.00    +0.210 HD
ENDBRANCH   7  10
ENDBRANCH   4   7
ENDBRANCH   1   4
BRANCH   1  12
ATOM     12  C   LIG    1        2.146   0.796  -1.188  0.00  0.00    +0.171 C 
BRANCH  12  13
ATOM     13  O   LIG    1        1.623   0.342  -2.424  0.00  0.00    -0.387 OA
ATOM     14  H   LIG    1        0.667   0.422  -2.397  0.00  0.00    +0.210 HD
ENDBRANCH  12  13
BRANCH  12  15
ATOM     15  C   LIG    1        3.689   0.716  -1.255  0.00  0.00    +0.189 C 
BRANCH  15  16
ATOM     16  O   LIG    1        4.287   1.337  -0.135  0.00  0.00    -0.392 OA
ATOM     17  H   LIG    1        5.241   1.297  -0.235  0.00  0.00    +0.210 HD
ENDBRANCH  15  16
ENDBRANCH  12  15
ENDBRANCH   1  12
TORSDOF 10
