REMARK  Name = DB11584
REMARK                            x       y       z     vdW  Elec       q    Type
REMARK                         _______ _______ _______ _____ _____    ______ ____
ROOT
ATOM      1  C   LIG    1        1.341  -0.014  -0.023  0.00  0.00    +0.131 C 
ENDROOT
BRANCH   1   2
ATOM      2  C   LIG    1        1.821   1.488   0.051  0.00  0.00    +0.094 C 
ATOM      3  C   LIG    1        1.351   2.269   1.322  0.00  0.00    +0.022 C 
ATOM      4  C   LIG    1        1.769   3.747   1.345  0.00  0.00    +0.003 C 
ATOM      5  C   LIG    1        1.465   4.423   0.008  0.00  0.00    +0.015 C 
ATOM      6  C   LIG    1        2.120   3.661  -1.154  0.00  0.00    +0.081 C 
ATOM      7  N   LIG    1        1.701   2.262  -1.199  0.00  0.00    -0.310 NA
ATOM      8  H   LIG    1        2.198   1.788  -1.940  0.00  0.00    +0.122 HD
ENDBRANCH   1   2
BRANCH   1   9
ATOM      9  C   LIG    1        1.881  -0.740  -1.287  0.00  0.00    -0.010 A 
ATOM     10  C   LIG    1        3.228  -0.619  -1.669  0.00  0.00    +0.007 A 
ATOM     11  C   LIG    1        3.712  -1.276  -2.796  0.00  0.00    +0.000 A 
ATOM     12  C   LIG    1        2.855  -2.066  -3.556  0.00  0.00    +0.000 A 
ATOM     13  C   LIG    1        1.519  -2.205  -3.195  0.00  0.00    +0.000 A 
ATOM     14  C   LIG    1        1.036  -1.547  -2.067  0.00  0.00    +0.007 A 
ENDBRANCH   1   9
BRANCH   1  15
ATOM     15  C   LIG    1        1.786  -0.799   1.241  0.00  0.00    -0.010 A 
ATOM     16  C   LIG    1        3.134  -0.810   1.636  0.00  0.00    +0.007 A 
ATOM     17  C   LIG    1        3.540  -1.506   2.770  0.00  0.00    +0.000 A 
ATOM     18  C   LIG    1        2.602  -2.204   3.524  0.00  0.00    +0.000 A 
ATOM     19  C   LIG    1        1.261  -2.210   3.151  0.00  0.00    +0.000 A 
ATOM     20  C   LIG    1        0.857  -1.512   2.017  0.00  0.00    +0.007 A 
ENDBRANCH   1  15
BRANCH   1  21
ATOM     21  O   LIG    1       -0.078   0.125  -0.084  0.00  0.00    -0.378 OA
ATOM     22  H   LIG    1       -0.282   0.791  -0.745  0.00  0.00    +0.211 HD
ENDBRANCH   1  21
TORSDOF 4
