REMARK  Name = DB11682
REMARK                            x       y       z     vdW  Elec       q    Type
REMARK                         _______ _______ _______ _____ _____    ______ ____
ROOT
ATOM      1  N   LIG    1       -1.072  -1.736   0.967  0.00  0.00    -0.221 N 
ATOM      2  C   LIG    1       -1.967  -1.646  -0.079  0.00  0.00    +0.318 C 
ATOM      3  O   LIG    1       -3.189  -1.571   0.096  0.00  0.00    -0.252 OA
ATOM      4  N   LIG    1       -1.387  -1.468  -1.319  0.00  0.00    -0.221 N 
ATOM      5  C   LIG    1       -0.163  -0.889  -1.565  0.00  0.00    +0.244 C 
ATOM      6  O   LIG    1        0.365  -0.793  -2.678  0.00  0.00    -0.274 OA
ATOM      7  C   LIG    1        0.461  -0.311  -0.257  0.00  0.00    +0.247 C 
ATOM      8  C   LIG    1        0.191  -1.193   1.002  0.00  0.00    +0.244 C 
ATOM      9  O   LIG    1        1.000  -1.338   1.924  0.00  0.00    -0.274 OA
ENDROOT
BRANCH   1  13
ATOM     10  C   LIG    1       -1.361  -3.827   4.857  0.00  0.00    +0.000 C 
ATOM     11  C   LIG    1       -1.294  -4.685   3.585  0.00  0.00    +0.002 C 
ATOM     12  C   LIG    1       -0.785  -3.890   2.367  0.00  0.00    +0.023 C 
ATOM     13  C   LIG    1       -1.522  -2.536   2.148  0.00  0.00    +0.086 C 
ATOM     14  C   LIG    1       -1.762  -1.727   3.455  0.00  0.00    +0.023 C 
ATOM     15  C   LIG    1       -2.241  -2.587   4.640  0.00  0.00    +0.002 C 
ENDBRANCH   1  13
BRANCH   4  16
ATOM     16  C   LIG    1       -2.160  -1.992  -2.487  0.00  0.00    +0.086 C 
ATOM     17  C   LIG    1       -2.721  -0.915  -3.459  0.00  0.00    +0.023 C 
ATOM     18  C   LIG    1       -3.528  -1.497  -4.635  0.00  0.00    +0.002 C 
ATOM     19  C   LIG    1       -2.779  -2.627  -5.359  0.00  0.00    +0.000 C 
ATOM     20  C   LIG    1       -2.394  -3.748  -4.382  0.00  0.00    +0.002 C 
ATOM     21  C   LIG    1       -1.549  -3.233  -3.201  0.00  0.00    +0.023 C 
ENDBRANCH   4  16
BRANCH   7  22
ATOM     22  C   LIG    1        1.973   0.011  -0.425  0.00  0.00    +0.234 C 
ATOM     23  N   LIG    1        2.814  -1.018  -0.671  0.00  0.00    -0.304 N 
ATOM     24  H   LIG    1        2.427  -1.947  -0.745  0.00  0.00    +0.149 HD
ATOM     25  O   LIG    1        2.359   1.177  -0.326  0.00  0.00    -0.274 OA
BRANCH  23  26
ATOM     26  C   LIG    1        4.270  -0.912  -0.831  0.00  0.00    +0.224 C 
BRANCH  26  27
ATOM     27  C   LIG    1        4.975  -0.999   0.537  0.00  0.00    +0.322 C 
ATOM     28  O   LIG    1        4.419  -1.168   1.605  0.00  0.00    -0.249 OA
BRANCH  27  29
ATOM     29  O   LIG    1        6.321  -0.860   0.361  0.00  0.00    -0.480 OA
ATOM     30  H   LIG    1        6.802  -0.903   1.190  0.00  0.00    +0.295 HD
ENDBRANCH  27  29
ENDBRANCH  26  27
ENDBRANCH  23  26
ENDBRANCH   7  22
TORSDOF 6
