REMARK  Name = DB11902
REMARK                            x       y       z     vdW  Elec       q    Type
REMARK                         _______ _______ _______ _____ _____    ______ ____
ROOT
ATOM      1  C   LIG    1        1.682  -0.102   0.188  0.00  0.00    +0.081 A 
ATOM      2  C   LIG    1        2.402  -1.322   0.209  0.00  0.00    +0.226 A 
ATOM      3  N   LIG    1        3.767  -1.362   0.261  0.00  0.00    -0.219 NA
ATOM      4  C   LIG    1        4.456  -0.199   0.290  0.00  0.00    +0.143 A 
ATOM      5  C   LIG    1        3.832   1.045   0.265  0.00  0.00    +0.124 A 
ATOM      6  C   LIG    1        2.438   1.086   0.211  0.00  0.00    +0.047 A 
ENDROOT
BRANCH   1  14
ATOM      7  C   LIG    1       -2.947  -1.866  -0.026  0.00  0.00    +0.065 A 
ATOM      8  N   LIG    1       -4.104  -1.105  -0.002  0.00  0.00    -0.263 N 
ATOM      9  N   LIG    1       -3.870   0.218   0.073  0.00  0.00    -0.164 NA
ATOM     10  C   LIG    1       -2.563   0.325   0.098  0.00  0.00    +0.175 A 
ATOM     11  C   LIG    1       -1.764   1.539   0.182  0.00  0.00    +0.280 A 
ATOM     12  N   LIG    1       -0.431   1.211   0.200  0.00  0.00    -0.305 N 
ATOM     13  H   LIG    1        0.179   2.012   0.268  0.00  0.00    +0.170 HD
ATOM     14  C   LIG    1        0.192  -0.036   0.142  0.00  0.00    +0.147 A 
ATOM     15  N   LIG    1       -0.577  -1.078   0.052  0.00  0.00    -0.225 NA
ATOM     16  O   LIG    1       -2.144   2.707   0.235  0.00  0.00    -0.265 OA
ATOM     17  C   LIG    1       -1.931  -0.923   0.037  0.00  0.00    +0.119 A 
BRANCH   7  19
ATOM     18  C   LIG    1       -3.193  -3.914  -1.511  0.00  0.00    +0.010 C 
ATOM     19  C   LIG    1       -2.905  -3.382  -0.100  0.00  0.00    +0.054 C 
ENDBRANCH   7  19
BRANCH   8  20
ATOM     20  C   LIG    1       -5.494  -1.563  -0.057  0.00  0.00    +0.172 C 
BRANCH  20  21
ATOM     21  C   LIG    1       -6.142  -1.287  -1.429  0.00  0.00    +0.182 C 
BRANCH  21  22
ATOM     22  O   LIG    1       -6.271   0.111  -1.648  0.00  0.00    -0.381 OA
ATOM     23  C   LIG    1       -6.856   0.438  -2.899  0.00  0.00    +0.194 C 
ENDBRANCH  21  22
ENDBRANCH  20  21
ENDBRANCH   8  20
ENDBRANCH   1  14
BRANCH   5  24
ATOM     24  S   LIG    1        4.797   2.551   0.271  0.00  0.00    +0.062 S 
ATOM     25  O   LIG    1        6.089   2.247   0.898  0.00  0.00    -0.153 OA
ATOM     26  O   LIG    1        3.935   3.604   0.820  0.00  0.00    -0.153 OA
BRANCH  24  27
ATOM     27  N   LIG    1        5.079   2.898  -1.442  0.00  0.00    -0.174 NA
ATOM     28  C   LIG    1        6.126   2.078  -2.095  0.00  0.00    +0.125 C 
ATOM     29  C   LIG    1        6.032   2.249  -3.628  0.00  0.00    +0.101 C 
ATOM     30  N   LIG    1        6.194   3.676  -3.976  0.00  0.00    -0.300 NA
ATOM     31  C   LIG    1        5.135   4.481  -3.337  0.00  0.00    +0.101 C 
ATOM     32  C   LIG    1        5.218   4.329  -1.800  0.00  0.00    +0.125 C 
BRANCH  30  33
ATOM     33  C   LIG    1        6.176   3.899  -5.426  0.00  0.00    +0.081 C 
ATOM     34  C   LIG    1        7.410   3.316  -6.137  0.00  0.00    +0.020 C 
ENDBRANCH  30  33
ENDBRANCH  24  27
ENDBRANCH   5  24
BRANCH   2  35
ATOM     35  O   LIG    1        1.731  -2.536   0.176  0.00  0.00    -0.476 OA
BRANCH  35  36
ATOM     36  C   LIG    1        2.447  -3.769   0.114  0.00  0.00    +0.227 C 
ATOM     37  C   LIG    1        1.432  -4.908  -0.025  0.00  0.00    +0.048 C 
ENDBRANCH  35  36
ENDBRANCH   2  35
TORSDOF 10
