REMARK  Name = DB11906
REMARK                            x       y       z     vdW  Elec       q    Type
REMARK                         _______ _______ _______ _____ _____    ______ ____
ROOT
ATOM      1  C   LIG    1        4.025  -1.279  -0.726  0.00  0.00    +0.163 C 
ENDROOT
BRANCH   1   2
ATOM      2  N   LIG    1        4.707  -2.573  -0.683  0.00  0.00    -0.302 N 
ATOM      3  H   LIG    1        5.197  -2.841  -1.525  0.00  0.00    +0.150 HD
ATOM      4  C   LIG    1        4.730  -3.398   0.378  0.00  0.00    +0.236 C 
ATOM      5  O   LIG    1        4.179  -3.161   1.454  0.00  0.00    -0.274 OA
BRANCH   4   6
ATOM      6  CA  LIG    1        5.547  -4.691   0.205  0.00  0.00    +0.184 C 
BRANCH   6   7
ATOM      7  N   LIG    1        6.934  -4.454   0.596  0.00  0.00    -0.301 N 
ATOM      8  H   LIG    1        7.170  -4.710   1.544  0.00  0.00    +0.150 HD
ATOM      9  C   LIG    1        7.881  -3.917  -0.192  0.00  0.00    +0.234 C 
ATOM     10  O   LIG    1        7.687  -3.578  -1.361  0.00  0.00    -0.274 OA
BRANCH   9  11
ATOM     11  CA  LIG    1        9.269  -3.733   0.465  0.00  0.00    +0.163 C 
BRANCH  11  12
ATOM     12  N   LIG    1       10.069  -2.689  -0.189  0.00  0.00    -0.302 N 
ATOM     13  H   LIG    1       10.148  -1.830   0.336  0.00  0.00    +0.150 HD
ATOM     14  C   LIG    1       10.695  -2.765  -1.378  0.00  0.00    +0.234 C 
ATOM     15  O   LIG    1       10.686  -3.756  -2.108  0.00  0.00    -0.274 OA
BRANCH  14  16
ATOM     16  CA  LIG    1       11.483  -1.503  -1.786  0.00  0.00    +0.163 C 
BRANCH  16  17
ATOM     17  N   LIG    1       11.355  -1.218  -3.221  0.00  0.00    -0.302 N 
ATOM     18  H   LIG    1       10.692  -0.488  -3.440  0.00  0.00    +0.150 HD
ATOM     19  C   LIG    1       11.977  -1.819  -4.252  0.00  0.00    +0.234 C 
ATOM     20  O   LIG    1       12.804  -2.723  -4.125  0.00  0.00    -0.274 OA
BRANCH  19  21
ATOM     21  CA  LIG    1       11.557  -1.336  -5.663  0.00  0.00    +0.163 C 
BRANCH  21  22
ATOM     22  N   LIG    1       12.188  -2.114  -6.739  0.00  0.00    -0.304 N 
ATOM     23  H   LIG    1       11.572  -2.759  -7.213  0.00  0.00    +0.149 HD
ATOM     24  C   LIG    1       13.474  -2.057  -7.131  0.00  0.00    +0.211 C 
ATOM     25  C   LIG    1       13.876  -2.983  -8.275  0.00  0.00    +0.109 C 
ATOM     26  O   LIG    1       14.315  -1.317  -6.624  0.00  0.00    -0.276 OA
ENDBRANCH  21  22
BRANCH  21  27
ATOM     27  C   LIG    1       11.714   0.203  -5.872  0.00  0.00    +0.067 C 
BRANCH  27  28
ATOM     28  C   LIG    1       10.622   1.031  -5.198  0.00  0.00    -0.045 A 
ATOM     29  C   LIG    1        9.302   0.944  -5.645  0.00  0.00    +0.012 A 
ATOM     30  C   LIG    1        8.277   1.700  -5.024  0.00  0.00    -0.018 A 
ATOM     31  C   LIG    1        6.930   1.627  -5.457  0.00  0.00    +0.008 A 
ATOM     32  C   LIG    1        5.949   2.392  -4.831  0.00  0.00    +0.001 A 
ATOM     33  C   LIG    1        6.277   3.235  -3.775  0.00  0.00    +0.001 A 
ATOM     34  C   LIG    1        7.589   3.323  -3.318  0.00  0.00    +0.008 A 
ATOM     35  C   LIG    1        8.612   2.561  -3.935  0.00  0.00    -0.018 A 
ATOM     36  C   LIG    1        9.959   2.633  -3.503  0.00  0.00    +0.009 A 
ATOM     37  C   LIG    1       10.942   1.878  -4.136  0.00  0.00    +0.004 A 
ENDBRANCH  27  28
ENDBRANCH  21  27
ENDBRANCH  19  21
ENDBRANCH  16  17
BRANCH  16  38
ATOM     38  C   LIG    1       12.957  -1.541  -1.281  0.00  0.00    +0.067 C 
BRANCH  38  39
ATOM     39  C   LIG    1       13.093  -1.512   0.243  0.00  0.00    -0.045 A 
ATOM     40  C   LIG    1       13.774  -2.542   0.898  0.00  0.00    +0.005 A 
ATOM     41  C   LIG    1       13.887  -2.534   2.285  0.00  0.00    +0.020 A 
ATOM     42  C   LIG    1       13.323  -1.491   3.019  0.00  0.00    +0.041 A 
ATOM     43 CL   LIG    1       13.461  -1.482   4.739  0.00  0.00    -0.084 Cl
ATOM     44  C   LIG    1       12.652  -0.455   2.373  0.00  0.00    +0.020 A 
ATOM     45  C   LIG    1       12.538  -0.463   0.985  0.00  0.00    +0.005 A 
ENDBRANCH  38  39
ENDBRANCH  16  38
ENDBRANCH  14  16
ENDBRANCH  11  12
BRANCH  11  46
ATOM     46  C   LIG    1       10.050  -5.072   0.625  0.00  0.00    +0.068 C 
BRANCH  46  47
ATOM     47  C   LIG    1        9.463  -5.987   1.695  0.00  0.00    -0.027 A 
ATOM     48  C   LIG    1        9.601  -5.681   3.054  0.00  0.00    +0.114 A 
ATOM     49  N   LIG    1        9.078  -6.451   4.042  0.00  0.00    -0.263 NA
ATOM     50  C   LIG    1        8.397  -7.569   3.681  0.00  0.00    +0.111 A 
ATOM     51  C   LIG    1        8.218  -7.952   2.351  0.00  0.00    +0.020 A 
ATOM     52  C   LIG    1        8.762  -7.147   1.348  0.00  0.00    +0.006 A 
ENDBRANCH  46  47
ENDBRANCH  11  46
ENDBRANCH   9  11
ENDBRANCH   6   7
BRANCH   6  53
ATOM     53  C   LIG    1        5.006  -5.878   1.033  0.00  0.00    +0.187 C 
BRANCH  53  54
ATOM     54  O   LIG    1        3.670  -6.189   0.691  0.00  0.00    -0.393 OA
ATOM     55  H   LIG    1        3.104  -5.475   0.995  0.00  0.00    +0.209 HD
ENDBRANCH  53  54
ENDBRANCH   6  53
ENDBRANCH   4   6
ENDBRANCH   1   2
BRANCH   1  58
ATOM     56  N   LIG    1        1.780  -0.410  -0.350  0.00  0.00    -0.302 N 
ATOM     57  H   LIG    1        2.278   0.372   0.051  0.00  0.00    +0.150 HD
ATOM     58  C   LIG    1        2.491  -1.443  -0.828  0.00  0.00    +0.234 C 
ATOM     59  O   LIG    1        2.005  -2.451  -1.342  0.00  0.00    -0.274 OA
BRANCH  56  60
ATOM     60  C   LIG    1        0.330  -0.243  -0.406  0.00  0.00    +0.163 C 
BRANCH  60  63
ATOM     61  N   LIG    1       -1.186   1.082   0.973  0.00  0.00    -0.302 N 
ATOM     62  H   LIG    1       -1.722   0.228   1.029  0.00  0.00    +0.150 HD
ATOM     63  C   LIG    1       -0.015   1.077   0.313  0.00  0.00    +0.234 C 
ATOM     64  O   LIG    1        0.716   2.061   0.181  0.00  0.00    -0.274 OA
BRANCH  61  65
ATOM     65  C   LIG    1       -1.847   2.273   1.499  0.00  0.00    +0.159 C 
BRANCH  65  68
ATOM     66  N   LIG    1       -0.663   4.130   2.544  0.00  0.00    -0.302 N 
ATOM     67  H   LIG    1       -0.845   4.612   1.676  0.00  0.00    +0.150 HD
ATOM     68  C   LIG    1       -1.090   2.867   2.697  0.00  0.00    +0.234 C 
ATOM     69  O   LIG    1       -0.923   2.188   3.711  0.00  0.00    -0.274 OA
BRANCH  66  70
ATOM     70  C   LIG    1        0.032   4.902   3.570  0.00  0.00    +0.159 C 
BRANCH  70  73
ATOM     71  C   LIG    1       -1.600   5.784   6.972  0.00  0.00    +0.162 C 
ATOM     72  N   LIG    1       -0.800   5.149   5.911  0.00  0.00    -0.288 N 
ATOM     73  C   LIG    1       -0.988   5.440   4.600  0.00  0.00    +0.237 C 
ATOM     74  O   LIG    1       -1.914   6.139   4.184  0.00  0.00    -0.274 OA
ATOM     75  C   LIG    1        0.211   4.247   6.473  0.00  0.00    +0.109 C 
ATOM     76  C   LIG    1        0.137   4.430   7.986  0.00  0.00    +0.021 C 
ATOM     77  C   LIG    1       -1.276   4.942   8.216  0.00  0.00    +0.033 C 
BRANCH  71  80
ATOM     78  N   LIG    1       -2.158   8.149   6.696  0.00  0.00    -0.303 N 
ATOM     79  H   LIG    1       -3.028   7.778   6.343  0.00  0.00    +0.149 HD
ATOM     80  C   LIG    1       -1.231   7.274   7.126  0.00  0.00    +0.234 C 
ATOM     81  O   LIG    1       -0.123   7.582   7.566  0.00  0.00    -0.274 OA
BRANCH  78  83
ATOM     82  C   LIG    1       -0.940  10.008   5.609  0.00  0.00    +0.038 C 
ATOM     83  C   LIG    1       -2.042   9.610   6.617  0.00  0.00    +0.156 C 
BRANCH  83  84
ATOM     84  C   LIG    1       -1.851  10.278   7.997  0.00  0.00    +0.231 C 
ATOM     85  N   LIG    1       -2.949  10.758   8.589  0.00  0.00    -0.328 N 
ATOM     86  H   LIG    1       -2.879  11.208   9.491  0.00  0.00    +0.145 HD
ATOM     87  H   LIG    1       -3.852  10.673   8.145  0.00  0.00    +0.145 HD
ATOM     88  O   LIG    1       -0.733  10.370   8.502  0.00  0.00    -0.274 OA
ENDBRANCH  83  84
ENDBRANCH  78  83
ENDBRANCH  71  80
ENDBRANCH  70  73
BRANCH  70  89
ATOM     89  C   LIG    1        0.769   6.063   2.866  0.00  0.00    +0.032 C 
BRANCH  89  90
ATOM     90  C   LIG    1        1.580   6.956   3.825  0.00  0.00    +0.000 C 
BRANCH  90  91
ATOM     91  C   LIG    1        2.318   8.093   3.107  0.00  0.00    -0.019 C 
BRANCH  91  92
ATOM     92  C   LIG    1        3.084   8.988   4.093  0.00  0.00    -0.082 C 
BRANCH  92  93
ATOM     93  N   LIG    1        3.765  10.048   3.358  0.00  0.00    +0.381 N 
ATOM     94  H   LIG    1        3.087  10.524   2.781  0.00  0.00    -0.086 HD
ATOM     95  H   LIG    1        4.448   9.646   2.731  0.00  0.00    -0.086 HD
BRANCH  93  96
ATOM     96  C   LIG    1        4.417  11.040   4.215  0.00  0.00    -0.078 C 
ATOM     97  C   LIG    1        5.630  10.450   4.966  0.00  0.00    -0.014 C 
ATOM     98  C   LIG    1        4.835  12.224   3.325  0.00  0.00    -0.014 C 
ENDBRANCH  93  96
ENDBRANCH  92  93
ENDBRANCH  91  92
ENDBRANCH  90  91
ENDBRANCH  89  90
ENDBRANCH  70  89
ENDBRANCH  66  70
ENDBRANCH  65  68
BRANCH  65  99
ATOM     99  C   LIG    1       -3.311   1.911   1.844  0.00  0.00    +0.034 C 
BRANCH  99 100
ATOM    100  C   LIG    1       -4.221   3.106   2.210  0.00  0.00    -0.015 C 
ATOM    101  C   LIG    1       -4.352   4.114   1.047  0.00  0.00    +0.007 C 
ATOM    102  C   LIG    1       -5.596   2.615   2.713  0.00  0.00    +0.007 C 
ENDBRANCH  99 100
ENDBRANCH  65  99
ENDBRANCH  61  65
ENDBRANCH  60  63
BRANCH  60 103
ATOM    103  C   LIG    1       -0.234  -0.281  -1.867  0.00  0.00    +0.067 C 
BRANCH 103 104
ATOM    104  C   LIG    1       -1.708   0.113  -1.962  0.00  0.00    -0.045 A 
ATOM    105  C   LIG    1       -2.693  -0.750  -1.476  0.00  0.00    +0.005 A 
ATOM    106  C   LIG    1       -4.019  -0.331  -1.424  0.00  0.00    +0.023 A 
ATOM    107  C   LIG    1       -4.364   0.958  -1.859  0.00  0.00    +0.033 A 
ATOM    108  C   LIG    1       -3.386   1.791  -2.406  0.00  0.00    +0.023 A 
ATOM    109  C   LIG    1       -2.061   1.372  -2.453  0.00  0.00    +0.005 A 
BRANCH 107 110
ATOM    110  N   LIG    1       -5.666   1.479  -1.788  0.00  0.00    -0.286 N 
ATOM    111  H   LIG    1       -5.870   2.218  -2.444  0.00  0.00    +0.155 HD
ATOM    112  C   LIG    1       -6.615   1.198  -0.871  0.00  0.00    +0.214 C 
ATOM    113  C   LIG    1       -7.942   1.931  -1.041  0.00  0.00    +0.109 C 
ATOM    114  O   LIG    1       -6.473   0.435   0.085  0.00  0.00    -0.276 OA
ENDBRANCH 107 110
ENDBRANCH 103 104
ENDBRANCH  60 103
ENDBRANCH  56  60
ENDBRANCH   1  58
BRANCH   1 115
ATOM    115  C   LIG    1        4.601  -0.390  -1.864  0.00  0.00    +0.067 C 
BRANCH 115 116
ATOM    116  C   LIG    1        4.133   1.061  -1.776  0.00  0.00    -0.045 A 
ATOM    117  C   LIG    1        4.635   1.894  -0.775  0.00  0.00    +0.005 A 
ATOM    118  C   LIG    1        4.155   3.194  -0.640  0.00  0.00    +0.023 A 
ATOM    119  C   LIG    1        3.166   3.672  -1.515  0.00  0.00    +0.033 A 
ATOM    120  C   LIG    1        2.685   2.840  -2.530  0.00  0.00    +0.023 A 
ATOM    121  C   LIG    1        3.168   1.542  -2.663  0.00  0.00    +0.005 A 
BRANCH 119 122
ATOM    122  N   LIG    1        2.585   4.953  -1.453  0.00  0.00    -0.286 N 
ATOM    123  H   LIG    1        1.875   5.116  -2.152  0.00  0.00    +0.155 HD
ATOM    124  C   LIG    1        2.828   5.975  -0.604  0.00  0.00    +0.214 C 
ATOM    125  C   LIG    1        1.976   7.223  -0.818  0.00  0.00    +0.109 C 
ATOM    126  O   LIG    1        3.659   5.977   0.302  0.00  0.00    -0.276 OA
ENDBRANCH 119 122
ENDBRANCH 115 116
ENDBRANCH   1 115
TORSDOF 41
