REMARK  Name = DB11962
REMARK                            x       y       z     vdW  Elec       q    Type
REMARK                         _______ _______ _______ _____ _____    ______ ____
ROOT
ATOM      1  C   LIG    1       -0.722  -1.254   0.204  0.00  0.00    +0.010 A 
ATOM      2  C   LIG    1        0.002  -0.064   0.230  0.00  0.00    -0.023 A 
ATOM      3  C   LIG    1       -0.672   1.153   0.090  0.00  0.00    +0.018 A 
ATOM      4  C   LIG    1       -2.088   1.209  -0.049  0.00  0.00    +0.009 A 
ATOM      5  C   LIG    1       -2.838   2.431  -0.174  0.00  0.00    -0.007 A 
ATOM      6  C   LIG    1       -4.219   2.324  -0.379  0.00  0.00    +0.029 A 
ATOM      7  C   LIG    1       -4.825   1.075  -0.417  0.00  0.00    +0.112 A 
ATOM      8  N   LIG    1       -4.151  -0.086  -0.269  0.00  0.00    -0.255 NA
ATOM      9  C   LIG    1       -2.804  -0.030  -0.092  0.00  0.00    +0.072 A 
ATOM     10  C   LIG    1       -2.103  -1.252   0.041  0.00  0.00    +0.029 A 
ENDROOT
BRANCH   2  11
ATOM     11  C   LIG    1        1.467  -0.128   0.399  0.00  0.00    +0.028 C 
ATOM     12  C   LIG    1        2.248   0.701   1.134  0.00  0.00    +0.080 C 
ATOM     13  S   LIG    1        1.788   2.055   2.160  0.00  0.00    -0.026 S 
ATOM     14  C   LIG    1        3.523   2.330   2.582  0.00  0.00    +0.283 C 
ATOM     15  O   LIG    1        3.827   3.248   3.340  0.00  0.00    -0.262 OA
ATOM     16  N   LIG    1        4.274   1.428   1.962  0.00  0.00    -0.243 N 
ATOM     17  H   LIG    1        5.251   1.423   2.078  0.00  0.00    +0.159 HD
ATOM     18  C   LIG    1        3.686   0.544   1.195  0.00  0.00    +0.258 C 
ATOM     19  O   LIG    1        4.307  -0.330   0.587  0.00  0.00    -0.269 OA
ENDBRANCH   2  11
BRANCH   5  20
ATOM     20  C   LIG    1       -2.227   3.791  -0.086  0.00  0.00    -0.014 A 
ATOM     21  C   LIG    1       -2.529   4.775  -1.040  0.00  0.00    +0.028 A 
ATOM     22  C   LIG    1       -1.942   6.037  -0.933  0.00  0.00    +0.111 A 
ATOM     23  N   LIG    1       -1.083   6.368   0.063  0.00  0.00    -0.263 NA
ATOM     24  C   LIG    1       -0.796   5.418   0.987  0.00  0.00    +0.111 A 
ATOM     25  C   LIG    1       -1.345   4.135   0.950  0.00  0.00    +0.028 A 
ENDBRANCH   5  20
TORSDOF 2
