REMARK  Name = DB11150
REMARK                            x       y       z     vdW  Elec       q    Type
REMARK                         _______ _______ _______ _____ _____    ______ ____
ROOT
ATOM      1  S   LIG    1        0.000   0.000   0.000  0.00  0.00    +0.205 S 
ATOM      2  O   LIG    1        0.788  -0.475   1.143  0.00  0.00    -0.118 OA
ATOM      3  O   LIG    1       -0.962  -1.035  -0.395  0.00  0.00    -0.118 OA
ENDROOT
BRANCH   1   4
ATOM      4  O   LIG    1        0.896   0.289  -1.125  0.00  0.00    -0.231 OA
ATOM      5  H   LIG    1        0.375   0.604  -1.881  0.00  0.00    +0.247 HD
ENDBRANCH   1   4
BRANCH   1   6
ATOM      6  O   LIG    1       -0.721   1.220   0.377  0.00  0.00    -0.231 OA
ATOM      7  H   LIG    1       -1.242   1.535  -0.379  0.00  0.00    +0.247 HD
ENDBRANCH   1   6
TORSDOF 2
