REMARK  Name = DB11720
REMARK                            x       y       z     vdW  Elec       q    Type
REMARK                         _______ _______ _______ _____ _____    ______ ____
ROOT
ATOM      1  CA  TYR A  4       -1.480   1.217  -0.339  0.00  0.00    +0.163 C 
ENDROOT
BRANCH   1   2
ATOM      2  N   TYR A  4       -0.184   0.546  -0.375  0.00  0.00    -0.302 N 
ATOM      3  H   TYR A  4        0.523   0.988  -0.945  0.00  0.00    +0.150 HD
ATOM      4  C   VAL A  3        0.107  -0.586   0.285  0.00  0.00    +0.234 C 
ATOM      5  O   VAL A  3       -0.688  -1.201   0.998  0.00  0.00    -0.274 OA
BRANCH   4   6
ATOM      6  CA  VAL A  3        1.541  -1.123   0.100  0.00  0.00    +0.161 C 
BRANCH   6   7
ATOM      7  N   VAL A  3        2.088  -1.598   1.373  0.00  0.00    -0.302 N 
ATOM      8  H   VAL A  3        2.141  -2.600   1.480  0.00  0.00    +0.150 HD
ATOM      9  C   ARG A  2        2.461  -0.807   2.392  0.00  0.00    +0.234 C 
ATOM     10  O   ARG A  2        2.428   0.425   2.369  0.00  0.00    -0.274 OA
BRANCH   9  11
ATOM     11  CA  ARG A  2        2.908  -1.536   3.671  0.00  0.00    +0.159 C 
BRANCH  11  12
ATOM     12  N   ARG A  2        3.990  -0.822   4.354  0.00  0.00    -0.305 N 
ATOM     13  H   ARG A  2        3.724  -0.318   5.188  0.00  0.00    +0.149 HD
ATOM     14  C   ASP A  1        5.259  -0.744   3.916  0.00  0.00    +0.200 C 
ATOM     15  O   ASP A  1        5.660  -1.304   2.890  0.00  0.00    -0.278 OA
BRANCH  14  16
ATOM     16  CA  ASP A  1        6.193   0.141   4.781  0.00  0.00    +0.023 C 
BRANCH  16  17
ATOM     17  N   ASP A  1        7.527  -0.562   4.849  0.00  0.00    +0.386 N 
ATOM     18  H1  ASP A  1        7.838  -0.766   3.910  0.00  0.00    -0.089 HD
ATOM     19  H2  ASP A  1        8.190   0.051   5.301  0.00  0.00    -0.089 HD
ATOM     20  H3  ASP A  1        7.430  -1.416   5.380  0.00  0.00    -0.089 HD
ENDBRANCH  16  17
BRANCH  16  21
ATOM     21  CB  ASP A  1        6.257   1.598   4.227  0.00  0.00    +0.113 C 
BRANCH  21  22
ATOM     22  CG  ASP A  1        7.054   2.635   5.048  0.00  0.00    +0.304 C 
ATOM     23  OD1 ASP A  1        7.291   3.724   4.484  0.00  0.00    -0.251 OA
BRANCH  22  24
ATOM     24  OD2 ASP A  1        7.319   2.382   6.245  0.00  0.00    -0.481 OA
ATOM     25  HD2 ASP A  1        7.112   1.541   6.603  0.00  0.00    +0.295 HD
ENDBRANCH  22  24
ENDBRANCH  21  22
ENDBRANCH  16  21
ENDBRANCH  14  16
ENDBRANCH  11  12
BRANCH  11  26
ATOM     26  CB  ARG A  2        1.707  -1.700   4.627  0.00  0.00    +0.033 C 
BRANCH  26  27
ATOM     27  CG  ARG A  2        2.029  -2.488   5.915  0.00  0.00    +0.017 C 
BRANCH  27  28
ATOM     28  CD  ARG A  2        0.814  -2.696   6.841  0.00  0.00    +0.084 C 
BRANCH  28  29
ATOM     29  NE  ARG A  2        0.372  -1.452   7.498  0.00  0.00    -0.283 NA
ATOM     30  HE  ARG A  2       -0.299  -0.903   6.978  0.00  0.00    +0.125 HD
BRANCH  29  31
ATOM     31  CZ  ARG A  2        0.799  -0.954   8.676  0.00  0.00    +0.167 C 
BRANCH  31  32
ATOM     32  NH1 ARG A  2        0.295   0.212   9.102  0.00  0.00    -0.297 NA
ATOM     33 HH11 ARG A  2       -0.392   0.702   8.546  0.00  0.00    +0.121 HD
ATOM     34 HH12 ARG A  2        0.599   0.607   9.981  0.00  0.00    +0.121 HD
ENDBRANCH  31  32
BRANCH  31  35
ATOM     35  NH2 ARG A  2        1.711  -1.582   9.438  0.00  0.00    -0.297 NA
ATOM     36 HH21 ARG A  2        2.098  -2.466   9.136  0.00  0.00    +0.121 HD
ATOM     37 HH22 ARG A  2        2.005  -1.181  10.317  0.00  0.00    +0.121 HD
ENDBRANCH  31  35
ENDBRANCH  29  31
ENDBRANCH  28  29
ENDBRANCH  27  28
ENDBRANCH  26  27
ENDBRANCH  11  26
ENDBRANCH   9  11
ENDBRANCH   6   7
BRANCH   6  38
ATOM     38  CB  VAL A  3        1.529  -2.270  -0.956  0.00  0.00    +0.012 C 
ATOM     39  CG2 VAL A  3        0.804  -1.933  -2.279  0.00  0.00    +0.009 C 
ATOM     40  CG1 VAL A  3        2.960  -2.745  -1.271  0.00  0.00    +0.009 C 
ENDBRANCH   6  38
ENDBRANCH   4   6
ENDBRANCH   1   2
BRANCH   1  43
ATOM     41  N   ILE A  5       -2.921   1.785  -2.217  0.00  0.00    -0.302 N 
ATOM     42  H   ILE A  5       -3.583   1.170  -1.768  0.00  0.00    +0.150 HD
ATOM     43  C   TYR A  4       -1.713   1.963  -1.659  0.00  0.00    +0.234 C 
ATOM     44  O   TYR A  4       -0.833   2.699  -2.107  0.00  0.00    -0.274 OA
BRANCH  41  45
ATOM     45  CA  ILE A  5       -3.433   2.519  -3.374  0.00  0.00    +0.162 C 
BRANCH  45  48
ATOM     46  N   HIS A  6       -4.462   4.725  -3.619  0.00  0.00    -0.302 N 
ATOM     47  H   HIS A  6       -3.854   4.826  -4.420  0.00  0.00    +0.150 HD
ATOM     48  C   ILE A  5       -4.425   3.596  -2.895  0.00  0.00    +0.234 C 
ATOM     49  O   ILE A  5       -5.135   3.381  -1.911  0.00  0.00    -0.274 OA
BRANCH  46  50
ATOM     50  CA  HIS A  6       -5.355   5.848  -3.354  0.00  0.00    +0.165 C 
BRANCH  50  56
ATOM     51  N   PRO A  7       -7.171   5.728  -5.051  0.00  0.00    -0.286 N 
ATOM     52  CD  PRO A  7       -7.811   4.586  -4.395  0.00  0.00    +0.109 C 
ATOM     53  CG  PRO A  7       -8.567   3.887  -5.513  0.00  0.00    +0.021 C 
ATOM     54  CB  PRO A  7       -9.040   5.047  -6.369  0.00  0.00    +0.035 C 
ATOM     55  CA  PRO A  7       -7.916   6.110  -6.280  0.00  0.00    +0.184 C 
ATOM     56  C   HIS A  6       -5.992   6.296  -4.685  0.00  0.00    +0.237 C 
ATOM     57  O   HIS A  6       -5.402   7.134  -5.369  0.00  0.00    -0.274 OA
BRANCH  55  58
ATOM     58  C   PRO A  7       -8.491   7.575  -6.387  0.00  0.00    +0.325 C 
ATOM     59  O   PRO A  7       -8.962   7.850  -7.515  0.00  0.00    -0.249 OA
BRANCH  58  60
ATOM     60  OXT PRO A  7       -8.469   8.278  -5.350  0.00  0.00    -0.479 OA
ATOM     61  HXT PRO A  7       -8.079   7.944  -4.566  0.00  0.00    +0.295 HD
ENDBRANCH  58  60
ENDBRANCH  55  58
ENDBRANCH  50  56
BRANCH  50  62
ATOM     62  CB  HIS A  6       -4.552   6.967  -2.655  0.00  0.00    +0.086 C 
BRANCH  62  63
ATOM     63  CG  HIS A  6       -5.391   8.106  -2.131  0.00  0.00    +0.038 A 
ATOM     64  CD2 HIS A  6       -5.466   9.433  -2.493  0.00  0.00    +0.133 A 
ATOM     65  NE2 HIS A  6       -6.409  10.089  -1.697  0.00  0.00    -0.244 NA
ATOM     66  CE1 HIS A  6       -6.871   9.138  -0.893  0.00  0.00    +0.196 A 
ATOM     67  ND1 HIS A  6       -6.305   7.947  -1.103  0.00  0.00    -0.348 N 
ATOM     68  HD1 HIS A  6       -6.504   7.091  -0.605  0.00  0.00    +0.166 HD
ENDBRANCH  62  63
ENDBRANCH  50  62
ENDBRANCH  46  50
ENDBRANCH  45  48
BRANCH  45  69
ATOM     69  CB  ILE A  5       -4.147   1.554  -4.372  0.00  0.00    +0.015 C 
ATOM     70  CG2 ILE A  5       -5.382   0.830  -3.789  0.00  0.00    +0.010 C 
BRANCH  69  71
ATOM     71  CG1 ILE A  5       -4.503   2.242  -5.713  0.00  0.00    +0.002 C 
ATOM     72  CD1 ILE A  5       -4.837   1.262  -6.847  0.00  0.00    +0.004 C 
ENDBRANCH  69  71
ENDBRANCH  45  69
ENDBRANCH  41  45
ENDBRANCH   1  43
BRANCH   1  73
ATOM     73  CB  TYR A  4       -1.549   2.147   0.897  0.00  0.00    +0.067 C 
BRANCH  73  74
ATOM     74  CG  TYR A  4       -2.785   3.029   0.990  0.00  0.00    -0.045 A 
ATOM     75  CD2 TYR A  4       -4.028   2.466   1.343  0.00  0.00    +0.007 A 
ATOM     76  CE2 TYR A  4       -5.179   3.276   1.411  0.00  0.00    +0.045 A 
ATOM     77  CZ  TYR A  4       -5.089   4.653   1.125  0.00  0.00    +0.117 A 
ATOM     78  CE1 TYR A  4       -3.847   5.220   0.783  0.00  0.00    +0.045 A 
ATOM     79  CD1 TYR A  4       -2.698   4.410   0.712  0.00  0.00    +0.007 A 
BRANCH  77  80
ATOM     80  OH  TYR A  4       -6.206   5.436   1.174  0.00  0.00    -0.507 OA
ATOM     81  HH  TYR A  4       -6.993   4.944   1.417  0.00  0.00    +0.292 HD
ENDBRANCH  77  80
ENDBRANCH  73  74
ENDBRANCH   1  73
TORSDOF 32
