REMARK  Name = DB11201
REMARK                            x       y       z     vdW  Elec       q    Type
REMARK                         _______ _______ _______ _____ _____    ______ ____
ROOT
ATOM      1  O   LIG    1        1.309   1.854   1.414  0.00  0.00    -0.457 OA
ENDROOT
BRANCH   1   3
ATOM      2  C   LIG    1        1.496  -0.142  -0.018  0.00  0.00    +0.032 C 
ATOM      3  C   LIG    1        1.909   0.561   1.310  0.00  0.00    +0.180 C 
ATOM      4  C   LIG    1        3.452   0.660   1.413  0.00  0.00    +0.048 C 
ATOM      5  C   LIG    1        4.085  -0.749   1.392  0.00  0.00    -0.011 C 
ATOM      6  C   LIG    1        5.610  -0.691   1.587  0.00  0.00    +0.007 C 
ATOM      7  C   LIG    1        3.710  -1.440   0.061  0.00  0.00    +0.004 C 
ATOM      8  C   LIG    1        2.180  -1.538  -0.100  0.00  0.00    +0.007 C 
BRANCH   2  10
ATOM      9  C   LIG    1       -0.830  -0.957   0.815  0.00  0.00    +0.007 C 
ATOM     10  C   LIG    1       -0.046  -0.173  -0.257  0.00  0.00    -0.011 C 
ATOM     11  C   LIG    1       -0.419  -0.655  -1.674  0.00  0.00    +0.007 C 
ENDBRANCH   2  10
ENDBRANCH   1   3
BRANCH   1  12
ATOM     12  C   LIG    1        1.042   2.441   2.614  0.00  0.00    +0.343 C 
ATOM     13  O   LIG    1        1.304   1.902   3.693  0.00  0.00    -0.245 OA
BRANCH  12  14
ATOM     14  C   LIG    1        0.398   3.802   2.482  0.00  0.00    +0.100 A 
ATOM     15  C   LIG    1        0.043   4.581   3.610  0.00  0.00    +0.131 A 
ATOM     16  C   LIG    1       -0.549   5.835   3.445  0.00  0.00    +0.046 A 
ATOM     17  C   LIG    1       -0.799   6.340   2.172  0.00  0.00    +0.004 A 
ATOM     18  C   LIG    1       -0.458   5.589   1.053  0.00  0.00    +0.001 A 
ATOM     19  C   LIG    1        0.133   4.337   1.206  0.00  0.00    +0.018 A 
BRANCH  15  20
ATOM     20  O   LIG    1        0.253   4.162   4.901  0.00  0.00    -0.506 OA
ATOM     21  H   LIG    1       -0.043   4.801   5.554  0.00  0.00    +0.292 HD
ENDBRANCH  15  20
ENDBRANCH  12  14
ENDBRANCH   1  12
TORSDOF 5
