REMARK  Name = DB11970
REMARK                            x       y       z     vdW  Elec       q    Type
REMARK                         _______ _______ _______ _____ _____    ______ ____
ROOT
ATOM      1  C   LIG    1       -2.088   3.855   0.812  0.00  0.00    +0.074 C 
ATOM      2  C   LIG    1       -0.697   3.717   0.909  0.00  0.00    +0.109 C 
ATOM      3  N   LIG    1       -0.038   2.638   0.414  0.00  0.00    -0.262 NA
ATOM      4  H   LIG    1        0.636   2.978  -0.272  0.00  0.00    +0.127 HD
ATOM      5  C   LIG    1       -0.789   1.678  -0.190  0.00  0.00    +0.175 C 
ATOM      6  N   LIG    1       -2.127   1.777  -0.302  0.00  0.00    -0.261 NA
ATOM      7  H   LIG    1       -2.633   1.033  -0.761  0.00  0.00    +0.127 HD
ATOM      8  C   LIG    1       -2.824   2.836   0.176  0.00  0.00    +0.115 C 
ENDROOT
BRANCH   8   9
ATOM      9  N   LIG    1       -4.256   2.874   0.023  0.00  0.00    -0.279 NA
ATOM     10  C   LIG    1       -4.957   1.960  -0.919  0.00  0.00    +0.101 C 
ATOM     11  C   LIG    1       -6.450   1.737  -0.576  0.00  0.00    +0.100 C 
ATOM     12  N   LIG    1       -7.168   3.005  -0.423  0.00  0.00    -0.299 NA
ATOM     13  C   LIG    1       -6.553   3.746   0.684  0.00  0.00    +0.100 C 
ATOM     14  C   LIG    1       -5.061   4.062   0.410  0.00  0.00    +0.101 C 
BRANCH  12  15
ATOM     15  C   LIG    1       -8.593   2.738  -0.191  0.00  0.00    +0.096 C 
BRANCH  15  16
ATOM     16  C   LIG    1       -9.466   4.008  -0.257  0.00  0.00    +0.142 C 
BRANCH  16  17
ATOM     17  P   LIG    1      -11.293   3.602  -0.142  0.00  0.00    +0.329 P 
ATOM     18  O   LIG    1      -11.514   2.609   0.977  0.00  0.00    -0.259 OA
BRANCH  17  19
ATOM     19  O   LIG    1      -11.409   2.756  -1.628  0.00  0.00    -0.324 OA
ATOM     20  H   LIG    1      -11.237   1.800  -1.719  0.00  0.00    +0.220 HD
ENDBRANCH  17  19
BRANCH  17  21
ATOM     21  O   LIG    1      -12.088   4.882  -0.271  0.00  0.00    -0.324 OA
ATOM     22  H   LIG    1      -12.037   5.380   0.560  0.00  0.00    +0.220 HD
ENDBRANCH  17  21
ENDBRANCH  16  17
ENDBRANCH  15  16
ENDBRANCH  12  15
ENDBRANCH   8   9
BRANCH   2  23
ATOM     23  N   LIG    1        0.064   4.705   1.529  0.00  0.00    -0.310 NA
ATOM     24  H   LIG    1        1.065   4.588   1.588  0.00  0.00    +0.120 HD
ATOM     25  H   LIG    1       -0.390   5.522   1.910  0.00  0.00    +0.120 HD
ENDBRANCH   2  23
BRANCH   5  26
ATOM     26  N   LIG    1       -0.127   0.534  -0.716  0.00  0.00    -0.282 NA
ATOM     27  H   LIG    1       -0.678  -0.184  -1.164  0.00  0.00    +0.125 HD
BRANCH  26  28
ATOM     28  C   LIG    1        1.333   0.342  -0.654  0.00  0.00    +0.087 C 
BRANCH  28  29
ATOM     29  C   LIG    1        1.860  -0.979  -1.272  0.00  0.00    +0.003 C 
ATOM     30  C   LIG    1        1.577  -1.116  -2.791  0.00  0.00    +0.005 C 
ATOM     31  C   LIG    1        2.217  -2.397  -3.366  0.00  0.00    +0.002 C 
ATOM     32  C   LIG    1        1.714  -3.663  -2.631  0.00  0.00    -0.028 C 
ATOM     33  C   LIG    1        2.021  -3.524  -1.115  0.00  0.00    +0.002 C 
ATOM     34  C   LIG    1        1.376  -2.251  -0.527  0.00  0.00    +0.005 C 
BRANCH  32  35
ATOM     35  C   LIG    1        2.318  -4.935  -3.275  0.00  0.00    -0.079 C 
BRANCH  35  36
ATOM     36  N   LIG    1        1.769  -6.209  -2.609  0.00  0.00    +0.379 N 
ATOM     37  H   LIG    1        0.762  -6.214  -2.696  0.00  0.00    -0.086 HD
ATOM     38  H   LIG    1        1.998  -6.183  -1.625  0.00  0.00    -0.086 HD
BRANCH  36  39
ATOM     39  C   LIG    1        2.326  -7.509  -3.211  0.00  0.00    -0.084 C 
BRANCH  39  40
ATOM     40  C   LIG    1        1.754  -8.711  -2.447  0.00  0.00    -0.038 C 
BRANCH  40  41
ATOM     41  C   LIG    1        2.280 -10.046  -2.996  0.00  0.00    -0.084 C 
BRANCH  41  42
ATOM     42  N   LIG    1        1.701 -11.201  -2.162  0.00  0.00    +0.381 N 
ATOM     43  H   LIG    1        0.696 -11.214  -2.266  0.00  0.00    -0.086 HD
ATOM     44  H   LIG    1        1.877 -11.035  -1.181  0.00  0.00    -0.086 HD
BRANCH  42  45
ATOM     45  C   LIG    1        2.235 -12.605  -2.508  0.00  0.00    -0.072 C 
ATOM     46  C   LIG    1        1.721 -13.567  -1.407  0.00  0.00    -0.016 C 
ATOM     47  C   LIG    1        2.063 -15.040  -1.706  0.00  0.00    -0.002 C 
ATOM     48  C   LIG    1        1.553 -15.475  -3.094  0.00  0.00    -0.000 C 
ATOM     49  C   LIG    1        2.029 -14.523  -4.208  0.00  0.00    -0.002 C 
ATOM     50  C   LIG    1        1.699 -13.050  -3.894  0.00  0.00    -0.016 C 
ENDBRANCH  42  45
ENDBRANCH  41  42
ENDBRANCH  40  41
ENDBRANCH  39  40
ENDBRANCH  36  39
ENDBRANCH  35  36
ENDBRANCH  32  35
ENDBRANCH  28  29
ENDBRANCH  26  28
ENDBRANCH   5  26
TORSDOF 17
