REMARK  Name = DB11175
REMARK                            x       y       z     vdW  Elec       q    Type
REMARK                         _______ _______ _______ _____ _____    ______ ____
ROOT
ATOM      1  CG  LYS A  1       -2.096  -1.161   0.000  0.00  0.00    +0.004 A 
ATOM      2  CB  LYS A  1       -0.701  -1.193   0.000  0.00  0.00    +0.035 A 
ATOM      3  CA  LYS A  1        0.031   0.015   0.000  0.00  0.00    +0.147 A 
ATOM      4  N   LYS A  1       -0.634   1.213   0.000  0.00  0.00    -0.248 NA
ATOM      5  CE  LYS A  1       -1.990   1.228   0.000  0.00  0.00    +0.111 A 
ATOM      6  CD  LYS A  1       -2.757   0.065   0.000  0.00  0.00    +0.020 A 
ENDROOT
BRANCH   3   7
ATOM      7  C   LYS A  1        1.547   0.013   0.000  0.00  0.00    +0.355 C 
ATOM      8  O   LYS A  1        2.150  -1.088   0.000  0.00  0.00    -0.243 OA
BRANCH   7   9
ATOM      9  OXT LYS A  1        2.154   1.111   0.000  0.00  0.00    -0.476 OA
ATOM     10  HXT LYS A  1        1.671   1.914   0.000  0.00  0.00    +0.295 HD
ENDBRANCH   7   9
ENDBRANCH   3   7
TORSDOF 2
