REMARK  Name = DB11891
REMARK                            x       y       z     vdW  Elec       q    Type
REMARK                         _______ _______ _______ _____ _____    ______ ____
ROOT
ATOM      1  C   LIG    1        2.015  -0.832  -1.393  0.00  0.00    +0.010 A 
ATOM      2  S   LIG    1        1.545  -0.258  -2.988  0.00  0.00    -0.087 S 
ATOM      3  C   LIG    1        2.470  -1.525  -3.794  0.00  0.00    +0.078 A 
ATOM      4  C   LIG    1        2.666  -1.834  -5.162  0.00  0.00    +0.140 A 
ATOM      5  N   LIG    1        3.526  -2.837  -5.490  0.00  0.00    -0.211 NA
ATOM      6  C   LIG    1        4.130  -3.539  -4.495  0.00  0.00    +0.164 A 
ATOM      7  N   LIG    1        3.964  -3.313  -3.163  0.00  0.00    -0.227 NA
ATOM      8  C   LIG    1        3.151  -2.308  -2.823  0.00  0.00    +0.084 A 
ATOM      9  C   LIG    1        2.878  -1.907  -1.491  0.00  0.00    +0.041 A 
ENDROOT
BRANCH   4  10
ATOM     10  N   LIG    1        2.036  -1.146  -6.204  0.00  0.00    -0.310 N 
ATOM     11  C   LIG    1        2.462  -1.336  -7.606  0.00  0.00    +0.134 C 
ATOM     12  C   LIG    1        1.943  -0.228  -8.548  0.00  0.00    +0.178 C 
ATOM     13  O   LIG    1        0.528  -0.147  -8.469  0.00  0.00    -0.377 OA
ATOM     14  C   LIG    1        0.086   0.129  -7.148  0.00  0.00    +0.178 C 
ATOM     15  C   LIG    1        0.569  -0.982  -6.192  0.00  0.00    +0.134 C 
ENDBRANCH   4  10
BRANCH   6  16
ATOM     16  C   LIG    1        5.048  -4.659  -4.900  0.00  0.00    +0.037 A 
ATOM     17  C   LIG    1        5.667  -5.496  -3.955  0.00  0.00    +0.126 A 
ATOM     18  N   LIG    1        6.498  -6.520  -4.273  0.00  0.00    -0.221 NA
ATOM     19  C   LIG    1        6.754  -6.757  -5.590  0.00  0.00    +0.214 A 
ATOM     20  C   LIG    1        6.190  -5.981  -6.601  0.00  0.00    +0.068 A 
ATOM     21  C   LIG    1        5.338  -4.934  -6.250  0.00  0.00    +0.018 A 
BRANCH  19  22
ATOM     22  O   LIG    1        7.595  -7.796  -5.947  0.00  0.00    -0.480 OA
ATOM     23  C   LIG    1        8.174  -8.614  -4.932  0.00  0.00    +0.279 C 
ENDBRANCH  19  22
ENDBRANCH   6  16
BRANCH   1  24
ATOM     24  C   LIG    1        1.490  -0.161  -0.137  0.00  0.00    +0.150 C 
BRANCH  24  26
ATOM     25  C   LIG    1       -0.686   1.063   0.130  0.00  0.00    +0.132 C 
ATOM     26  N   LIG    1        0.026  -0.209  -0.003  0.00  0.00    -0.298 N 
BRANCH  26  27
ATOM     27  C   LIG    1       -0.650  -1.437   0.248  0.00  0.00    +0.218 A 
ATOM     28  N   LIG    1       -1.999  -1.403   0.455  0.00  0.00    -0.222 NA
ATOM     29  C   LIG    1       -2.632  -2.581   0.692  0.00  0.00    +0.129 A 
ATOM     30  C   LIG    1       -1.958  -3.812   0.732  0.00  0.00    +0.075 A 
ATOM     31  C   LIG    1       -0.576  -3.751   0.512  0.00  0.00    +0.129 A 
ATOM     32  N   LIG    1        0.081  -2.588   0.274  0.00  0.00    -0.222 NA
BRANCH  30  33
ATOM     33  C   LIG    1       -2.651  -5.130   0.996  0.00  0.00    +0.269 C 
ATOM     34  N   LIG    1       -3.994  -5.090   1.097  0.00  0.00    -0.193 N 
ATOM     35  H   LIG    1       -4.604  -4.287   1.050  0.00  0.00    +0.183 HD
ATOM     36  O   LIG    1       -1.993  -6.169   1.100  0.00  0.00    -0.268 OA
BRANCH  34  37
ATOM     37  O   LIG    1       -4.675  -6.278   1.383  0.00  0.00    -0.295 OA
ATOM     38  H   LIG    1       -4.949  -6.161   2.296  0.00  0.00    +0.241 HD
ENDBRANCH  34  37
ENDBRANCH  30  33
ENDBRANCH  26  27
ENDBRANCH  24  26
ENDBRANCH   1  24
TORSDOF 8
