REMARK  Name = DB11591
REMARK                            x       y       z     vdW  Elec       q    Type
REMARK                         _______ _______ _______ _____ _____    ______ ____
ROOT
ATOM      1  C   LIG    1       -2.589   0.350  -1.095  0.00  0.00    +0.058 C 
ATOM      2  C   LIG    1       -1.931   0.977   0.155  0.00  0.00    +0.026 C 
ATOM      3  C   LIG    1       -0.392   0.886   0.114  0.00  0.00    +0.085 C 
ATOM      4  N   LIG    1        0.067  -0.497  -0.076  0.00  0.00    -0.302 NA
ATOM      5  C   LIG    1       -0.451  -1.058  -1.329  0.00  0.00    +0.085 C 
ATOM      6  C   LIG    1       -1.995  -1.047  -1.377  0.00  0.00    +0.026 C 
ENDROOT
BRANCH   1   7
ATOM      7  C   LIG    1       -4.114   0.385  -1.105  0.00  0.00    +0.114 A 
ATOM      8  N   LIG    1       -4.874   0.579  -2.249  0.00  0.00    -0.325 N 
ATOM      9  C   LIG    1       -6.196   0.579  -1.845  0.00  0.00    +0.069 A 
ATOM     10  C   LIG    1       -6.137   0.349  -0.448  0.00  0.00    +0.089 A 
ATOM     11  C   LIG    1       -7.321   0.280   0.300  0.00  0.00    +0.030 A 
ATOM     12  C   LIG    1       -8.533   0.446  -0.371  0.00  0.00    +0.002 A 
ATOM     13  C   LIG    1       -8.574   0.677  -1.746  0.00  0.00    +0.002 A 
ATOM     14  C   LIG    1       -7.412   0.749  -2.519  0.00  0.00    +0.028 A 
ATOM     15  N   LIG    1       -4.843   0.228  -0.025  0.00  0.00    -0.232 NA
BRANCH   8  16
ATOM     16  C   LIG    1       -4.392   0.812  -3.610  0.00  0.00    +0.151 C 
BRANCH  16  17
ATOM     17  C   LIG    1       -4.315   2.318  -3.919  0.00  0.00    +0.181 C 
BRANCH  17  18
ATOM     18  O   LIG    1       -3.401   2.943  -3.028  0.00  0.00    -0.378 OA
BRANCH  18  19
ATOM     19  C   LIG    1       -3.279   4.344  -3.208  0.00  0.00    +0.156 C 
ATOM     20  C   LIG    1       -2.267   4.875  -2.188  0.00  0.00    +0.034 C 
ENDBRANCH  18  19
ENDBRANCH  17  18
ENDBRANCH  16  17
ENDBRANCH   8  16
ENDBRANCH   1   7
BRANCH   4  21
ATOM     21  C   LIG    1        1.529  -0.609   0.019  0.00  0.00    +0.089 C 
BRANCH  21  22
ATOM     22  C   LIG    1        2.012  -1.060   1.418  0.00  0.00    +0.050 C 
BRANCH  22  23
ATOM     23  C   LIG    1        1.520  -0.213   2.585  0.00  0.00    -0.046 A 
ATOM     24  C   LIG    1        0.396  -0.608   3.308  0.00  0.00    +0.004 A 
ATOM     25  C   LIG    1       -0.074   0.186   4.349  0.00  0.00    +0.005 A 
ATOM     26  C   LIG    1        0.566   1.390   4.686  0.00  0.00    -0.031 A 
ATOM     27  C   LIG    1        1.710   1.763   3.960  0.00  0.00    +0.005 A 
ATOM     28  C   LIG    1        2.181   0.970   2.917  0.00  0.00    +0.004 A 
BRANCH  26  29
ATOM     29  C   LIG    1        0.010   2.257   5.850  0.00  0.00    +0.087 C 
ATOM     30  C   LIG    1        0.824   3.559   6.106  0.00  0.00    +0.027 C 
ATOM     31  C   LIG    1        0.059   1.425   7.163  0.00  0.00    +0.027 C 
BRANCH  29  32
ATOM     32  C   LIG    1       -1.457   2.670   5.524  0.00  0.00    +0.315 C 
ATOM     33  O   LIG    1       -2.420   2.417   6.248  0.00  0.00    -0.250 OA
BRANCH  32  34
ATOM     34  O   LIG    1       -1.556   3.334   4.333  0.00  0.00    -0.480 OA
ATOM     35  H   LIG    1       -2.462   3.575   4.125  0.00  0.00    +0.295 HD
ENDBRANCH  32  34
ENDBRANCH  29  32
ENDBRANCH  26  29
ENDBRANCH  22  23
ENDBRANCH  21  22
ENDBRANCH   4  21
TORSDOF 11
