REMARK  Name = DB11839
REMARK                            x       y       z     vdW  Elec       q    Type
REMARK                         _______ _______ _______ _____ _____    ______ ____
ROOT
ATOM      1  C   UNK A  3        3.517   1.164   0.714  0.00  0.00    +0.184 C 
ENDROOT
BRANCH   1   4
ATOM      2  C   LYS A  2        1.537   0.007  -0.237  0.00  0.00    +0.234 C 
ATOM      3  O   LYS A  2        2.142  -1.020  -0.551  0.00  0.00    -0.274 OA
ATOM      4  N   UNK A  3        2.102   1.066   0.361  0.00  0.00    -0.301 N 
ATOM      5  H   UNK A  3        1.536   1.869   0.596  0.00  0.00    +0.150 HD
BRANCH   2   6
ATOM      6  CA  LYS A  2        0.028   0.127  -0.508  0.00  0.00    +0.159 C 
BRANCH   6   9
ATOM      7  C   LYS A  1       -0.238  -0.325  -2.938  0.00  0.00    +0.234 C 
ATOM      8  O   LYS A  1        0.212   0.758  -3.312  0.00  0.00    -0.274 OA
ATOM      9  N   LYS A  2       -0.375  -0.689  -1.653  0.00  0.00    -0.302 N 
ATOM     10  H   LYS A  2       -0.762  -1.596  -1.435  0.00  0.00    +0.150 HD
BRANCH   7  11
ATOM     11  CA  LYS A  1       -0.703  -1.359  -3.978  0.00  0.00    +0.159 C 
BRANCH  11  13
ATOM     12  C   UNK A  0       -3.176  -1.152  -3.844  0.00  0.00    +0.214 C 
ATOM     13  N   LYS A  1       -2.015  -0.979  -4.500  0.00  0.00    -0.304 N 
ATOM     14  H   LYS A  1       -2.013  -0.479  -5.378  0.00  0.00    +0.149 HD
ATOM     15  O   UNK A  0       -3.267  -1.752  -2.771  0.00  0.00    -0.276 OA
BRANCH  12  16
ATOM     16  C   UNK A  0       -4.427  -0.534  -4.479  0.00  0.00    +0.096 C 
BRANCH  16  17
ATOM     17  C   UNK A  0       -4.657   0.942  -4.074  0.00  0.00    +0.009 C 
BRANCH  17  18
ATOM     18  C   UNK A  0       -4.816   1.187  -2.558  0.00  0.00    +0.000 C 
BRANCH  18  19
ATOM     19  C   UNK A  0       -5.123   2.653  -2.208  0.00  0.00    +0.000 C 
BRANCH  19  20
ATOM     20  C   UNK A  0       -5.274   2.878  -0.694  0.00  0.00    +0.000 C 
BRANCH  20  21
ATOM     21  C   UNK A  0       -5.588   4.338  -0.324  0.00  0.00    +0.000 C 
BRANCH  21  22
ATOM     22  C   UNK A  0       -5.801   4.536   1.187  0.00  0.00    -0.000 C 
BRANCH  22  23
ATOM     23  C   UNK A  0       -6.071   6.004   1.568  0.00  0.00    -0.000 C 
BRANCH  23  24
ATOM     24  C   UNK A  0       -6.459   6.217   3.045  0.00  0.00    -0.000 C 
BRANCH  24  25
ATOM     25  C   UNK A  0       -5.354   5.854   4.056  0.00  0.00    -0.000 C 
BRANCH  25  26
ATOM     26  C   UNK A  0       -5.757   6.157   5.511  0.00  0.00    -0.000 C 
BRANCH  26  27
ATOM     27  C   UNK A  0       -4.668   5.776   6.529  0.00  0.00    -0.000 C 
BRANCH  27  28
ATOM     28  C   UNK A  0       -5.080   6.071   7.983  0.00  0.00    -0.000 C 
BRANCH  28  29
ATOM     29  C   UNK A  0       -3.994   5.688   9.004  0.00  0.00    -0.003 C 
ATOM     30  C   UNK A  0       -4.412   5.969  10.454  0.00  0.00    +0.004 C 
ENDBRANCH  28  29
ENDBRANCH  27  28
ENDBRANCH  26  27
ENDBRANCH  25  26
ENDBRANCH  24  25
ENDBRANCH  23  24
ENDBRANCH  22  23
ENDBRANCH  21  22
ENDBRANCH  20  21
ENDBRANCH  19  20
ENDBRANCH  18  19
ENDBRANCH  17  18
ENDBRANCH  16  17
ENDBRANCH  12  16
ENDBRANCH  11  13
BRANCH  11  31
ATOM     31  CB  LYS A  1        0.288  -1.518  -5.154  0.00  0.00    +0.032 C 
BRANCH  31  32
ATOM     32  CG  LYS A  1        1.709  -1.938  -4.728  0.00  0.00    +0.000 C 
BRANCH  32  33
ATOM     33  CD  LYS A  1        2.645  -2.165  -5.923  0.00  0.00    -0.019 C 
BRANCH  33  34
ATOM     34  CE  LYS A  1        4.065  -2.558  -5.481  0.00  0.00    -0.086 C 
BRANCH  34  35
ATOM     35  NZ  LYS A  1        4.960  -2.767  -6.633  0.00  0.00    +0.378 N 
ATOM     36  HZ1 LYS A  1        4.596  -3.508  -7.215  0.00  0.00    -0.090 HD
ATOM     37  HZ2 LYS A  1        5.022  -1.916  -7.173  0.00  0.00    -0.090 HD
ATOM     38  HZ3 LYS A  1        5.880  -3.022  -6.303  0.00  0.00    -0.090 HD
ENDBRANCH  34  35
ENDBRANCH  33  34
ENDBRANCH  32  33
ENDBRANCH  31  32
ENDBRANCH  11  31
ENDBRANCH   7  11
ENDBRANCH   6   9
BRANCH   6  39
ATOM     39  CB  LYS A  2       -0.795  -0.304   0.723  0.00  0.00    +0.032 C 
BRANCH  39  40
ATOM     40  CG  LYS A  2       -2.292   0.028   0.592  0.00  0.00    +0.000 C 
BRANCH  40  41
ATOM     41  CD  LYS A  2       -3.109  -0.425   1.810  0.00  0.00    -0.019 C 
BRANCH  41  42
ATOM     42  CE  LYS A  2       -4.597  -0.062   1.682  0.00  0.00    -0.086 C 
BRANCH  42  43
ATOM     43  NZ  LYS A  2       -5.383  -0.563   2.823  0.00  0.00    +0.378 N 
ATOM     44  HZ1 LYS A  2       -5.304  -1.569   2.872  0.00  0.00    -0.090 HD
ATOM     45  HZ2 LYS A  2       -5.031  -0.158   3.679  0.00  0.00    -0.090 HD
ATOM     46  HZ3 LYS A  2       -6.353  -0.309   2.705  0.00  0.00    -0.090 HD
ENDBRANCH  42  43
ENDBRANCH  41  42
ENDBRANCH  40  41
ENDBRANCH  39  40
ENDBRANCH   6  39
ENDBRANCH   2   6
ENDBRANCH   1   4
BRANCH   1  47
ATOM     47  C   UNK A  3        3.677   2.037   1.968  0.00  0.00    +0.236 C 
ATOM     48  O   UNK A  3        2.940   3.008   2.143  0.00  0.00    -0.274 OA
ATOM     49  N   UNK A  3        4.662   1.672   2.805  0.00  0.00    -0.302 N 
ATOM     50  H   UNK A  3        5.228   0.868   2.576  0.00  0.00    +0.150 HD
BRANCH  49  51
ATOM     51  C   UNK A  3        5.025   2.381   4.031  0.00  0.00    +0.159 C 
BRANCH  51  52
ATOM     52  C   UNK A  3        5.824   3.660   3.732  0.00  0.00    +0.234 C 
ATOM     53  O   UNK A  3        6.618   3.681   2.790  0.00  0.00    -0.274 OA
ATOM     54  N   UNK A  3        5.624   4.682   4.581  0.00  0.00    -0.303 N 
ATOM     55  H   UNK A  3        4.954   4.577   5.330  0.00  0.00    +0.149 HD
BRANCH  54  56
ATOM     56  C   UNK A  3        6.374   5.937   4.574  0.00  0.00    +0.156 C 
ATOM     57  C   UNK A  3        5.469   7.058   5.115  0.00  0.00    +0.038 C 
BRANCH  56  58
ATOM     58  C   UNK A  3        7.660   5.773   5.400  0.00  0.00    +0.234 C 
ATOM     59  O   UNK A  3        7.672   6.093   6.590  0.00  0.00    -0.274 OA
ATOM     60  N   UNK A  3        8.707   5.237   4.751  0.00  0.00    -0.302 N 
ATOM     61  H   UNK A  3        8.612   5.000   3.774  0.00  0.00    +0.150 HD
BRANCH  60  62
ATOM     62  C   UNK A  3        9.996   4.906   5.361  0.00  0.00    +0.159 C 
BRANCH  62  63
ATOM     63  C   UNK A  3       10.961   6.098   5.229  0.00  0.00    +0.234 C 
ATOM     64  O   UNK A  3       11.883   6.062   4.414  0.00  0.00    -0.274 OA
ATOM     65  N   UNK A  3       10.703   7.146   6.030  0.00  0.00    -0.302 N 
ATOM     66  H   UNK A  3        9.921   7.095   6.668  0.00  0.00    +0.150 HD
BRANCH  65  67
ATOM     67  C   UNK A  3       11.486   8.381   6.082  0.00  0.00    +0.163 C 
BRANCH  67  68
ATOM     68  C   UNK A  3       12.864   8.172   6.749  0.00  0.00    +0.231 C 
ATOM     69  N   UNK A  3       13.923   8.690   6.120  0.00  0.00    -0.328 N 
ATOM     70  H   UNK A  3       14.845   8.591   6.520  0.00  0.00    +0.145 HD
ATOM     71  H   UNK A  3       13.810   9.180   5.245  0.00  0.00    +0.145 HD
ATOM     72  O   UNK A  3       12.949   7.580   7.824  0.00  0.00    -0.274 OA
ENDBRANCH  67  68
BRANCH  67  73
ATOM     73  C   UNK A  3       10.634   9.457   6.796  0.00  0.00    +0.067 C 
BRANCH  73  74
ATOM     74  C   UNK A  3       11.293  10.816   6.974  0.00  0.00    -0.045 A 
ATOM     75  C   UNK A  3       11.377  11.709   5.884  0.00  0.00    +0.004 A 
ATOM     76  C   UNK A  3       12.059  12.910   6.022  0.00  0.00    +0.000 A 
ATOM     77  C   UNK A  3       12.683  13.228   7.222  0.00  0.00    +0.000 A 
ATOM     78  C   UNK A  3       12.640  12.343   8.292  0.00  0.00    +0.000 A 
ATOM     79  C   UNK A  3       11.963  11.136   8.175  0.00  0.00    +0.004 A 
ENDBRANCH  73  74
ENDBRANCH  67  73
ENDBRANCH  65  67
ENDBRANCH  62  63
BRANCH  62  80
ATOM     80  C   UNK A  3       10.547   3.614   4.707  0.00  0.00    +0.034 C 
BRANCH  80  81
ATOM     81  C   UNK A  3        9.651   2.364   4.885  0.00  0.00    -0.015 C 
ATOM     82  C   UNK A  3       10.205   1.163   4.090  0.00  0.00    +0.007 C 
ATOM     83  C   UNK A  3        9.402   2.016   6.368  0.00  0.00    +0.007 C 
ENDBRANCH  80  81
ENDBRANCH  62  80
ENDBRANCH  60  62
ENDBRANCH  56  58
ENDBRANCH  54  56
ENDBRANCH  51  52
BRANCH  51  84
ATOM     84  C   UNK A  3        5.849   1.442   4.936  0.00  0.00    +0.033 C 
BRANCH  84  85
ATOM     85  C   UNK A  3        5.123   0.143   5.322  0.00  0.00    +0.017 C 
BRANCH  85  86
ATOM     86  C   UNK A  3        5.946  -0.720   6.290  0.00  0.00    +0.084 C 
BRANCH  86  87
ATOM     87  N   UNK A  3        5.331  -2.041   6.500  0.00  0.00    -0.283 NA
ATOM     88  H   UNK A  3        4.468  -2.204   6.000  0.00  0.00    +0.125 HD
BRANCH  87  89
ATOM     89  C   UNK A  3        5.795  -3.038   7.279  0.00  0.00    +0.167 C 
BRANCH  89  90
ATOM     90  N   UNK A  3        5.099  -4.182   7.343  0.00  0.00    -0.297 NA
ATOM     91  H   UNK A  3        4.245  -4.287   6.814  0.00  0.00    +0.121 HD
ATOM     92  H   UNK A  3        5.426  -4.944   7.920  0.00  0.00    +0.121 HD
ENDBRANCH  89  90
BRANCH  89  93
ATOM     93  N   UNK A  3        6.929  -2.928   7.992  0.00  0.00    -0.297 NA
ATOM     94  H   UNK A  3        7.466  -2.073   7.961  0.00  0.00    +0.121 HD
ATOM     95  H   UNK A  3        7.247  -3.697   8.565  0.00  0.00    +0.121 HD
ENDBRANCH  89  93
ENDBRANCH  87  89
ENDBRANCH  86  87
ENDBRANCH  85  86
ENDBRANCH  84  85
ENDBRANCH  51  84
ENDBRANCH  49  51
ENDBRANCH   1  47
BRANCH   1  96
ATOM     96  C   UNK A  3        4.308   1.708  -0.497  0.00  0.00    +0.187 C 
BRANCH  96  97
ATOM     97  O   UNK A  3        5.693   1.801  -0.228  0.00  0.00    -0.393 OA
ATOM     98  H   UNK A  3        5.840   2.528   0.383  0.00  0.00    +0.209 HD
ENDBRANCH  96  97
ENDBRANCH   1  96
TORSDOF 51
