REMARK  Name = DB11806
REMARK                            x       y       z     vdW  Elec       q    Type
REMARK                         _______ _______ _______ _____ _____    ______ ____
ROOT
ATOM      1  C   LIG    1        1.386  -0.106  -0.122  0.00  0.00    -0.041 A 
ATOM      2  C   LIG    1        2.116  -0.515   0.991  0.00  0.00    +0.008 A 
ATOM      3  C   LIG    1        3.522  -0.479   1.029  0.00  0.00    -0.038 A 
ATOM      4  C   LIG    1        4.249  -0.908   2.329  0.00  0.00    -0.010 C 
ATOM      5  C   LIG    1        3.699  -2.264   2.846  0.00  0.00    +0.016 C 
ATOM      6  C   LIG    1        4.079   0.226   3.371  0.00  0.00    +0.016 C 
ATOM      7  C   LIG    1        5.761  -1.134   2.061  0.00  0.00    +0.012 C 
ATOM      8  C   LIG    1        6.387  -0.016   1.225  0.00  0.00    +0.012 C 
ATOM      9  C   LIG    1        5.761   0.101  -0.190  0.00  0.00    -0.010 C 
ATOM     10  C   LIG    1        6.203   1.483  -0.741  0.00  0.00    +0.016 C 
ATOM     11  C   LIG    1        6.272  -1.068  -1.069  0.00  0.00    +0.016 C 
ATOM     12  C   LIG    1        4.215   0.011  -0.116  0.00  0.00    -0.038 A 
ATOM     13  C   LIG    1        3.456   0.387  -1.239  0.00  0.00    +0.005 A 
ATOM     14  C   LIG    1        2.069   0.333  -1.248  0.00  0.00    +0.004 A 
ENDROOT
BRANCH   1  16
ATOM     15  C   LIG    1       -0.854   1.230  -0.054  0.00  0.00    +0.023 C 
ATOM     16  C   LIG    1       -0.142  -0.113  -0.093  0.00  0.00    -0.000 C 
ATOM     17  C   LIG    1       -0.796  -1.042  -1.136  0.00  0.00    +0.017 C 
ATOM     18  C   LIG    1       -0.945   0.289   1.135  0.00  0.00    +0.020 C 
BRANCH  15  20
ATOM     19  C   LIG    1        0.216   3.191   1.198  0.00  0.00    -0.001 C 
ATOM     20  C   LIG    1       -0.078   2.535   0.057  0.00  0.00    -0.022 C 
BRANCH  19  22
ATOM     21  C   LIG    1        0.467   5.547   2.126  0.00  0.00    +0.044 C 
ATOM     22  C   LIG    1        1.014   4.408   1.273  0.00  0.00    -0.044 C 
ATOM     23  C   LIG    1        2.161   4.495   0.547  0.00  0.00    +0.094 C 
BRANCH  23  24
ATOM     24  C   LIG    1        3.157   5.676   0.484  0.00  0.00    +0.330 C 
ATOM     25  O   LIG    1        3.553   5.939  -0.673  0.00  0.00    -0.246 OA
BRANCH  24  26
ATOM     26  O   LIG    1        3.512   6.157   1.585  0.00  0.00    -0.478 OA
ATOM     27  H   LIG    1        3.117   5.853   2.378  0.00  0.00    +0.295 HD
ENDBRANCH  24  26
ENDBRANCH  23  24
ENDBRANCH  19  22
ENDBRANCH  15  20
ENDBRANCH   1  16
TORSDOF 5
