REMARK  Name = DB11804
REMARK                            x       y       z     vdW  Elec       q    Type
REMARK                         _______ _______ _______ _____ _____    ______ ____
ROOT
ATOM      1  C   LIG    1        1.329  -0.180  -0.468  0.00  0.00    +0.073 C 
ATOM      2  C   LIG    1        2.079   0.355  -1.715  0.00  0.00    +0.004 C 
ATOM      3  C   LIG    1        3.609   0.312  -1.584  0.00  0.00    -0.077 C 
ATOM      4  N   LIG    1        4.018   1.062  -0.297  0.00  0.00    +0.380 N 
ATOM      5  H   LIG    1        3.613   1.986  -0.358  0.00  0.00    -0.082 HD
ATOM      6  C   LIG    1        3.419   0.386   0.955  0.00  0.00    -0.077 C 
ATOM      7  C   LIG    1        1.884   0.409   0.853  0.00  0.00    +0.004 C 
ENDROOT
BRANCH   1   8
ATOM      8  N   LIG    1       -0.149  -0.149  -0.562  0.00  0.00    -0.299 N 
ATOM      9  C   LIG    1       -0.954  -1.233  -0.367  0.00  0.00    +0.220 C 
ATOM     10  O   LIG    1       -2.185  -1.144  -0.417  0.00  0.00    -0.275 OA
BRANCH   8  12
ATOM     11  C   LIG    1       -1.249   1.332  -2.291  0.00  0.00    +0.024 C 
ATOM     12  C   LIG    1       -0.740   1.174  -0.847  0.00  0.00    +0.104 C 
ENDBRANCH   8  12
BRANCH   9  13
ATOM     13  C   LIG    1       -0.316  -2.612  -0.074  0.00  0.00    +0.131 C 
BRANCH  13  14
ATOM     14  C   LIG    1       -1.330  -3.739   0.123  0.00  0.00    -0.039 A 
ATOM     15  C   LIG    1       -1.752  -4.084   1.410  0.00  0.00    +0.006 A 
ATOM     16  C   LIG    1       -2.695  -5.092   1.586  0.00  0.00    +0.027 A 
ATOM     17  C   LIG    1       -3.219  -5.756   0.475  0.00  0.00    +0.088 A 
ATOM     18  C   LIG    1       -2.801  -5.414  -0.812  0.00  0.00    +0.027 A 
ATOM     19  C   LIG    1       -1.857  -4.406  -0.988  0.00  0.00    +0.006 A 
BRANCH  17  20
ATOM     20  S   LIG    1       -4.452  -7.034   0.707  0.00  0.00    -0.006 S 
ATOM     21  C   LIG    1       -6.066  -6.062   0.771  0.00  0.00    +0.200 C 
ATOM     22  O   LIG    1       -4.218  -7.637   2.024  0.00  0.00    -0.170 OA
ATOM     23  O   LIG    1       -4.458  -7.870  -0.499  0.00  0.00    -0.170 OA
ENDBRANCH  17  20
ENDBRANCH  13  14
ENDBRANCH   9  13
ENDBRANCH   1   8
BRANCH   4  24
ATOM     24  C   LIG    1        5.552   1.254  -0.202  0.00  0.00    -0.078 C 
BRANCH  24  25
ATOM     25  C   LIG    1        6.332  -0.051   0.090  0.00  0.00    -0.006 C 
BRANCH  25  26
ATOM     26  C   LIG    1        7.867   0.102  -0.088  0.00  0.00    +0.047 C 
BRANCH  26  27
ATOM     27  C   LIG    1        8.703  -1.036   0.515  0.00  0.00    -0.035 A 
ATOM     28  C   LIG    1        8.181  -2.322   0.721  0.00  0.00    +0.042 A 
ATOM     29  C   LIG    1        8.975  -3.329   1.271  0.00  0.00    +0.126 A 
ATOM     30  F   LIG    1        8.460  -4.565   1.463  0.00  0.00    -0.205 F 
ATOM     31  C   LIG    1       10.298  -3.064   1.620  0.00  0.00    +0.076 A 
ATOM     32  C   LIG    1       10.829  -1.792   1.418  0.00  0.00    +0.126 A 
ATOM     33  F   LIG    1       12.113  -1.533   1.753  0.00  0.00    -0.205 F 
ATOM     34  C   LIG    1       10.035  -0.784   0.869  0.00  0.00    +0.042 A 
ENDBRANCH  26  27
BRANCH  26  35
ATOM     35  C   LIG    1        8.240   0.374  -1.549  0.00  0.00    -0.040 A 
ATOM     36  C   LIG    1        8.733   1.626  -1.926  0.00  0.00    +0.006 A 
ATOM     37  C   LIG    1        9.040   1.884  -3.259  0.00  0.00    +0.027 A 
ATOM     38  C   LIG    1        8.851   0.889  -4.220  0.00  0.00    +0.088 A 
ATOM     39  C   LIG    1        8.367  -0.366  -3.849  0.00  0.00    +0.027 A 
ATOM     40  C   LIG    1        8.060  -0.622  -2.516  0.00  0.00    +0.006 A 
BRANCH  38  41
ATOM     41  S   LIG    1        9.235   1.224  -5.936  0.00  0.00    -0.006 S 
ATOM     42  C   LIG    1       11.051   0.737  -6.075  0.00  0.00    +0.200 C 
ATOM     43  O   LIG    1        9.123   2.673  -6.138  0.00  0.00    -0.170 OA
ATOM     44  O   LIG    1        8.441   0.301  -6.754  0.00  0.00    -0.170 OA
ENDBRANCH  38  41
ENDBRANCH  26  35
ENDBRANCH  25  26
ENDBRANCH  24  25
ENDBRANCH   4  24
TORSDOF 11
