REMARK  Name = DB11814
REMARK                            x       y       z     vdW  Elec       q    Type
REMARK                         _______ _______ _______ _____ _____    ______ ____
ROOT
ATOM      1  C   LIG    1       -3.235  -2.918   3.478  0.00  0.00    +0.015 A 
ATOM      2  C   LIG    1       -4.445  -2.336   3.882  0.00  0.00    +0.059 A 
ATOM      3  C   LIG    1       -4.664  -0.988   3.551  0.00  0.00    +0.019 A 
ATOM      4  C   LIG    1       -3.724  -0.229   2.846  0.00  0.00    -0.038 A 
ATOM      5  C   LIG    1       -3.999   1.244   2.536  0.00  0.00    +0.036 C 
ATOM      6  C   LIG    1       -3.229   1.696   1.280  0.00  0.00    +0.016 C 
ATOM      7  C   LIG    1       -1.721   1.369   1.421  0.00  0.00    +0.063 C 
ATOM      8  C   LIG    1       -0.753   1.656   0.268  0.00  0.00    +0.110 C 
ATOM      9  N   LIG    1        0.131   0.488   0.268  0.00  0.00    -0.220 N 
ATOM     10  N   LIG    1       -0.448  -0.529   1.067  0.00  0.00    -0.183 NA
ATOM     11  C   LIG    1       -1.514  -0.120   1.627  0.00  0.00    +0.072 C 
ATOM     12  C   LIG    1       -2.518  -0.843   2.438  0.00  0.00    +0.001 A 
ATOM     13  C   LIG    1       -2.290  -2.185   2.767  0.00  0.00    +0.011 A 
ENDROOT
BRANCH   9  14
ATOM     14  C   LIG    1        1.518   0.427   0.034  0.00  0.00    +0.053 A 
ATOM     15  C   LIG    1        2.149  -0.804  -0.198  0.00  0.00    +0.046 A 
ATOM     16  C   LIG    1        3.522  -0.889  -0.436  0.00  0.00    +0.060 A 
ATOM     17 CL   LIG    1        4.204  -2.458  -0.721  0.00  0.00    -0.082 Cl
ATOM     18  C   LIG    1        4.300   0.280  -0.439  0.00  0.00    +0.070 A 
ATOM     19  C   LIG    1        3.684   1.511  -0.202  0.00  0.00    +0.022 A 
ATOM     20  C   LIG    1        2.312   1.582   0.032  0.00  0.00    +0.026 A 
BRANCH  18  21
ATOM     21  C   LIG    1        5.738   0.253  -0.682  0.00  0.00    +0.101 C 
ATOM     22  N   LIG    1        6.879   0.232  -0.876  0.00  0.00    -0.191 NA
ENDBRANCH  18  21
ENDBRANCH   9  14
BRANCH   8  23
ATOM     23  C   LIG    1       -1.385   1.964  -1.132  0.00  0.00    +0.012 C 
ATOM     24  C   LIG    1       -0.376   2.491  -2.175  0.00  0.00    +0.005 C 
ATOM     25  C   LIG    1       -0.147   1.336  -3.150  0.00  0.00    +0.000 C 
ATOM     26  C   LIG    1       -1.518   0.675  -3.248  0.00  0.00    +0.000 C 
ATOM     27  C   LIG    1       -2.108   0.783  -1.836  0.00  0.00    +0.005 C 
ENDBRANCH   8  23
BRANCH   2  28
ATOM     28  C   LIG    1       -5.474  -3.128   4.646  0.00  0.00    +0.337 C 
ATOM     29  O   LIG    1       -6.685  -2.853   4.470  0.00  0.00    -0.245 OA
BRANCH  28  30
ATOM     30  O   LIG    1       -5.074  -4.026   5.424  0.00  0.00    -0.477 OA
ATOM     31  H   LIG    1       -4.156  -4.189   5.518  0.00  0.00    +0.295 HD
ENDBRANCH  28  30
ENDBRANCH   2  28
TORSDOF 5
