REMARK  Name = DB11964
REMARK                            x       y       z     vdW  Elec       q    Type
REMARK                         _______ _______ _______ _____ _____    ______ ____
ROOT
ATOM      1  C   LIG    1        1.740   3.445   5.317  0.00  0.00    +0.048 A 
ATOM      2  C   LIG    1        0.519   3.030   5.868  0.00  0.00    +0.028 A 
ATOM      3  C   LIG    1       -0.514   2.511   5.085  0.00  0.00    +0.030 A 
ATOM      4  C   LIG    1       -0.274   2.424   3.712  0.00  0.00    +0.067 A 
ATOM      5  C   LIG    1        0.948   2.841   3.125  0.00  0.00    +0.092 A 
ATOM      6  N   LIG    1        0.936   2.654   1.768  0.00  0.00    -0.220 NA
ATOM      7  C   LIG    1       -0.236   2.123   1.522  0.00  0.00    +0.198 A 
ATOM      8  N   LIG    1       -1.014   1.970   2.645  0.00  0.00    -0.331 N 
ATOM      9  H   LIG    1       -1.945   1.578   2.632  0.00  0.00    +0.168 HD
ATOM     10  C   LIG    1        1.968   3.358   3.936  0.00  0.00    +0.056 A 
ENDROOT
BRANCH   1  11
ATOM     11  N   LIG    1        2.752   3.954   6.159  0.00  0.00    -0.323 N 
ATOM     12  C   LIG    1        2.580   4.751   7.273  0.00  0.00    +0.091 A 
ATOM     13  C   LIG    1        3.813   5.043   7.833  0.00  0.00    +0.019 A 
ATOM     14  C   LIG    1        4.779   4.413   7.050  0.00  0.00    +0.019 A 
ATOM     15  C   LIG    1        4.112   3.752   6.031  0.00  0.00    +0.091 A 
ENDBRANCH   1  11
BRANCH   7  16
ATOM     16  S   LIG    1       -0.868   1.550  -0.107  0.00  0.00    +0.091 S 
ATOM     17  O   LIG    1       -2.357   1.280   0.121  0.00  0.00    -0.249 OA
BRANCH  16  18
ATOM     18  C   LIG    1       -0.032  -0.113  -0.146  0.00  0.00    +0.136 C 
BRANCH  18  19
ATOM     19  C   LIG    1        1.486   0.003  -0.019  0.00  0.00    +0.060 C 
ATOM     20  C   LIG    1        2.226  -0.381   1.119  0.00  0.00    +0.031 C 
ATOM     21  C   LIG    1        1.524  -0.978   2.337  0.00  0.00    +0.017 C 
ATOM     22  C   LIG    1        3.625  -0.191   1.128  0.00  0.00    +0.111 C 
ATOM     23  C   LIG    1        4.237   0.363  -0.013  0.00  0.00    +0.050 C 
ATOM     24  C   LIG    1        3.465   0.715  -1.118  0.00  0.00    +0.078 C 
ATOM     25  N   LIG    1        2.136   0.525  -1.078  0.00  0.00    -0.303 NA
ATOM     26  H   LIG    1        1.591   0.795  -1.885  0.00  0.00    +0.123 HD
BRANCH  22  27
ATOM     27  O   LIG    1        4.328  -0.563   2.260  0.00  0.00    -0.373 OA
ATOM     28  C   LIG    1        5.724  -0.294   2.342  0.00  0.00    +0.194 C 
ENDBRANCH  22  27
ENDBRANCH  18  19
ENDBRANCH  16  18
ENDBRANCH   7  16
TORSDOF 5
