REMARK  Name = DB11672
REMARK                            x       y       z     vdW  Elec       q    Type
REMARK                         _______ _______ _______ _____ _____    ______ ____
ROOT
ATOM      1  C   LIG    1        1.340  -0.318  -0.473  0.00  0.00    +0.158 C 
ENDROOT
BRANCH   1   2
ATOM      2  C   LIG    1       -0.144  -0.529  -0.838  0.00  0.00    +0.164 C 
ATOM      3  O   LIG    1       -0.763   0.291  -1.523  0.00  0.00    -0.292 OA
BRANCH   2   5
ATOM      4  C   LIG    1       -2.071  -2.031  -0.468  0.00  0.00    +0.011 C 
ATOM      5  C   LIG    1       -0.758  -1.747  -0.319  0.00  0.00    +0.047 C 
BRANCH   4   8
ATOM      6  C   LIG    1       -4.858  -4.382   0.468  0.00  0.00    +0.050 A 
ATOM      7  C   LIG    1       -4.162  -3.265   0.011  0.00  0.00    +0.012 A 
ATOM      8  C   LIG    1       -2.764  -3.244   0.016  0.00  0.00    -0.021 A 
ATOM      9  C   LIG    1       -2.076  -4.371   0.489  0.00  0.00    +0.057 A 
ATOM     10  C   LIG    1       -2.763  -5.509   0.950  0.00  0.00    +0.162 A 
ATOM     11  C   LIG    1       -4.164  -5.497   0.935  0.00  0.00    +0.158 A 
BRANCH  10  12
ATOM     12  O   LIG    1       -2.138  -6.650   1.422  0.00  0.00    -0.491 OA
ATOM     13  C   LIG    1       -0.716  -6.716   1.436  0.00  0.00    +0.277 C 
ENDBRANCH  10  12
BRANCH  11  14
ATOM     14  O   LIG    1       -4.877  -6.583   1.378  0.00  0.00    -0.503 OA
ATOM     15  H   LIG    1       -5.827  -6.459   1.320  0.00  0.00    +0.292 HD
ENDBRANCH  11  14
ENDBRANCH   4   8
ENDBRANCH   2   5
ENDBRANCH   1   2
BRANCH   1  16
ATOM     16  C   LIG    1        2.002   0.943  -1.051  0.00  0.00    +0.164 C 
ATOM     17  O   LIG    1        2.301   1.859  -0.284  0.00  0.00    -0.292 OA
BRANCH  16  18
ATOM     18  C   LIG    1        2.260   0.984  -2.489  0.00  0.00    +0.047 C 
ATOM     19  C   LIG    1        2.824   2.047  -3.102  0.00  0.00    +0.011 C 
BRANCH  19  20
ATOM     20  C   LIG    1        3.127   2.178  -4.545  0.00  0.00    -0.021 A 
ATOM     21  C   LIG    1        3.718   3.361  -4.997  0.00  0.00    +0.012 A 
ATOM     22  C   LIG    1        4.027   3.533  -6.344  0.00  0.00    +0.050 A 
ATOM     23  C   LIG    1        3.748   2.521  -7.261  0.00  0.00    +0.158 A 
ATOM     24  C   LIG    1        3.155   1.323  -6.840  0.00  0.00    +0.162 A 
ATOM     25  C   LIG    1        2.850   1.166  -5.476  0.00  0.00    +0.057 A 
BRANCH  23  26
ATOM     26  O   LIG    1        4.064   2.718  -8.582  0.00  0.00    -0.503 OA
ATOM     27  H   LIG    1        4.466   3.574  -8.749  0.00  0.00    +0.292 HD
ENDBRANCH  23  26
BRANCH  24  28
ATOM     28  O   LIG    1        2.906   0.361  -7.803  0.00  0.00    -0.491 OA
ATOM     29  C   LIG    1        2.302  -0.871  -7.424  0.00  0.00    +0.277 C 
ENDBRANCH  24  28
ENDBRANCH  19  20
ENDBRANCH  16  18
ENDBRANCH   1  16
TORSDOF 10
