REMARK  Name = DB11985
REMARK                            x       y       z     vdW  Elec       q    Type
REMARK                         _______ _______ _______ _____ _____    ______ ____
ROOT
ATOM      1  C   LIG    1        1.388   0.059   0.041  0.00  0.00    +0.164 C 
ENDROOT
BRANCH   1   2
ATOM      2  C   LIG    1        1.960   0.526   1.388  0.00  0.00    +0.001 A 
ATOM      3  C   LIG    1        3.199   1.187   1.466  0.00  0.00    +0.048 A 
ATOM      4 CL   LIG    1        4.150   1.514   0.056  0.00  0.00    -0.083 Cl
ATOM      5  C   LIG    1        3.699   1.593   2.706  0.00  0.00    +0.040 A 
ATOM      6  C   LIG    1        2.980   1.342   3.874  0.00  0.00    +0.042 A 
ATOM      7 CL   LIG    1        3.607   1.846   5.401  0.00  0.00    -0.083 Cl
ATOM      8  C   LIG    1        1.756   0.679   3.806  0.00  0.00    +0.020 A 
ATOM      9  C   LIG    1        1.252   0.272   2.572  0.00  0.00    +0.009 A 
ENDBRANCH   1   2
BRANCH   1  10
ATOM     10  O   LIG    1       -0.042   0.034   0.060  0.00  0.00    -0.366 OA
BRANCH  10  11
ATOM     11  C   LIG    1       -0.684   1.307   0.015  0.00  0.00    +0.196 C 
BRANCH  11  13
ATOM     12  C   LIG    1       -2.792   0.027  -0.599  0.00  0.00    +0.006 A 
ATOM     13  C   LIG    1       -2.197   1.137   0.010  0.00  0.00    -0.022 A 
ATOM     14  C   LIG    1       -2.999   2.113   0.605  0.00  0.00    +0.006 A 
ATOM     15  C   LIG    1       -4.384   1.978   0.603  0.00  0.00    +0.013 A 
ATOM     16  C   LIG    1       -4.982   0.866   0.001  0.00  0.00    +0.055 A 
ATOM     17  C   LIG    1       -4.178  -0.108  -0.601  0.00  0.00    +0.013 A 
BRANCH  16  18
ATOM     18  C   LIG    1       -6.503   0.717  -0.002  0.00  0.00    +0.417 C 
ATOM     19  F   LIG    1       -6.869  -0.566  -0.006  0.00  0.00    -0.166 F 
ATOM     20  F   LIG    1       -6.990   1.299  -1.098  0.00  0.00    -0.166 F 
ATOM     21  F   LIG    1       -7.054   1.299   1.065  0.00  0.00    -0.166 F 
ENDBRANCH  16  18
ENDBRANCH  11  13
ENDBRANCH  10  11
ENDBRANCH   1  10
BRANCH   1  22
ATOM     22  C   LIG    1        1.900  -1.358  -0.315  0.00  0.00    +0.122 C 
BRANCH  22  23
ATOM     23  N   LIG    1        1.437  -1.863  -1.609  0.00  0.00    -0.276 NA
ATOM     24  C   LIG    1        0.740  -1.189  -2.599  0.00  0.00    +0.157 C 
ATOM     25  N   LIG    1        0.524  -2.056  -3.646  0.00  0.00    -0.293 NA
ATOM     26  H   LIG    1        0.036  -1.832  -4.502  0.00  0.00    +0.124 HD
ATOM     27  C   LIG    1        1.087  -3.279  -3.337  0.00  0.00    +0.092 C 
ATOM     28  C   LIG    1        1.656  -3.155  -2.075  0.00  0.00    +0.095 C 
ENDBRANCH  22  23
ENDBRANCH   1  22
TORSDOF 7
