REMARK  Name = DB11915
REMARK                            x       y       z     vdW  Elec       q    Type
REMARK                         _______ _______ _______ _____ _____    ______ ____
ROOT
ATOM      1  C   LIG    1       -0.772  -0.588  -1.418  0.00  0.00    +0.044 C 
ATOM      2  C   LIG    1       -0.303   0.201  -0.174  0.00  0.00    +0.183 C 
ATOM      3  C   LIG    1       -0.754  -0.510   1.122  0.00  0.00    +0.068 C 
ATOM      4  C   LIG    1       -2.279  -0.813   1.132  0.00  0.00    +0.091 C 
ATOM      5  C   LIG    1       -2.732  -1.531   2.411  0.00  0.00    -0.023 A 
ATOM      6  C   LIG    1       -2.664  -0.887   3.650  0.00  0.00    +0.054 A 
ATOM      7  C   LIG    1       -2.982  -1.543   4.848  0.00  0.00    +0.162 A 
ATOM      8  C   LIG    1       -3.370  -2.887   4.806  0.00  0.00    +0.162 A 
ATOM      9  C   LIG    1       -3.429  -3.541   3.565  0.00  0.00    +0.053 A 
ATOM     10  C   LIG    1       -3.118  -2.885   2.372  0.00  0.00    -0.038 A 
ATOM     11  C   LIG    1       -3.209  -3.614   1.034  0.00  0.00    +0.051 C 
ATOM     12  C   LIG    1       -2.401  -2.914  -0.078  0.00  0.00    +0.089 C 
ATOM     13  N   LIG    1       -2.733  -1.487  -0.104  0.00  0.00    -0.295 NA
ATOM     14  C   LIG    1       -2.308  -0.770  -1.313  0.00  0.00    +0.092 C 
ENDROOT
BRANCH   7  15
ATOM     15  O   LIG    1       -2.928  -0.940   6.093  0.00  0.00    -0.491 OA
ATOM     16  C   LIG    1       -2.525   0.422   6.196  0.00  0.00    +0.277 C 
ENDBRANCH   7  15
BRANCH   8  17
ATOM     17  O   LIG    1       -3.673  -3.495   6.011  0.00  0.00    -0.491 OA
ATOM     18  C   LIG    1       -4.082  -4.859   6.026  0.00  0.00    +0.277 C 
ENDBRANCH   8  17
BRANCH   1  19
ATOM     19  C   LIG    1       -0.316   0.049  -2.758  0.00  0.00    +0.011 C 
BRANCH  19  21
ATOM     20  C   LIG    1       -0.153  -2.165  -4.067  0.00  0.00    +0.007 C 
ATOM     21  C   LIG    1       -0.687  -0.719  -4.052  0.00  0.00    -0.017 C 
ATOM     22  C   LIG    1       -0.211   0.051  -5.298  0.00  0.00    +0.007 C 
ENDBRANCH  19  21
ENDBRANCH   1  19
BRANCH   2  23
ATOM     23  O   LIG    1        1.112   0.398  -0.183  0.00  0.00    -0.460 OA
BRANCH  23  24
ATOM     24  C   LIG    1        1.691   1.464   0.424  0.00  0.00    +0.325 C 
ATOM     25  O   LIG    1        1.085   2.358   1.021  0.00  0.00    -0.249 OA
BRANCH  24  26
ATOM     26  C   LIG    1        3.202   1.427   0.276  0.00  0.00    +0.163 C 
BRANCH  26  27
ATOM     27  N   LIG    1        3.529   2.130  -0.977  0.00  0.00    -0.318 NA
ATOM     28  H   LIG    1        3.194   1.605  -1.772  0.00  0.00    +0.119 HD
ATOM     29  H   LIG    1        4.530   2.193  -1.092  0.00  0.00    +0.119 HD
ENDBRANCH  26  27
BRANCH  26  30
ATOM     30  C   LIG    1        3.968   1.994   1.514  0.00  0.00    +0.010 C 
ATOM     31  C   LIG    1        3.585   1.321   2.851  0.00  0.00    +0.009 C 
ATOM     32  C   LIG    1        5.496   1.919   1.330  0.00  0.00    +0.009 C 
ENDBRANCH  26  30
ENDBRANCH  24  26
ENDBRANCH  23  24
ENDBRANCH   2  23
TORSDOF 9
