REMARK  Name = DB11620
REMARK                            x       y       z     vdW  Elec       q    Type
REMARK                         _______ _______ _______ _____ _____    ______ ____
ROOT
ATOM      1  C   LIG    1       -0.253  -0.171   0.009  0.00  0.00    +0.267 C 
ENDROOT
BRANCH   1   2
ATOM      2  O   LIG    1       -0.610   1.205   0.038  0.00  0.00    -0.367 OA
ATOM      3  H   LIG    1       -0.899   1.450  -0.845  0.00  0.00    +0.212 HD
ENDBRANCH   1   2
BRANCH   1   4
ATOM      4  P   LIG    1       -1.012  -0.757  -1.673  0.00  0.00    +0.371 P 
ATOM      5  O   LIG    1       -2.512  -0.449  -1.504  0.00  0.00    -0.255 OA
BRANCH   4   6
ATOM      6  O   LIG    1       -0.677  -2.259  -1.731  0.00  0.00    -0.322 OA
ATOM      7  H   LIG    1       -1.173  -2.727  -1.041  0.00  0.00    +0.220 HD
ENDBRANCH   4   6
BRANCH   4   8
ATOM      8  O   LIG    1       -0.291   0.117  -2.720  0.00  0.00    -0.322 OA
ATOM      9  H   LIG    1       -0.561   1.042  -2.610  0.00  0.00    +0.220 HD
ENDBRANCH   4   8
ENDBRANCH   1   4
BRANCH   1  10
ATOM     10  P   LIG    1       -0.815  -0.840   1.696  0.00  0.00    +0.371 P 
ATOM     11  O   LIG    1       -0.926  -2.347   1.638  0.00  0.00    -0.255 OA
BRANCH  10  12
ATOM     12  O   LIG    1       -2.406  -0.194   1.690  0.00  0.00    -0.322 OA
ATOM     13  H   LIG    1       -2.606   0.746   1.862  0.00  0.00    +0.220 HD
ENDBRANCH  10  12
BRANCH  10  14
ATOM     14  O   LIG    1       -0.052  -0.132   2.798  0.00  0.00    -0.322 OA
ATOM     15  H   LIG    1        0.856  -0.471   2.832  0.00  0.00    +0.220 HD
ENDBRANCH  10  14
ENDBRANCH   1  10
BRANCH   1  16
ATOM     16  C   LIG    1        1.304  -0.187  -0.040  0.00  0.00    +0.060 C 
BRANCH  16  17
ATOM     17  C   LIG    1        1.977  -1.577  -0.056  0.00  0.00    +0.004 C 
BRANCH  17  18
ATOM     18  C   LIG    1        3.511  -1.499   0.028  0.00  0.00    -0.002 C 
BRANCH  18  19
ATOM     19  C   LIG    1        4.180  -2.883  -0.018  0.00  0.00    -0.020 C 
BRANCH  19  20
ATOM     20  C   LIG    1        5.711  -2.798   0.067  0.00  0.00    -0.086 C 
BRANCH  20  21
ATOM     21  N   LIG    1        6.315  -4.203  -0.004  0.00  0.00    +0.378 N 
ATOM     22  H   LIG    1        5.968  -4.768   0.758  0.00  0.00    -0.090 HD
ATOM     23  H   LIG    1        6.064  -4.643  -0.877  0.00  0.00    -0.090 HD
ATOM     24  H   LIG    1        7.322  -4.152   0.059  0.00  0.00    -0.090 HD
ENDBRANCH  20  21
ENDBRANCH  19  20
ENDBRANCH  18  19
ENDBRANCH  17  18
ENDBRANCH  16  17
ENDBRANCH   1  16
TORSDOF 13
