REMARK  Name = DB11135
REMARK                            x       y       z     vdW  Elec       q    Type
REMARK                         _______ _______ _______ _____ _____    ______ ____
ROOT
ATOM      1 SE   LIG    1        0.260   0.190   0.025  0.00  0.00    +0.000 Se
ATOM      2  H   LIG    1        0.064  -0.228   1.357  0.00  0.00    +0.000 HD
ATOM      3  H   LIG    1        0.246   1.585   0.232  0.00  0.00    +0.000 HD
ENDROOT
TORSDOF 0
