REMARK  Name = DB11786
REMARK                            x       y       z     vdW  Elec       q    Type
REMARK                         _______ _______ _______ _____ _____    ______ ____
ROOT
ATOM      1  C   LIG    1       -0.590   1.410  -0.112  0.00  0.00    -0.039 C 
ATOM      2  C   LIG    1       -1.889   1.838  -0.807  0.00  0.00    -0.002 C 
ATOM      3  C   LIG    1       -1.583   1.993  -2.329  0.00  0.00    +0.016 C 
ATOM      4  C   LIG    1       -3.145   0.952  -0.598  0.00  0.00    +0.012 C 
ATOM      5  C   LIG    1       -4.430   1.657  -1.106  0.00  0.00    +0.005 C 
ATOM      6  C   LIG    1       -4.604   3.106  -0.578  0.00  0.00    +0.031 C 
ATOM      7  C   LIG    1       -3.306   3.920  -0.720  0.00  0.00    -0.065 C 
ATOM      8  C   LIG    1       -3.179   5.124  -1.322  0.00  0.00    -0.000 C 
ATOM      9  C   LIG    1       -2.142   3.166  -0.070  0.00  0.00    +0.029 C 
ATOM     10  C   LIG    1       -0.760   3.782   0.102  0.00  0.00    +0.036 C 
ATOM     11  C   LIG    1        0.048   2.519   0.336  0.00  0.00    -0.024 C 
ENDROOT
BRANCH   8  12
ATOM     12  C   LIG    1       -4.243   5.875  -1.978  0.00  0.00    +0.004 C 
ATOM     13  C   LIG    1       -4.140   7.125  -2.486  0.00  0.00    -0.040 C 
ATOM     14  C   LIG    1       -2.936   7.958  -2.404  0.00  0.00    -0.023 C 
ATOM     15  C   LIG    1       -2.344   8.237  -1.226  0.00  0.00    +0.015 C 
ATOM     16  C   LIG    1       -2.422   8.543  -3.718  0.00  0.00    +0.147 C 
ATOM     17  C   LIG    1       -3.597   9.220  -4.466  0.00  0.00    +0.067 C 
ATOM     18  C   LIG    1       -4.850   8.316  -4.583  0.00  0.00    +0.122 C 
ATOM     19  C   LIG    1       -5.317   7.774  -3.211  0.00  0.00    +0.067 C 
BRANCH  16  20
ATOM     20  O   LIG    1       -1.833   7.529  -4.509  0.00  0.00    -0.387 OA
ATOM     21  H   LIG    1       -1.014   7.255  -4.090  0.00  0.00    +0.210 HD
ENDBRANCH  16  20
BRANCH  18  22
ATOM     22  O   LIG    1       -5.901   8.998  -5.235  0.00  0.00    -0.391 OA
ATOM     23  H   LIG    1       -6.095   8.544  -6.058  0.00  0.00    +0.210 HD
ENDBRANCH  18  22
ENDBRANCH   8  12
BRANCH   1  25
ATOM     24  C   LIG    1       -0.715  -0.868   1.043  0.00  0.00    +0.043 C 
ATOM     25  C   LIG    1       -0.114  -0.041  -0.104  0.00  0.00    +0.142 C 
BRANCH  25  26
ATOM     26  O   LIG    1        1.302  -0.131   0.045  0.00  0.00    -0.363 OA
BRANCH  26  27
ATOM     27  C   LIG    1        2.062   0.210  -1.117  0.00  0.00    +0.256 C 
BRANCH  27  28
ATOM     28  C   LIG    1        3.567   0.099  -0.827  0.00  0.00    +0.239 C 
ATOM     29  N   LIG    1        3.952  -0.210   0.426  0.00  0.00    -0.307 N 
ATOM     30  H   LIG    1        3.234  -0.323   1.127  0.00  0.00    +0.149 HD
ATOM     31  O   LIG    1        4.364   0.293  -1.746  0.00  0.00    -0.273 OA
BRANCH  29  32
ATOM     32  C   LIG    1        5.336  -0.360   0.886  0.00  0.00    +0.189 C 
BRANCH  32  33
ATOM     33  C   LIG    1        5.797  -1.825   1.087  0.00  0.00    +0.356 C 
ATOM     34  F   LIG    1        4.965  -2.450   1.924  0.00  0.00    -0.194 F 
ATOM     35  F   LIG    1        6.988  -1.806   1.688  0.00  0.00    -0.194 F 
BRANCH  33  36
ATOM     36  C   LIG    1        5.909  -2.634  -0.230  0.00  0.00    +0.455 C 
ATOM     37  F   LIG    1        6.671  -2.008  -1.128  0.00  0.00    -0.165 F 
ATOM     38  F   LIG    1        4.720  -2.832  -0.799  0.00  0.00    -0.165 F 
ATOM     39  F   LIG    1        6.444  -3.837  -0.016  0.00  0.00    -0.165 F 
ENDBRANCH  33  36
ENDBRANCH  32  33
ENDBRANCH  29  32
ENDBRANCH  27  28
ENDBRANCH  26  27
ENDBRANCH  25  26
ENDBRANCH   1  25
TORSDOF 10
