REMARK  Name = DB11692
REMARK                            x       y       z     vdW  Elec       q    Type
REMARK                         _______ _______ _______ _____ _____    ______ ____
ROOT
ATOM      1  N   LIG    1       -2.697  -0.149  -0.074  0.00  0.00    -0.245 NA
ATOM      2  C   LIG    1       -2.150   1.061   0.184  0.00  0.00    +0.073 A 
ATOM      3  C   LIG    1       -3.027   2.159   0.357  0.00  0.00    +0.028 A 
ATOM      4  C   LIG    1       -2.520   3.428   0.616  0.00  0.00    +0.002 A 
ATOM      5  C   LIG    1       -1.149   3.632   0.706  0.00  0.00    +0.001 A 
ATOM      6  C   LIG    1       -0.264   2.572   0.539  0.00  0.00    +0.011 A 
ATOM      7  C   LIG    1       -0.739   1.249   0.273  0.00  0.00    +0.014 A 
ATOM      8  C   LIG    1        0.101   0.097   0.082  0.00  0.00    +0.070 A 
ATOM      9  C   LIG    1       -0.484  -1.179  -0.151  0.00  0.00    +0.086 A 
ATOM     10  C   LIG    1       -1.891  -1.226  -0.235  0.00  0.00    +0.095 A 
ENDROOT
BRANCH  10  11
ATOM     11  C   LIG    1       -2.667  -2.471  -0.490  0.00  0.00    +0.002 A 
ATOM     12  C   LIG    1       -2.781  -3.446   0.504  0.00  0.00    +0.010 A 
ATOM     13  C   LIG    1       -3.501  -4.614   0.266  0.00  0.00    +0.001 A 
ATOM     14  C   LIG    1       -4.112  -4.807  -0.970  0.00  0.00    +0.000 A 
ATOM     15  C   LIG    1       -4.010  -3.841  -1.968  0.00  0.00    +0.001 A 
ATOM     16  C   LIG    1       -3.287  -2.675  -1.728  0.00  0.00    +0.010 A 
ENDBRANCH  10  11
BRANCH   8  17
ATOM     17  C   LIG    1        1.599   0.294   0.080  0.00  0.00    +0.247 C 
ATOM     18  N   LIG    1        2.176   0.192   1.289  0.00  0.00    -0.304 N 
ATOM     19  H   LIG    1        1.595  -0.090   2.066  0.00  0.00    +0.150 HD
ATOM     20  O   LIG    1        2.202   0.532  -0.968  0.00  0.00    -0.270 OA
BRANCH  18  21
ATOM     21  C   LIG    1        3.611   0.279   1.565  0.00  0.00    +0.103 C 
BRANCH  21  22
ATOM     22  C   LIG    1        3.950  -0.413   2.887  0.00  0.00    -0.027 A 
ATOM     23  C   LIG    1        3.350   0.011   4.079  0.00  0.00    +0.005 A 
ATOM     24  C   LIG    1        3.659  -0.621   5.281  0.00  0.00    +0.000 A 
ATOM     25  C   LIG    1        4.567  -1.677   5.290  0.00  0.00    +0.000 A 
ATOM     26  C   LIG    1        5.171  -2.106   4.110  0.00  0.00    +0.000 A 
ATOM     27  C   LIG    1        4.862  -1.474   2.909  0.00  0.00    +0.005 A 
ENDBRANCH  21  22
BRANCH  21  28
ATOM     28  C   LIG    1        4.143   1.733   1.490  0.00  0.00    +0.024 C 
ATOM     29  C   LIG    1        5.670   1.853   1.621  0.00  0.00    +0.006 C 
ENDBRANCH  21  28
ENDBRANCH  18  21
ENDBRANCH   8  17
BRANCH   9  30
ATOM     30  N   LIG    1        0.250  -2.330  -0.366  0.00  0.00    -0.218 N 
ATOM     31  H   LIG    1        0.223  -2.763  -1.250  0.00  0.00    +0.173 HD
BRANCH  30  32
ATOM     32  S   LIG    1        1.126  -2.962   0.775  0.00  0.00    +0.040 S 
ATOM     33  O   LIG    1        0.808  -2.453   2.115  0.00  0.00    -0.155 OA
ATOM     34  O   LIG    1        2.546  -3.030   0.413  0.00  0.00    -0.155 OA
ATOM     35  C   LIG    1        0.563  -4.761   0.805  0.00  0.00    +0.218 C 
ENDBRANCH  30  32
ENDBRANCH   9  30
TORSDOF 7
