REMARK  Name = DB11996
REMARK                            x       y       z     vdW  Elec       q    Type
REMARK                         _______ _______ _______ _____ _____    ______ ____
ROOT
ATOM      1  O   LYS A  2        1.895   0.216  -1.697  0.00  0.00    -0.274 OA
ATOM      2  C   LYS A  2        1.284   1.194  -1.260  0.00  0.00    +0.234 C 
ATOM      3  N   ASP A  3        1.813   2.421  -1.121  0.00  0.00    -0.302 N 
ATOM      4  H   ASP A  3        1.243   3.167  -0.747  0.00  0.00    +0.150 HD
ENDROOT
BRANCH   2   5
ATOM      5  CA  LYS A  2       -0.169   1.040  -0.790  0.00  0.00    +0.159 C 
BRANCH   5   6
ATOM      6  N   LYS A  2       -0.829  -0.013  -1.565  0.00  0.00    -0.305 N 
ATOM      7  H   LYS A  2       -0.258  -0.825  -1.755  0.00  0.00    +0.149 HD
ATOM      8  C   ARG A  1       -2.072   0.051  -2.072  0.00  0.00    +0.199 C 
ATOM      9  O   ARG A  1       -2.826   1.012  -1.882  0.00  0.00    -0.278 OA
BRANCH   8  10
ATOM     10  CA  ARG A  1       -2.482  -1.191  -2.920  0.00  0.00    +0.013 C 
BRANCH  10  11
ATOM     11  N   ARG A  1       -3.967  -1.131  -3.184  0.00  0.00    +0.386 N 
ATOM     12  H1  ARG A  1       -4.173  -0.306  -3.731  0.00  0.00    -0.089 HD
ATOM     13  H2  ARG A  1       -4.243  -1.957  -3.695  0.00  0.00    -0.089 HD
ATOM     14  H3  ARG A  1       -4.459  -1.098  -2.303  0.00  0.00    -0.089 HD
ENDBRANCH  10  11
BRANCH  10  15
ATOM     15  CB  ARG A  1       -1.653  -1.310  -4.230  0.00  0.00    -0.006 C 
BRANCH  15  16
ATOM     16  CG  ARG A  1       -1.911  -2.590  -5.051  0.00  0.00    +0.014 C 
BRANCH  16  17
ATOM     17  CD  ARG A  1       -0.980  -2.706  -6.271  0.00  0.00    +0.084 C 
BRANCH  17  18
ATOM     18  NE  ARG A  1       -1.347  -3.831  -7.148  0.00  0.00    -0.283 NA
ATOM     19  HE  ARG A  1       -0.932  -4.721  -6.907  0.00  0.00    +0.125 HD
BRANCH  18  20
ATOM     20  CZ  ARG A  1       -2.195  -3.808  -8.196  0.00  0.00    +0.167 C 
BRANCH  20  21
ATOM     21  NH2 ARG A  1       -2.415  -4.944  -8.872  0.00  0.00    -0.297 NA
ATOM     22 HH21 ARG A  1       -3.044  -4.952  -9.663  0.00  0.00    +0.121 HD
ATOM     23 HH22 ARG A  1       -1.948  -5.798  -8.600  0.00  0.00    +0.121 HD
ENDBRANCH  20  21
BRANCH  20  24
ATOM     24  NH1 ARG A  1       -2.828  -2.690  -8.590  0.00  0.00    -0.297 NA
ATOM     25 HH11 ARG A  1       -2.670  -1.819  -8.102  0.00  0.00    +0.121 HD
ATOM     26 HH12 ARG A  1       -3.453  -2.712  -9.383  0.00  0.00    +0.121 HD
ENDBRANCH  20  24
ENDBRANCH  18  20
ENDBRANCH  17  18
ENDBRANCH  16  17
ENDBRANCH  15  16
ENDBRANCH  10  15
ENDBRANCH   8  10
ENDBRANCH   5   6
BRANCH   5  27
ATOM     27  CB  LYS A  2       -0.211   0.700   0.717  0.00  0.00    +0.032 C 
BRANCH  27  28
ATOM     28  CG  LYS A  2       -1.621   0.732   1.332  0.00  0.00    +0.000 C 
BRANCH  28  29
ATOM     29  CD  LYS A  2       -1.610   0.514   2.852  0.00  0.00    -0.019 C 
BRANCH  29  30
ATOM     30  CE  LYS A  2       -3.024   0.535   3.456  0.00  0.00    -0.086 C 
BRANCH  30  31
ATOM     31  NZ  LYS A  2       -3.000   0.331   4.916  0.00  0.00    +0.378 N 
ATOM     32  HZ1 LYS A  2       -2.576  -0.561   5.127  0.00  0.00    -0.090 HD
ATOM     33  HZ2 LYS A  2       -2.465   1.068   5.353  0.00  0.00    -0.090 HD
ATOM     34  HZ3 LYS A  2       -3.944   0.346   5.275  0.00  0.00    -0.090 HD
ENDBRANCH  30  31
ENDBRANCH  29  30
ENDBRANCH  28  29
ENDBRANCH  27  28
ENDBRANCH   5  27
ENDBRANCH   2   5
BRANCH   3  35
ATOM     35  CA  ASP A  3        3.208   2.772  -1.392  0.00  0.00    +0.169 C 
BRANCH  35  36
ATOM     36  C   ASP A  3        4.118   2.209  -0.279  0.00  0.00    +0.234 C 
ATOM     37  N   VAL A  4        5.305   1.719  -0.683  0.00  0.00    -0.302 N 
ATOM     38  H   VAL A  4        5.520   1.784  -1.668  0.00  0.00    +0.150 HD
ATOM     39  O   ASP A  3        3.724   2.232   0.888  0.00  0.00    -0.274 OA
BRANCH  37  40
ATOM     40  CA  VAL A  4        6.373   1.116   0.127  0.00  0.00    +0.161 C 
BRANCH  40  41
ATOM     41  C   VAL A  4        7.111   2.145   1.013  0.00  0.00    +0.234 C 
ATOM     42  N   TYR A  5        8.453   2.068   0.994  0.00  0.00    -0.301 N 
ATOM     43  H   TYR A  5        8.898   1.400   0.381  0.00  0.00    +0.150 HD
ATOM     44  O   VAL A  4        6.478   2.947   1.699  0.00  0.00    -0.274 OA
BRANCH  42  45
ATOM     45  CA  TYR A  5        9.374   2.903   1.782  0.00  0.00    +0.186 C 
BRANCH  45  46
ATOM     46  C   TYR A  5       10.849   2.682   1.272  0.00  0.00    +0.326 C 
ATOM     47  OXT TYR A  5       11.497   3.739   1.092  0.00  0.00    -0.249 OA
BRANCH  46  48
ATOM     48  O   TYR A  5       11.231   1.492   1.146  0.00  0.00    -0.479 OA
ATOM     49  H   TYR A  5       10.774   0.912   0.568  0.00  0.00    +0.295 HD
ENDBRANCH  46  48
ENDBRANCH  45  46
BRANCH  45  50
ATOM     50  CB  TYR A  5        9.290   2.546   3.299  0.00  0.00    +0.069 C 
BRANCH  50  51
ATOM     51  CG  TYR A  5       10.069   3.455   4.237  0.00  0.00    -0.045 A 
ATOM     52  CD2 TYR A  5        9.571   4.738   4.546  0.00  0.00    +0.007 A 
ATOM     53  CE2 TYR A  5       10.288   5.587   5.411  0.00  0.00    +0.045 A 
ATOM     54  CZ  TYR A  5       11.508   5.156   5.969  0.00  0.00    +0.117 A 
ATOM     55  CE1 TYR A  5       12.009   3.876   5.661  0.00  0.00    +0.045 A 
ATOM     56  CD1 TYR A  5       11.291   3.027   4.796  0.00  0.00    +0.007 A 
BRANCH  54  57
ATOM     57  OH  TYR A  5       12.203   5.977   6.807  0.00  0.00    -0.507 OA
ATOM     58  HH  TYR A  5       13.022   5.585   7.117  0.00  0.00    +0.292 HD
ENDBRANCH  54  57
ENDBRANCH  50  51
ENDBRANCH  45  50
ENDBRANCH  42  45
ENDBRANCH  40  41
BRANCH  40  59
ATOM     59  CB  VAL A  4        5.894  -0.090   1.003  0.00  0.00    +0.012 C 
ATOM     60  CG2 VAL A  4        5.282  -1.202   0.131  0.00  0.00    +0.009 C 
ATOM     61  CG1 VAL A  4        6.985  -0.700   1.910  0.00  0.00    +0.009 C 
ENDBRANCH  40  59
ENDBRANCH  37  40
ENDBRANCH  35  36
BRANCH  35  62
ATOM     62  CB  ASP A  3        3.355   4.312  -1.527  0.00  0.00    +0.152 C 
BRANCH  62  63
ATOM     63  CG  ASP A  3        4.694   4.856  -2.063  0.00  0.00    +0.307 C 
ATOM     64  OD2 ASP A  3        4.916   6.071  -1.862  0.00  0.00    -0.251 OA
BRANCH  63  65
ATOM     65  OD1 ASP A  3        5.399   4.120  -2.792  0.00  0.00    -0.481 OA
ATOM     66  HD1 ASP A  3        4.992   3.512  -3.376  0.00  0.00    +0.295 HD
ENDBRANCH  63  65
ENDBRANCH  62  63
ENDBRANCH  35  62
ENDBRANCH   3  35
TORSDOF 30
