REMARK  Name = DB11921
REMARK                            x       y       z     vdW  Elec       q    Type
REMARK                         _______ _______ _______ _____ _____    ______ ____
ROOT
ATOM      1  C   LIG    1        3.507  -1.492  -2.483  0.00  0.00    +0.108 C 
ATOM      2  C   LIG    1        2.685  -0.678  -1.512  0.00  0.00    +0.183 C 
ATOM      3  O   LIG    1        2.575   0.657  -1.763  0.00  0.00    -0.474 OA
ATOM      4  C   LIG    1        1.906   1.291  -0.693  0.00  0.00    +0.211 C 
ATOM      5  C   LIG    1        1.387   0.067   0.117  0.00  0.00    +0.168 C 
ATOM      6  C   LIG    1        1.766   0.413   1.617  0.00  0.00    +0.009 C 
ATOM      7  C   LIG    1        3.132   1.108   1.395  0.00  0.00    +0.005 C 
ATOM      8  C   LIG    1        3.800   1.630   2.700  0.00  0.00    -0.000 C 
ATOM      9  C   LIG    1        4.013   0.437   3.699  0.00  0.00    +0.035 C 
ATOM     10  C   LIG    1        4.761   0.882   5.019  0.00  0.00    +0.013 C 
ATOM     11  C   LIG    1        6.078   1.590   4.590  0.00  0.00    -0.056 C 
ATOM     12  C   LIG    1        7.308   1.180   4.980  0.00  0.00    +0.051 C 
ATOM     13  C   LIG    1        7.580   0.031   5.844  0.00  0.00    +0.179 C 
ATOM     14  O   LIG    1        8.712  -0.298   6.192  0.00  0.00    -0.288 OA
ATOM     15  C   LIG    1        6.377  -0.693   6.246  0.00  0.00    +0.047 C 
ATOM     16  C   LIG    1        5.883   2.783   3.655  0.00  0.00    +0.032 C 
ATOM     17  C   LIG    1        5.128  -0.332   5.890  0.00  0.00    -0.012 C 
ATOM     18  C   LIG    1        3.964   1.859   5.928  0.00  0.00    +0.020 C 
ATOM     19  C   LIG    1        2.715  -0.429   3.902  0.00  0.00    +0.120 C 
ATOM     20  C   LIG    1        5.156   2.305   2.389  0.00  0.00    +0.008 C 
ATOM     21  C   LIG    1        2.060  -0.809   2.545  0.00  0.00    +0.041 C 
ATOM     22  C   LIG    1        0.712   1.386   2.256  0.00  0.00    +0.014 C 
ATOM     23  C   LIG    1        2.890   2.063   0.220  0.00  0.00    +0.052 C 
ATOM     24  N   LIG    1        2.057  -1.076  -0.481  0.00  0.00    -0.236 NA
ENDROOT
BRANCH  19  25
ATOM     25  O   LIG    1        1.759   0.136   4.776  0.00  0.00    -0.391 OA
ATOM     26  H   LIG    1        2.172   0.272   5.632  0.00  0.00    +0.210 HD
ENDBRANCH  19  25
BRANCH   5  27
ATOM     27  C   LIG    1       -0.142  -0.219  -0.083  0.00  0.00    +0.202 C 
ATOM     28  O   LIG    1       -0.845   0.490  -0.807  0.00  0.00    -0.291 OA
BRANCH  27  29
ATOM     29  C   LIG    1       -0.746  -1.425   0.659  0.00  0.00    +0.308 C 
BRANCH  29  30
ATOM     30  O   LIG    1       -2.058  -1.718   0.188  0.00  0.00    -0.457 OA
BRANCH  30  31
ATOM     31  C   LIG    1       -2.760  -2.743   0.712  0.00  0.00    +0.304 C 
ATOM     32  O   LIG    1       -2.384  -3.503   1.606  0.00  0.00    -0.251 OA
ATOM     33  C   LIG    1       -4.134  -2.889   0.072  0.00  0.00    +0.136 C 
ENDBRANCH  30  31
ENDBRANCH  29  30
ENDBRANCH  27  29
ENDBRANCH   5  27
TORSDOF 5
