REMARK  Name = DB11403
REMARK                            x       y       z     vdW  Elec       q    Type
REMARK                         _______ _______ _______ _____ _____    ______ ____
ROOT
ATOM      1  C   LIG    1        2.024   1.491   1.243  0.00  0.00    +0.185 C 
ATOM      2  N   LIG    1        2.598   0.491   0.289  0.00  0.00    -0.288 N 
ATOM      3  C   LIG    1        3.814   0.609  -0.335  0.00  0.00    +0.257 C 
ATOM      4  O   LIG    1        4.267  -0.303  -1.034  0.00  0.00    -0.272 OA
ATOM      5  C   LIG    1        4.666   1.913  -0.318  0.00  0.00    +0.266 C 
ATOM      6  O   LIG    1        4.771   2.460   1.003  0.00  0.00    -0.450 OA
ATOM      7  C   LIG    1        5.769   3.317   1.364  0.00  0.00    +0.329 C 
ATOM      8  O   LIG    1        6.701   3.666   0.633  0.00  0.00    -0.249 OA
ATOM      9  C   LIG    1        5.612   3.757   2.815  0.00  0.00    +0.185 C 
ATOM     10  N   LIG    1        6.958   4.072   3.391  0.00  0.00    -0.288 N 
ATOM     11  C   LIG    1        7.756   3.138   3.994  0.00  0.00    +0.257 C 
ATOM     12  O   LIG    1        8.782   3.444   4.609  0.00  0.00    -0.272 OA
ATOM     13  C   LIG    1        7.387   1.624   3.947  0.00  0.00    +0.259 C 
ATOM     14  O   LIG    1        7.125   1.099   5.260  0.00  0.00    -0.451 OA
ATOM     15  C   LIG    1        6.099   1.519   6.074  0.00  0.00    +0.329 C 
ATOM     16  O   LIG    1        5.237   2.328   5.729  0.00  0.00    -0.249 OA
ATOM     17  C   LIG    1        6.091   0.847   7.457  0.00  0.00    +0.185 C 
ATOM     18  N   LIG    1        7.487   0.507   7.859  0.00  0.00    -0.288 N 
ATOM     19  C   LIG    1        7.959  -0.763   8.042  0.00  0.00    +0.257 C 
ATOM     20  O   LIG    1        9.130  -0.976   8.366  0.00  0.00    -0.272 OA
ATOM     21  C   LIG    1        7.048  -2.026   7.948  0.00  0.00    +0.266 C 
ATOM     22  O   LIG    1        6.316  -2.184   6.715  0.00  0.00    -0.450 OA
ATOM     23  C   LIG    1        6.899  -2.297   5.482  0.00  0.00    +0.329 C 
ATOM     24  O   LIG    1        8.087  -2.058   5.255  0.00  0.00    -0.249 OA
ATOM     25  C   LIG    1        5.966  -2.926   4.439  0.00  0.00    +0.185 C 
ATOM     26  N   LIG    1        4.559  -2.452   4.592  0.00  0.00    -0.288 N 
ATOM     27  C   LIG    1        4.104  -1.238   4.166  0.00  0.00    +0.257 C 
ATOM     28  O   LIG    1        4.875  -0.380   3.740  0.00  0.00    -0.272 OA
ATOM     29  C   LIG    1        2.578  -0.934   4.144  0.00  0.00    +0.259 C 
ATOM     30  O   LIG    1        2.211  -0.230   2.942  0.00  0.00    -0.451 OA
ATOM     31  C   LIG    1        2.063  -0.279   5.445  0.00  0.00    +0.062 C 
ATOM     32  C   LIG    1        3.675  -3.456   5.198  0.00  0.00    +0.133 C 
ATOM     33  C   LIG    1        8.393   1.654   8.101  0.00  0.00    +0.133 C 
ATOM     34  C   LIG    1        8.563   0.804   3.380  0.00  0.00    +0.062 C 
ATOM     35  C   LIG    1        7.410   5.476   3.355  0.00  0.00    +0.133 C 
ATOM     36  C   LIG    1        1.784  -0.717   0.012  0.00  0.00    +0.133 C 
ATOM     37  C   LIG    1        2.411   1.099   2.672  0.00  0.00    +0.329 C 
ATOM     38  O   LIG    1        2.800   1.932   3.490  0.00  0.00    -0.249 OA
ENDROOT
BRANCH   1  39
ATOM     39  C   LIG    1        0.479   1.668   1.139  0.00  0.00    +0.037 C 
BRANCH  39  41
ATOM     40  C   LIG    1        0.357   3.755  -0.343  0.00  0.00    +0.007 C 
ATOM     41  C   LIG    1       -0.020   2.264  -0.199  0.00  0.00    -0.015 C 
ATOM     42  C   LIG    1       -1.533   2.021  -0.392  0.00  0.00    +0.007 C 
ENDBRANCH  39  41
ENDBRANCH   1  39
BRANCH  25  43
ATOM     43  C   LIG    1        6.532  -2.853   2.979  0.00  0.00    +0.037 C 
BRANCH  43  44
ATOM     44  C   LIG    1        5.772  -3.651   1.886  0.00  0.00    -0.015 C 
ATOM     45  C   LIG    1        5.492  -5.117   2.268  0.00  0.00    +0.007 C 
ATOM     46  C   LIG    1        4.531  -2.933   1.324  0.00  0.00    +0.007 C 
ENDBRANCH  43  44
ENDBRANCH  25  43
BRANCH  21  47
ATOM     47  C   LIG    1        6.093  -2.143   9.162  0.00  0.00    +0.089 C 
BRANCH  47  48
ATOM     48  C   LIG    1        5.269  -3.426   9.162  0.00  0.00    -0.043 A 
ATOM     49  C   LIG    1        5.846  -4.624   9.581  0.00  0.00    +0.005 A 
ATOM     50  C   LIG    1        5.101  -5.800   9.564  0.00  0.00    +0.023 A 
ATOM     51  C   LIG    1        3.769  -5.805   9.125  0.00  0.00    +0.030 A 
ATOM     52  C   LIG    1        3.199  -4.586   8.721  0.00  0.00    +0.023 A 
ATOM     53  C   LIG    1        3.942  -3.410   8.735  0.00  0.00    +0.005 A 
BRANCH  51  54
ATOM     54  N   LIG    1        3.037  -6.995   9.126  0.00  0.00    -0.326 N 
ATOM     55  C   LIG    1        1.578  -7.002   8.903  0.00  0.00    +0.133 C 
ATOM     56  C   LIG    1        0.906  -8.333   9.300  0.00  0.00    +0.178 C 
ATOM     57  O   LIG    1        1.525  -9.412   8.616  0.00  0.00    -0.377 OA
ATOM     58  C   LIG    1        2.907  -9.506   8.929  0.00  0.00    +0.178 C 
ATOM     59  C   LIG    1        3.631  -8.205   8.523  0.00  0.00    +0.133 C 
ENDBRANCH  51  54
ENDBRANCH  47  48
ENDBRANCH  21  47
BRANCH  17  60
ATOM     60  C   LIG    1        5.422   1.730   8.561  0.00  0.00    +0.037 C 
BRANCH  60  61
ATOM     61  C   LIG    1        3.874   1.811   8.546  0.00  0.00    -0.015 C 
ATOM     62  C   LIG    1        3.213   0.455   8.832  0.00  0.00    +0.007 C 
ATOM     63  C   LIG    1        3.359   2.887   9.524  0.00  0.00    +0.007 C 
ENDBRANCH  60  61
ENDBRANCH  17  60
BRANCH   9  64
ATOM     64  C   LIG    1        4.541   4.877   3.044  0.00  0.00    +0.037 C 
BRANCH  64  65
ATOM     65  C   LIG    1        4.460   6.078   2.058  0.00  0.00    -0.015 C 
ATOM     66  C   LIG    1        3.593   5.759   0.820  0.00  0.00    +0.007 C 
ATOM     67  C   LIG    1        3.986   7.363   2.772  0.00  0.00    +0.007 C 
ENDBRANCH  64  65
ENDBRANCH   9  64
BRANCH   5  68
ATOM     68  C   LIG    1        4.160   2.965  -1.345  0.00  0.00    +0.089 C 
BRANCH  68  69
ATOM     69  C   LIG    1        4.133   2.480  -2.791  0.00  0.00    -0.043 A 
ATOM     70  C   LIG    1        2.920   2.177  -3.408  0.00  0.00    +0.005 A 
ATOM     71  C   LIG    1        2.903   1.714  -4.721  0.00  0.00    +0.023 A 
ATOM     72  C   LIG    1        4.096   1.553  -5.445  0.00  0.00    +0.030 A 
ATOM     73  C   LIG    1        5.306   1.859  -4.805  0.00  0.00    +0.023 A 
ATOM     74  C   LIG    1        5.327   2.322  -3.493  0.00  0.00    +0.005 A 
BRANCH  72  75
ATOM     75  N   LIG    1        4.102   1.072  -6.757  0.00  0.00    -0.326 N 
ATOM     76  C   LIG    1        4.898   1.780  -7.780  0.00  0.00    +0.133 C 
ATOM     77  C   LIG    1        5.132   0.943  -9.056  0.00  0.00    +0.178 C 
ATOM     78  O   LIG    1        3.890   0.510  -9.590  0.00  0.00    -0.377 OA
ATOM     79  C   LIG    1        3.171  -0.290  -8.665  0.00  0.00    +0.178 C 
ATOM     80  C   LIG    1        2.885   0.517  -7.380  0.00  0.00    +0.133 C 
ENDBRANCH  72  75
ENDBRANCH  68  69
ENDBRANCH   5  68
TORSDOF 14
