REMARK  Name = DB11651
REMARK                            x       y       z     vdW  Elec       q    Type
REMARK                         _______ _______ _______ _____ _____    ______ ____
ROOT
ATOM      1  N   LIG    1        5.741  -0.068  -0.035  0.00  0.00    -0.260 N 
ATOM      2  C   LIG    1        6.510  -1.156   0.253  0.00  0.00    +0.334 A 
ATOM      3  O   LIG    1        6.127  -2.291   0.545  0.00  0.00    -0.246 OA
ATOM      4  N   LIG    1        7.788  -0.726   0.105  0.00  0.00    -0.293 N 
ATOM      5  C   LIG    1        8.940  -1.608   0.276  0.00  0.00    +0.154 C 
ATOM      6  C   LIG    1        7.827   0.622  -0.164  0.00  0.00    +0.089 A 
ATOM      7  C   LIG    1        8.888   1.503  -0.350  0.00  0.00    +0.139 A 
ATOM      8  N   LIG    1        8.693   2.826  -0.577  0.00  0.00    -0.253 NA
ATOM      9  C   LIG    1        7.413   3.304  -0.607  0.00  0.00    +0.073 A 
ATOM     10  C   LIG    1        7.217   4.686  -0.830  0.00  0.00    +0.029 A 
ATOM     11  C   LIG    1        5.931   5.217  -0.862  0.00  0.00    +0.010 A 
ATOM     12  C   LIG    1        4.800   4.417  -0.669  0.00  0.00    -0.016 A 
ATOM     13  C   LIG    1        4.984   3.049  -0.441  0.00  0.00    +0.020 A 
ATOM     14  C   LIG    1        6.274   2.458  -0.419  0.00  0.00    +0.027 A 
ATOM     15  C   LIG    1        6.534   1.065  -0.214  0.00  0.00    +0.086 A 
ENDROOT
BRANCH  12  16
ATOM     16  C   LIG    1        3.422   4.998  -0.714  0.00  0.00    +0.001 A 
ATOM     17  C   LIG    1        2.373   4.459   0.043  0.00  0.00    +0.120 A 
ATOM     18  N   LIG    1        1.099   4.922   0.032  0.00  0.00    -0.254 NA
ATOM     19  C   LIG    1        0.806   5.984  -0.765  0.00  0.00    +0.071 A 
ATOM     20  C   LIG    1       -0.522   6.475  -0.793  0.00  0.00    +0.028 A 
ATOM     21  C   LIG    1       -0.848   7.562  -1.601  0.00  0.00    +0.002 A 
ATOM     22  C   LIG    1        0.122   8.179  -2.386  0.00  0.00    +0.001 A 
ATOM     23  C   LIG    1        1.437   7.718  -2.382  0.00  0.00    +0.010 A 
ATOM     24  C   LIG    1        1.800   6.614  -1.572  0.00  0.00    +0.001 A 
ATOM     25  C   LIG    1        3.118   6.097  -1.527  0.00  0.00    +0.020 A 
ENDBRANCH  12  16
BRANCH   1  29
ATOM     26  C   LIG    1        1.540  -0.005  -0.112  0.00  0.00    -0.028 A 
ATOM     27  C   LIG    1        2.226  -0.186   1.100  0.00  0.00    +0.007 A 
ATOM     28  C   LIG    1        3.617  -0.228   1.129  0.00  0.00    +0.026 A 
ATOM     29  C   LIG    1        4.339  -0.086  -0.057  0.00  0.00    +0.052 A 
ATOM     30  C   LIG    1        3.673   0.076  -1.273  0.00  0.00    +0.026 A 
ATOM     31  C   LIG    1        2.283   0.121  -1.295  0.00  0.00    +0.007 A 
BRANCH  26  33
ATOM     32  C   LIG    1       -0.568  -0.988  -1.141  0.00  0.00    +0.032 C 
ATOM     33  C   LIG    1       -0.002   0.075  -0.171  0.00  0.00    +0.077 C 
ATOM     34  C   LIG    1       -0.437   1.486  -0.628  0.00  0.00    +0.032 C 
BRANCH  33  35
ATOM     35  C   LIG    1       -0.619  -0.173   1.151  0.00  0.00    +0.073 C 
ATOM     36  N   LIG    1       -1.104  -0.368   2.184  0.00  0.00    -0.196 NA
ENDBRANCH  33  35
ENDBRANCH  26  33
ENDBRANCH   1  29
TORSDOF 4
