REMARK  Name = DB11510
REMARK                            x       y       z     vdW  Elec       q    Type
REMARK                         _______ _______ _______ _____ _____    ______ ____
ROOT
ATOM      1  C   UNK A  2        2.205  -1.622   0.097  0.00  0.00    +0.163 C 
ENDROOT
BRANCH   1   4
ATOM      2  C   UNK A  2        3.178  -3.787  -0.644  0.00  0.00    +0.236 C 
ATOM      3  O   UNK A  2        3.346  -4.241   0.489  0.00  0.00    -0.274 OA
ATOM      4  N   UNK A  2        2.646  -2.584  -0.914  0.00  0.00    -0.302 N 
ATOM      5  H   UNK A  2        2.529  -2.296  -1.874  0.00  0.00    +0.150 HD
BRANCH   2   6
ATOM      6  C   UNK A  2        3.621  -4.618  -1.863  0.00  0.00    +0.184 C 
BRANCH   6   9
ATOM      7  C   GLN A  1        6.035  -4.036  -1.869  0.00  0.00    +0.234 C 
ATOM      8  O   GLN A  1        5.854  -2.850  -2.152  0.00  0.00    -0.274 OA
ATOM      9  N   UNK A  2        5.045  -4.940  -1.773  0.00  0.00    -0.301 N 
ATOM     10  H   UNK A  2        5.268  -5.898  -1.543  0.00  0.00    +0.150 HD
BRANCH   7  11
ATOM     11  CA  GLN A  1        7.456  -4.561  -1.608  0.00  0.00    +0.163 C 
BRANCH  11  12
ATOM     12  N   GLN A  1        8.431  -3.493  -1.829  0.00  0.00    -0.302 N 
ATOM     13  H   GLN A  1        8.209  -2.611  -1.389  0.00  0.00    +0.150 HD
ATOM     14  C   GLN A  1        9.534  -3.588  -2.585  0.00  0.00    +0.234 C 
ATOM     15  O   GLN A  1        9.903  -4.609  -3.166  0.00  0.00    -0.274 OA
BRANCH  14  16
ATOM     16  CA  GLN A  1       10.331  -2.283  -2.757  0.00  0.00    +0.161 C 
BRANCH  16  17
ATOM     17  N   GLN A  1       11.767  -2.530  -2.633  0.00  0.00    -0.302 N 
ATOM     18  H   GLN A  1       12.281  -2.583  -3.500  0.00  0.00    +0.150 HD
ATOM     19  C   GLN A  1       12.408  -2.771  -1.475  0.00  0.00    +0.234 C 
ATOM     20  O   GLN A  1       11.846  -2.709  -0.380  0.00  0.00    -0.274 OA
BRANCH  19  21
ATOM     21  CA  GLN A  1       13.912  -3.115  -1.601  0.00  0.00    +0.159 C 
ATOM     22  N   GLN A  1       14.583  -3.193  -0.302  0.00  0.00    -0.304 N 
ATOM     23  H   GLN A  1       14.719  -2.369   0.266  0.00  0.00    +0.149 HD
ATOM     24  CD  GLN A  1       14.959  -4.418   0.108  0.00  0.00    +0.214 C 
ATOM     25  OE1 GLN A  1       15.519  -4.720   1.159  0.00  0.00    -0.276 OA
ATOM     26  CG  GLN A  1       14.549  -5.381  -1.004  0.00  0.00    +0.098 C 
ATOM     27  CB  GLN A  1       14.135  -4.514  -2.182  0.00  0.00    +0.041 C 
ENDBRANCH  19  21
ENDBRANCH  16  17
BRANCH  16  28
ATOM     28  CB  GLN A  1       10.055  -1.627  -4.127  0.00  0.00    +0.057 C 
BRANCH  28  29
ATOM     29  CG  GLN A  1        8.618  -1.222  -4.366  0.00  0.00    +0.059 C 
ATOM     30  CD2 GLN A  1        7.954  -0.041  -4.092  0.00  0.00    +0.096 C 
ATOM     31  NE2 GLN A  1        6.637  -0.200  -4.494  0.00  0.00    -0.293 NA
ATOM     32  HE2 GLN A  1        5.897   0.484  -4.421  0.00  0.00    +0.124 HD
ATOM     33  CE1 GLN A  1        6.536  -1.428  -4.998  0.00  0.00    +0.155 C 
ATOM     34  ND1 GLN A  1        7.696  -2.080  -4.949  0.00  0.00    -0.290 NA
ATOM     35  HD1 GLN A  1        7.870  -3.024  -5.264  0.00  0.00    +0.124 HD
ENDBRANCH  28  29
ENDBRANCH  16  28
ENDBRANCH  14  16
ENDBRANCH  11  12
BRANCH  11  36
ATOM     36  CB  GLN A  1        7.608  -5.103  -0.169  0.00  0.00    +0.069 C 
BRANCH  36  37
ATOM     37  CG  GLN A  1        8.972  -5.604   0.205  0.00  0.00    -0.020 A 
ATOM     38  CD1 GLN A  1        9.587  -6.676  -0.344  0.00  0.00    +0.087 A 
ATOM     39  NE1 GLN A  1       10.838  -6.830   0.215  0.00  0.00    -0.360 N 
ATOM     40  HE1 GLN A  1       11.467  -7.572  -0.055  0.00  0.00    +0.165 HD
ATOM     41  CE2 GLN A  1       11.097  -5.860   1.160  0.00  0.00    +0.047 A 
ATOM     42  CZ2 GLN A  1       12.201  -5.592   1.988  0.00  0.00    +0.026 A 
ATOM     43  CH2 GLN A  1       12.156  -4.487   2.858  0.00  0.00    +0.002 A 
ATOM     44  CZ3 GLN A  1       11.007  -3.673   2.897  0.00  0.00    +0.001 A 
ATOM     45  CE3 GLN A  1        9.903  -3.958   2.068  0.00  0.00    +0.010 A 
ATOM     46  CD2 GLN A  1        9.917  -5.055   1.175  0.00  0.00    +0.003 A 
ENDBRANCH  36  37
ENDBRANCH  11  36
ENDBRANCH   7  11
ENDBRANCH   6   9
BRANCH   6  47
ATOM     47  C   UNK A  2        2.820  -5.929  -1.997  0.00  0.00    +0.187 C 
BRANCH  47  48
ATOM     48  O   UNK A  2        1.436  -5.680  -2.146  0.00  0.00    -0.393 OA
ATOM     49  H   UNK A  2        0.976  -6.521  -2.195  0.00  0.00    +0.209 HD
ENDBRANCH  47  48
ENDBRANCH   6  47
ENDBRANCH   2   6
ENDBRANCH   1   4
BRANCH   1  50
ATOM     50  C   UNK A  2        0.736  -1.254  -0.143  0.00  0.00    +0.234 C 
ATOM     51  O   UNK A  2        0.314  -1.160  -1.296  0.00  0.00    -0.274 OA
ATOM     52  N   UNK A  2        0.018  -1.003   0.968  0.00  0.00    -0.302 N 
ATOM     53  H   UNK A  2        0.480  -1.119   1.857  0.00  0.00    +0.150 HD
BRANCH  52  54
ATOM     54  C   UNK A  2       -1.359  -0.500   1.069  0.00  0.00    +0.163 C 
BRANCH  54  55
ATOM     55  C   UNK A  2       -1.475   0.984   0.668  0.00  0.00    +0.234 C 
ATOM     56  N   UNK A  2       -2.232   1.746   1.476  0.00  0.00    -0.302 N 
ATOM     57  H   UNK A  2       -2.697   1.321   2.265  0.00  0.00    +0.150 HD
ATOM     58  O   UNK A  2       -0.896   1.409  -0.332  0.00  0.00    -0.274 OA
BRANCH  56  59
ATOM     59  C   UNK A  2       -2.368   3.199   1.364  0.00  0.00    +0.159 C 
BRANCH  59  60
ATOM     60  C   UNK A  2       -1.063   3.875   1.813  0.00  0.00    +0.234 C 
ATOM     61  N   UNK A  2       -0.356   4.484   0.848  0.00  0.00    -0.302 N 
ATOM     62  H   UNK A  2       -0.707   4.491  -0.099  0.00  0.00    +0.150 HD
ATOM     63  O   UNK A  2       -0.717   3.806   2.993  0.00  0.00    -0.274 OA
BRANCH  61  64
ATOM     64  C   UNK A  2        0.958   5.089   1.046  0.00  0.00    +0.159 C 
BRANCH  64  65
ATOM     65  C   UNK A  2        1.145   6.226   0.021  0.00  0.00    +0.237 C 
ATOM     66  O   UNK A  2        1.634   5.952  -1.076  0.00  0.00    -0.274 OA
ATOM     67  N   UNK A  2        0.748   7.472   0.381  0.00  0.00    -0.288 N 
ATOM     68  C   UNK A  2        0.997   8.677  -0.439  0.00  0.00    +0.162 C 
ATOM     69  C   UNK A  2        0.386   9.825   0.391  0.00  0.00    +0.033 C 
ATOM     70  C   UNK A  2       -0.656   9.154   1.268  0.00  0.00    +0.021 C 
ATOM     71  C   UNK A  2       -0.014   7.812   1.585  0.00  0.00    +0.109 C 
BRANCH  68  72
ATOM     72  C   UNK A  2        2.488   8.913  -0.747  0.00  0.00    +0.234 C 
ATOM     73  N   UNK A  2        2.830   8.886  -2.045  0.00  0.00    -0.314 N 
ATOM     74  H   UNK A  2        2.111   8.737  -2.737  0.00  0.00    +0.149 HD
ATOM     75  O   UNK A  2        3.284   9.083   0.178  0.00  0.00    -0.274 OA
BRANCH  73  76
ATOM     76  C   UNK A  2        4.197   9.025  -2.540  0.00  0.00    +0.101 C 
ATOM     77  C   UNK A  2        5.038   7.750  -2.361  0.00  0.00    +0.024 C 
ENDBRANCH  73  76
ENDBRANCH  68  72
ENDBRANCH  64  65
BRANCH  64  78
ATOM     78  C   UNK A  2        2.047   3.989   0.968  0.00  0.00    +0.033 C 
BRANCH  78  79
ATOM     79  C   UNK A  2        3.482   4.504   1.208  0.00  0.00    +0.017 C 
BRANCH  79  80
ATOM     80  C   UNK A  2        4.556   3.400   1.226  0.00  0.00    +0.084 C 
BRANCH  80  81
ATOM     81  N   UNK A  2        4.466   2.538   2.421  0.00  0.00    -0.283 NA
ATOM     82  H   UNK A  2        3.540   2.452   2.817  0.00  0.00    +0.125 HD
BRANCH  81  83
ATOM     83  C   UNK A  2        5.458   1.851   3.021  0.00  0.00    +0.167 C 
BRANCH  83  84
ATOM     84  N   UNK A  2        5.164   1.098   4.089  0.00  0.00    -0.297 NA
ATOM     85  H   UNK A  2        4.215   1.052   4.432  0.00  0.00    +0.121 HD
ATOM     86  H   UNK A  2        5.890   0.572   4.555  0.00  0.00    +0.121 HD
ENDBRANCH  83  84
BRANCH  83  87
ATOM     87  N   UNK A  2        6.731   1.892   2.591  0.00  0.00    -0.297 NA
ATOM     88  H   UNK A  2        6.975   2.453   1.788  0.00  0.00    +0.121 HD
ATOM     89  H   UNK A  2        7.445   1.359   3.066  0.00  0.00    +0.121 HD
ENDBRANCH  83  87
ENDBRANCH  81  83
ENDBRANCH  80  81
ENDBRANCH  79  80
ENDBRANCH  78  79
ENDBRANCH  64  78
ENDBRANCH  61  64
ENDBRANCH  59  60
BRANCH  59  90
ATOM     90  C   UNK A  2       -3.570   3.669   2.216  0.00  0.00    +0.034 C 
BRANCH  90  91
ATOM     91  C   UNK A  2       -4.943   3.200   1.685  0.00  0.00    -0.015 C 
ATOM     92  C   UNK A  2       -6.067   3.500   2.699  0.00  0.00    +0.007 C 
ATOM     93  C   UNK A  2       -5.254   3.776   0.288  0.00  0.00    +0.007 C 
ENDBRANCH  90  91
ENDBRANCH  59  90
ENDBRANCH  56  59
ENDBRANCH  54  55
BRANCH  54  94
ATOM     94  C   UNK A  2       -2.368  -1.412   0.327  0.00  0.00    +0.069 C 
BRANCH  94  95
ATOM     95  C   UNK A  2       -3.818  -1.041   0.453  0.00  0.00    -0.020 A 
ATOM     96  C   UNK A  2       -4.599  -1.292   1.528  0.00  0.00    +0.087 A 
ATOM     97  N   UNK A  2       -5.860  -0.777   1.315  0.00  0.00    -0.360 N 
ATOM     98  H   UNK A  2       -6.604  -0.860   1.993  0.00  0.00    +0.165 HD
ATOM     99  C   UNK A  2       -5.957  -0.153   0.089  0.00  0.00    +0.047 A 
ATOM    100  C   UNK A  2       -7.002   0.514  -0.575  0.00  0.00    +0.026 A 
ATOM    101  C   UNK A  2       -6.767   1.061  -1.849  0.00  0.00    +0.002 A 
ATOM    102  C   UNK A  2       -5.494   0.942  -2.440  0.00  0.00    +0.001 A 
ATOM    103  C   UNK A  2       -4.452   0.274  -1.763  0.00  0.00    +0.010 A 
ATOM    104  C   UNK A  2       -4.656  -0.296  -0.484  0.00  0.00    +0.003 A 
ENDBRANCH  94  95
ENDBRANCH  54  94
ENDBRANCH  52  54
ENDBRANCH   1  50
BRANCH   1 105
ATOM    105  C   UNK A  2        3.084  -0.349   0.027  0.00  0.00    +0.067 C 
BRANCH 105 106
ATOM    106  C   UNK A  2        4.587  -0.552   0.170  0.00  0.00    -0.045 A 
ATOM    107  C   UNK A  2        5.472   0.085  -0.726  0.00  0.00    +0.007 A 
ATOM    108  C   UNK A  2        6.863  -0.097  -0.603  0.00  0.00    +0.045 A 
ATOM    109  C   UNK A  2        7.379  -0.922   0.414  0.00  0.00    +0.117 A 
ATOM    110  C   UNK A  2        6.501  -1.556   1.315  0.00  0.00    +0.045 A 
ATOM    111  C   UNK A  2        5.111  -1.366   1.198  0.00  0.00    +0.007 A 
BRANCH 109 112
ATOM    112  O   UNK A  2        8.726  -1.102   0.534  0.00  0.00    -0.507 OA
ATOM    113  H   UNK A  2        9.241  -0.611  -0.110  0.00  0.00    +0.292 HD
ENDBRANCH 109 112
ENDBRANCH 105 106
ENDBRANCH   1 105
TORSDOF 37
