REMARK  Name = DB11263
REMARK                            x       y       z     vdW  Elec       q    Type
REMARK                         _______ _______ _______ _____ _____    ______ ____
ROOT
ATOM      1  C   LIG    1        3.313   0.720  -1.236  0.00  0.00    +0.091 A 
ATOM      2  C   LIG    1        3.961   1.200  -2.372  0.00  0.00    +0.121 A 
ATOM      3  C   LIG    1        3.216   1.685  -3.446  0.00  0.00    +0.053 A 
ATOM      4  C   LIG    1        1.818   1.699  -3.398  0.00  0.00    -0.018 A 
ATOM      5  C   LIG    1        1.181   1.210  -2.248  0.00  0.00    +0.054 A 
ATOM      6  C   LIG    1        1.920   0.715  -1.159  0.00  0.00    +0.128 A 
ENDROOT
BRANCH   2   7
ATOM      7  O   LIG    1        5.329   1.194  -2.434  0.00  0.00    -0.507 OA
ATOM      8  H   LIG    1        5.665   1.543  -3.262  0.00  0.00    +0.292 HD
ENDBRANCH   2   7
BRANCH   4   9
ATOM      9  C   LIG    1        1.073   2.223  -4.565  0.00  0.00    +0.009 C 
ATOM     10  C   LIG    1       -0.265   2.194  -4.751  0.00  0.00    +0.008 C 
BRANCH  10  11
ATOM     11  C   LIG    1       -1.013   2.723  -5.914  0.00  0.00    -0.025 A 
ATOM     12  C   LIG    1       -2.396   2.515  -5.960  0.00  0.00    +0.011 A 
ATOM     13  C   LIG    1       -3.147   2.984  -7.034  0.00  0.00    +0.046 A 
ATOM     14  C   LIG    1       -2.517   3.665  -8.072  0.00  0.00    +0.117 A 
ATOM     15  C   LIG    1       -1.141   3.881  -8.041  0.00  0.00    +0.046 A 
ATOM     16  C   LIG    1       -0.391   3.412  -6.965  0.00  0.00    +0.011 A 
BRANCH  14  17
ATOM     17  O   LIG    1       -3.255   4.124  -9.131  0.00  0.00    -0.507 OA
ATOM     18  H   LIG    1       -2.722   4.574  -9.791  0.00  0.00    +0.292 HD
ENDBRANCH  14  17
ENDBRANCH  10  11
ENDBRANCH   4   9
BRANCH   6  19
ATOM     19  O   LIG    1        1.365   0.224   0.010  0.00  0.00    -0.461 OA
BRANCH  19  20
ATOM     20  C   LIG    1       -0.023   0.082   0.124  0.00  0.00    +0.339 C 
ATOM     21  C   LIG    1       -0.300  -0.697   1.420  0.00  0.00    +0.214 C 
ATOM     22  C   LIG    1       -1.828  -0.789   1.666  0.00  0.00    +0.180 C 
ATOM     23  C   LIG    1       -2.516   0.588   1.525  0.00  0.00    +0.177 C 
ATOM     24  C   LIG    1       -2.059   1.287   0.219  0.00  0.00    +0.179 C 
ATOM     25  O   LIG    1       -0.629   1.347   0.219  0.00  0.00    -0.331 OA
BRANCH  21  26
ATOM     26  O   LIG    1        0.294  -1.983   1.388  0.00  0.00    -0.383 OA
ATOM     27  H   LIG    1       -0.098  -2.513   2.086  0.00  0.00    +0.210 HD
ENDBRANCH  21  26
BRANCH  23  28
ATOM     28  O   LIG    1       -3.926   0.458   1.583  0.00  0.00    -0.386 OA
ATOM     29  H   LIG    1       -4.310   1.328   1.718  0.00  0.00    +0.210 HD
ENDBRANCH  23  28
BRANCH  22  30
ATOM     30  O   LIG    1       -2.108  -1.384   2.923  0.00  0.00    -0.386 OA
ATOM     31  H   LIG    1       -3.025  -1.200   3.145  0.00  0.00    +0.210 HD
ENDBRANCH  22  30
BRANCH  24  32
ATOM     32  C   LIG    1       -2.597   2.727   0.079  0.00  0.00    +0.190 C 
BRANCH  32  33
ATOM     33  O   LIG    1       -2.259   3.266  -1.184  0.00  0.00    -0.392 OA
ATOM     34  H   LIG    1       -2.589   4.167  -1.231  0.00  0.00    +0.210 HD
ENDBRANCH  32  33
ENDBRANCH  24  32
ENDBRANCH  19  20
ENDBRANCH   6  19
TORSDOF 11
