REMARK  Name = DB11123
REMARK                            x       y       z     vdW  Elec       q    Type
REMARK                         _______ _______ _______ _____ _____    ______ ____
ROOT
ATOM      1 CL   LIG    1       -0.064  -0.134   0.855  0.00  0.00    +0.058 Cl
ATOM      2  O   LIG    1        0.064   0.134  -0.855  0.00  0.00    -0.294 OA
ATOM      3  H   LIG    1       -0.128   1.064  -1.051  0.00  0.00    +0.235 HD
ENDROOT
TORSDOF 0
