REMARK  Name = DB11157
REMARK                            x       y       z     vdW  Elec       q    Type
REMARK                         _______ _______ _______ _____ _____    ______ ____
ROOT
ATOM      1  C   LIG    1        1.354   0.053   0.000  0.00  0.00    +0.128 A 
ATOM      2  C   LIG    1        2.040  -1.191   0.000  0.00  0.00    +0.067 A 
ATOM      3  C   LIG    1        1.303  -2.511   0.000  0.00  0.00    +0.201 C 
ATOM      4  O   LIG    1        0.071  -2.538   0.000  0.00  0.00    -0.286 OA
ATOM      5  C   LIG    1        2.096  -3.799   0.000  0.00  0.00    +0.067 A 
ATOM      6  C   LIG    1        1.464  -5.071   0.000  0.00  0.00    +0.128 A 
ATOM      7  C   LIG    1        2.218  -6.243   0.000  0.00  0.00    +0.046 A 
ATOM      8  C   LIG    1        3.603  -6.187   0.000  0.00  0.00    +0.004 A 
ATOM      9  C   LIG    1        4.236  -4.952   0.000  0.00  0.00    +0.005 A 
ATOM     10  C   LIG    1        3.509  -3.756   0.000  0.00  0.00    -0.029 A 
ATOM     11  C   LIG    1        4.288  -2.447   0.000  0.00  0.00    +0.072 C 
ATOM     12  C   LIG    1        3.454  -1.173   0.000  0.00  0.00    -0.029 A 
ATOM     13  C   LIG    1        4.129   0.053   0.000  0.00  0.00    +0.005 A 
ATOM     14  C   LIG    1        3.443   1.259   0.000  0.00  0.00    +0.004 A 
ATOM     15  C   LIG    1        2.058   1.256   0.000  0.00  0.00    +0.046 A 
ENDROOT
BRANCH   1  16
ATOM     16  O   LIG    1       -0.015   0.162   0.000  0.00  0.00    -0.506 OA
ATOM     17  H   LIG    1       -0.317   1.073   0.000  0.00  0.00    +0.292 HD
ENDBRANCH   1  16
BRANCH   6  18
ATOM     18  O   LIG    1        0.101  -5.239   0.000  0.00  0.00    -0.506 OA
ATOM     19  H   LIG    1       -0.162  -6.162   0.000  0.00  0.00    +0.292 HD
ENDBRANCH   6  18
TORSDOF 2
