REMARK  Name = DB11941
REMARK                            x       y       z     vdW  Elec       q    Type
REMARK                         _______ _______ _______ _____ _____    ______ ____
ROOT
ATOM      1  C   LIG    1       -0.636   1.139   0.179  0.00  0.00    +0.264 C 
ATOM      2  N   LIG    1        0.011  -0.001   0.157  0.00  0.00    -0.181 N 
ATOM      3  H   LIG    1       -0.483  -0.847   0.064  0.00  0.00    +0.177 HD
ATOM      4  O   LIG    1       -0.182   2.279   0.305  0.00  0.00    -0.269 OA
ENDROOT
BRANCH   1  11
ATOM      5  C   LIG    1       -4.308   0.824   1.067  0.00  0.00    +0.021 A 
ATOM      6  C   LIG    1       -4.903   0.685  -0.185  0.00  0.00    +0.042 A 
ATOM      7 CL   LIG    1       -6.615   0.507  -0.314  0.00  0.00    -0.083 Cl
ATOM      8  C   LIG    1       -4.113   0.691  -1.335  0.00  0.00    +0.040 A 
ATOM      9  C   LIG    1       -2.727   0.834  -1.242  0.00  0.00    +0.054 A 
ATOM     10 CL   LIG    1       -1.810   0.843  -2.714  0.00  0.00    -0.083 Cl
ATOM     11  C   LIG    1       -2.121   0.967   0.024  0.00  0.00    +0.057 A 
ATOM     12  C   LIG    1       -2.925   0.968   1.171  0.00  0.00    +0.016 A 
ENDBRANCH   1  11
BRANCH   2  13
ATOM     13  S   LIG    1        1.577  -0.013   0.278  0.00  0.00    +0.081 S 
ATOM     14  O   LIG    1        2.051   0.326   1.625  0.00  0.00    -0.149 OA
ATOM     15  O   LIG    1        2.266   0.608  -0.860  0.00  0.00    -0.149 OA
BRANCH  13  16
ATOM     16  C   LIG    1        2.017  -1.764   0.105  0.00  0.00    +0.147 A 
ATOM     17  S   LIG    1        1.376  -2.772  -1.159  0.00  0.00    -0.061 S 
ATOM     18  C   LIG    1        2.303  -4.122  -0.587  0.00  0.00    +0.057 A 
ATOM     19 BR   LIG    1        2.192  -5.806  -1.465  0.00  0.00    -0.043 Br
ATOM     20  C   LIG    1        3.074  -3.791   0.519  0.00  0.00    +0.025 A 
ATOM     21  C   LIG    1        2.919  -2.455   0.906  0.00  0.00    +0.038 A 
ENDBRANCH  13  16
ENDBRANCH   2  13
TORSDOF 3
