REMARK  Name = DB11944
REMARK                            x       y       z     vdW  Elec       q    Type
REMARK                         _______ _______ _______ _____ _____    ______ ____
ROOT
ATOM      1  N   LIG    1       -0.584  -1.411  -0.100  0.00  0.00    -0.315 N 
ATOM      2  H   LIG    1       -0.016  -2.177  -0.430  0.00  0.00    +0.149 HD
ATOM      3  C   LIG    1        0.030  -0.281   0.296  0.00  0.00    +0.213 C 
ATOM      4  O   LIG    1       -0.576   0.712   0.700  0.00  0.00    -0.276 OA
ENDROOT
BRANCH   1   5
ATOM      5  C   LIG    1       -2.030  -1.628  -0.092  0.00  0.00    +0.106 C 
BRANCH   5   6
ATOM      6  C   LIG    1       -2.609  -1.858   1.320  0.00  0.00    +0.044 C 
BRANCH   6  13
ATOM      7  C   LIG    1       -5.060  -2.213   0.309  0.00  0.00    +0.096 C 
ATOM      8  N   LIG    1       -6.292  -2.453   0.892  0.00  0.00    -0.293 NA
ATOM      9  H   LIG    1       -7.165  -2.569   0.397  0.00  0.00    +0.124 HD
ATOM     10  C   LIG    1       -6.132  -2.507   2.256  0.00  0.00    +0.155 C 
ATOM     11  N   LIG    1       -4.796  -2.299   2.513  0.00  0.00    -0.290 NA
ATOM     12  H   LIG    1       -4.378  -2.280   3.433  0.00  0.00    +0.124 HD
ATOM     13  C   LIG    1       -4.104  -2.112   1.324  0.00  0.00    +0.059 C 
ENDBRANCH   6  13
ENDBRANCH   5   6
ENDBRANCH   1   5
BRANCH   3  14
ATOM     14  C   LIG    1        1.563  -0.266   0.212  0.00  0.00    +0.096 C 
BRANCH  14  15
ATOM     15  C   LIG    1        2.233   0.094   1.555  0.00  0.00    +0.020 C 
BRANCH  15  16
ATOM     16  C   LIG    1        3.781   0.121   1.452  0.00  0.00    +0.121 C 
BRANCH  16  17
ATOM     17  C   LIG    1        4.525   0.434   2.773  0.00  0.00    +0.305 C 
ATOM     18  O   LIG    1        5.771   0.528   2.692  0.00  0.00    -0.251 OA
BRANCH  17  19
ATOM     19  O   LIG    1        3.883   0.570   3.841  0.00  0.00    -0.481 OA
ATOM     20  H   LIG    1        2.950   0.488   3.841  0.00  0.00    +0.295 HD
ENDBRANCH  17  19
ENDBRANCH  16  17
ENDBRANCH  15  16
ENDBRANCH  14  15
ENDBRANCH   3  14
TORSDOF 8
