REMARK  Name = DB11939
REMARK                            x       y       z     vdW  Elec       q    Type
REMARK                         _______ _______ _______ _____ _____    ______ ____
ROOT
ATOM      1  C   LIG    1       -2.063   1.113   0.060  0.00  0.00    -0.024 A 
ATOM      2  C   LIG    1       -2.764  -0.103  -0.018  0.00  0.00    +0.044 A 
ATOM      3 CL   LIG    1       -4.494  -0.159  -0.036  0.00  0.00    -0.083 Cl
ATOM      4  C   LIG    1       -2.062  -1.306  -0.086  0.00  0.00    +0.021 A 
ATOM      5  C   LIG    1       -0.669  -1.310  -0.081  0.00  0.00    +0.010 A 
ATOM      6  C   LIG    1        0.047  -0.111  -0.004  0.00  0.00    +0.014 A 
ATOM      7  C   LIG    1       -0.663   1.095   0.055  0.00  0.00    +0.014 A 
ENDROOT
BRANCH   6   8
ATOM      8  C   LIG    1        1.600  -0.137  -0.036  0.00  0.00    +0.227 C 
ATOM      9  O   LIG    1        1.993  -0.556  -1.302  0.00  0.00    -0.340 OA
ATOM     10  C   LIG    1        3.162   0.141  -1.694  0.00  0.00    +0.203 C 
ATOM     11  C   LIG    1        3.452   1.083  -0.504  0.00  0.00    +0.147 C 
ATOM     12  C   LIG    1        4.387   0.435   0.576  0.00  0.00    +0.182 C 
ATOM     13  C   LIG    1        3.587  -0.391   1.614  0.00  0.00    +0.180 C 
ATOM     14  O   LIG    1        2.132   1.157   0.016  0.00  0.00    -0.329 OA
ATOM     15  C   LIG    1        2.306  -1.051   1.034  0.00  0.00    +0.209 C 
BRANCH  12  16
ATOM     16  O   LIG    1        5.196   1.393   1.242  0.00  0.00    -0.386 OA
ATOM     17  H   LIG    1        5.729   1.849   0.586  0.00  0.00    +0.210 HD
ENDBRANCH  12  16
BRANCH  13  18
ATOM     18  O   LIG    1        4.410  -1.335   2.277  0.00  0.00    -0.386 OA
ATOM     19  H   LIG    1        4.723  -1.975   1.634  0.00  0.00    +0.210 HD
ENDBRANCH  13  18
BRANCH  15  20
ATOM     20  O   LIG    1        1.446  -1.423   2.102  0.00  0.00    -0.383 OA
ATOM     21  H   LIG    1        1.417  -0.701   2.734  0.00  0.00    +0.210 HD
ENDBRANCH  15  20
BRANCH  11  22
ATOM     22  C   LIG    1        3.819   2.518  -0.968  0.00  0.00    +0.196 C 
BRANCH  22  23
ATOM     23  O   LIG    1        5.058   2.540  -1.652  0.00  0.00    -0.392 OA
ATOM     24  H   LIG    1        5.236   3.441  -1.932  0.00  0.00    +0.210 HD
ENDBRANCH  22  23
ENDBRANCH  11  22
ENDBRANCH   6   8
BRANCH   1  25
ATOM     25  C   LIG    1       -2.780   2.463   0.117  0.00  0.00    +0.071 C 
BRANCH  25  30
ATOM     26  C   LIG    1       -3.695   4.027   4.073  0.00  0.00    +0.156 A 
ATOM     27  C   LIG    1       -3.736   2.650   3.833  0.00  0.00    +0.165 A 
ATOM     28  F   LIG    1       -4.062   1.798   4.833  0.00  0.00    -0.202 F 
ATOM     29  C   LIG    1       -3.444   2.138   2.569  0.00  0.00    +0.046 A 
ATOM     30  C   LIG    1       -3.107   2.993   1.514  0.00  0.00    -0.040 A 
ATOM     31  C   LIG    1       -3.059   4.370   1.751  0.00  0.00    +0.008 A 
ATOM     32  C   LIG    1       -3.350   4.884   3.014  0.00  0.00    +0.049 A 
BRANCH  26  33
ATOM     33  O   LIG    1       -4.002   4.454   5.352  0.00  0.00    -0.489 OA
BRANCH  33  35
ATOM     34  C   LIG    1       -4.386   6.039   7.116  0.00  0.00    +0.048 C 
ATOM     35  C   LIG    1       -3.994   5.847   5.647  0.00  0.00    +0.226 C 
ENDBRANCH  33  35
ENDBRANCH  26  33
ENDBRANCH  25  30
ENDBRANCH   1  25
TORSDOF 10
