REMARK  Name = DB11853
REMARK                            x       y       z     vdW  Elec       q    Type
REMARK                         _______ _______ _______ _____ _____    ______ ____
ROOT
ATOM      1  N   LIG    1       -3.279   1.813  -0.125  0.00  0.00    -0.282 N 
ATOM      2  C   LIG    1       -2.951   3.142  -0.246  0.00  0.00    +0.339 A 
ATOM      3  O   LIG    1       -3.811   4.012  -0.440  0.00  0.00    -0.246 OA
ATOM      4  N   LIG    1       -1.597   3.423  -0.090  0.00  0.00    -0.210 N 
ATOM      5  C   LIG    1       -0.522   2.552   0.062  0.00  0.00    +0.271 A 
ATOM      6  O   LIG    1        0.632   2.940   0.274  0.00  0.00    -0.266 OA
ATOM      7  C   LIG    1       -0.940   1.156  -0.066  0.00  0.00    +0.076 A 
ATOM      8  C   LIG    1       -0.108  -0.001  -0.068  0.00  0.00    -0.004 A 
ATOM      9  C   LIG    1       -0.874  -1.174  -0.177  0.00  0.00    +0.026 A 
ATOM     10  S   LIG    1       -2.575  -0.870  -0.296  0.00  0.00    -0.070 S 
ATOM     11  C   LIG    1       -2.292   0.832  -0.146  0.00  0.00    +0.098 A 
ENDROOT
BRANCH   4  12
ATOM     12  C   LIG    1       -1.268   4.804  -0.061  0.00  0.00    +0.167 A 
ATOM     13  C   LIG    1       -1.356   5.519   1.141  0.00  0.00    +0.054 A 
ATOM     14  C   LIG    1       -1.018   6.871   1.126  0.00  0.00    +0.072 A 
ATOM     15  C   LIG    1       -0.610   7.439  -0.081  0.00  0.00    +0.234 A 
ATOM     16  N   LIG    1       -0.539   6.703  -1.230  0.00  0.00    -0.110 NA
ATOM     17  N   LIG    1       -0.864   5.399  -1.220  0.00  0.00    -0.127 NA
BRANCH  15  18
ATOM     18  O   LIG    1       -0.273   8.780  -0.102  0.00  0.00    -0.479 OA
ATOM     19  C   LIG    1        0.148   9.379  -1.328  0.00  0.00    +0.279 C 
ENDBRANCH  15  18
ENDBRANCH   4  12
BRANCH   9  20
ATOM     20  C   LIG    1       -0.422  -2.593  -0.216  0.00  0.00    -0.011 A 
ATOM     21  C   LIG    1       -0.773  -3.467   0.815  0.00  0.00    +0.011 A 
ATOM     22  C   LIG    1       -0.332  -4.787   0.794  0.00  0.00    +0.024 A 
ATOM     23  C   LIG    1        0.465  -5.245  -0.268  0.00  0.00    +0.035 A 
ATOM     24  C   LIG    1        0.818  -4.363  -1.293  0.00  0.00    +0.024 A 
ATOM     25  C   LIG    1        0.374  -3.044  -1.269  0.00  0.00    +0.011 A 
BRANCH  23  26
ATOM     26  N   LIG    1        0.978  -6.551  -0.377  0.00  0.00    -0.268 N 
ATOM     27  H   LIG    1        1.677  -6.665  -1.097  0.00  0.00    +0.156 HD
ATOM     28  C   LIG    1        0.639  -7.664   0.306  0.00  0.00    +0.327 C 
ATOM     29  N   LIG    1        1.418  -8.696  -0.064  0.00  0.00    -0.178 N 
ATOM     30  H   LIG    1        2.034  -8.679  -0.864  0.00  0.00    +0.184 HD
ATOM     31  O   LIG    1       -0.255  -7.745   1.152  0.00  0.00    -0.250 OA
BRANCH  29  32
ATOM     32  O   LIG    1        1.030  -9.992   0.274  0.00  0.00    -0.282 OA
ATOM     33  C   LIG    1        1.805 -10.460   1.369  0.00  0.00    +0.226 C 
ENDBRANCH  29  32
ENDBRANCH  23  26
ENDBRANCH   9  20
BRANCH   1  34
ATOM     34  C   LIG    1       -4.700   1.439   0.062  0.00  0.00    +0.168 C 
BRANCH  34  40
ATOM     35  C   LIG    1       -6.063  -0.915   2.752  0.00  0.00    +0.039 A 
ATOM     36  C   LIG    1       -5.695  -0.259   3.925  0.00  0.00    +0.006 A 
ATOM     37  C   LIG    1       -5.010   0.953   3.858  0.00  0.00    +0.039 A 
ATOM     38  C   LIG    1       -4.687   1.509   2.620  0.00  0.00    +0.131 A 
ATOM     39  F   LIG    1       -4.031   2.692   2.586  0.00  0.00    -0.205 F 
ATOM     40  C   LIG    1       -5.045   0.850   1.433  0.00  0.00    +0.043 A 
ATOM     41  C   LIG    1       -5.743  -0.363   1.511  0.00  0.00    +0.131 A 
ATOM     42  F   LIG    1       -6.113  -1.017   0.386  0.00  0.00    -0.205 F 
ENDBRANCH  34  40
ENDBRANCH   1  34
BRANCH   8  43
ATOM     43  C   LIG    1        1.416  -0.019   0.042  0.00  0.00    +0.121 C 
BRANCH  43  44
ATOM     44  N   LIG    1        2.075  -0.155  -1.262  0.00  0.00    -0.304 NA
ATOM     45  C   LIG    1        2.034   1.085  -2.034  0.00  0.00    +0.104 C 
ATOM     46  C   LIG    1        3.463  -0.569  -1.087  0.00  0.00    +0.104 C 
ENDBRANCH  43  44
ENDBRANCH   8  43
TORSDOF 9
