REMARK  Name = DB11890
REMARK                            x       y       z     vdW  Elec       q    Type
REMARK                         _______ _______ _______ _____ _____    ______ ____
ROOT
ATOM      1  CA  GLY A  5       -0.998  -0.944   3.332  0.00  0.00    +0.200 C 
ATOM      2  C   GLY A  5       -0.602   0.185   4.291  0.00  0.00    +0.231 C 
ATOM      3  O   GLY A  5        0.539   0.647   4.263  0.00  0.00    -0.274 OA
ATOM      4  N   ASP A  1       -1.553   0.607   5.145  0.00  0.00    -0.302 N 
ATOM      5  H   ASP A  1       -2.454   0.153   5.132  0.00  0.00    +0.150 HD
ATOM      6  CA  ASP A  1       -1.427   1.718   6.106  0.00  0.00    +0.169 C 
ATOM      7  C   ASP A  1       -1.095   3.044   5.389  0.00  0.00    +0.234 C 
ATOM      8  O   ASP A  1       -0.122   3.714   5.736  0.00  0.00    -0.274 OA
ATOM      9  N   PHE A  2       -1.894   3.350   4.352  0.00  0.00    -0.302 N 
ATOM     10  H   PHE A  2       -2.676   2.745   4.146  0.00  0.00    +0.150 HD
ATOM     11  CA  PHE A  2       -1.631   4.383   3.350  0.00  0.00    +0.163 C 
ATOM     12  C   PHE A  2       -2.080   3.873   1.959  0.00  0.00    +0.237 C 
ATOM     13  O   PHE A  2       -3.051   3.110   1.940  0.00  0.00    -0.274 OA
ATOM     14  N   VAL A  3       -1.430   4.269   0.820  0.00  0.00    -0.291 N 
ATOM     15  C   ACE A  0       -0.305   5.221   0.867  0.00  0.00    +0.133 C 
ATOM     16  CA  VAL A  3       -1.879   3.730  -0.507  0.00  0.00    +0.164 C 
ATOM     17  C   VAL A  3       -1.600   2.219  -0.727  0.00  0.00    +0.234 C 
ATOM     18  O   VAL A  3       -2.369   1.572  -1.438  0.00  0.00    -0.274 OA
ATOM     19  N   ARG A  4       -0.540   1.687  -0.094  0.00  0.00    -0.302 N 
ATOM     20  H   ARG A  4        0.030   2.272   0.500  0.00  0.00    +0.150 HD
ATOM     21  CA  ARG A  4       -0.123   0.289  -0.207  0.00  0.00    +0.159 C 
ATOM     22  C   ARG A  4        0.124  -0.279   1.201  0.00  0.00    +0.234 C 
ATOM     23  O   ARG A  4        1.270  -0.530   1.575  0.00  0.00    -0.274 OA
ATOM     24  N   GLY A  5       -0.976  -0.447   1.955  0.00  0.00    -0.305 N 
ATOM     25  H   GLY A  5       -1.872  -0.199   1.560  0.00  0.00    +0.149 HD
ENDROOT
BRANCH  16  26
ATOM     26  CB  VAL A  3       -1.431   4.524  -1.788  0.00  0.00    +0.012 C 
ATOM     27  CG2 VAL A  3        0.020   4.266  -2.257  0.00  0.00    +0.009 C 
ATOM     28  CG1 VAL A  3       -2.386   4.304  -2.978  0.00  0.00    +0.009 C 
ENDBRANCH  16  26
BRANCH   6  29
ATOM     29  CB  ASP A  1       -0.464   1.421   7.294  0.00  0.00    +0.152 C 
BRANCH  29  30
ATOM     30  CG  ASP A  1       -0.708   0.111   8.071  0.00  0.00    +0.307 C 
ATOM     31  OD2 ASP A  1        0.226  -0.280   8.806  0.00  0.00    -0.251 OA
BRANCH  30  32
ATOM     32  OD1 ASP A  1       -1.847  -0.408   8.044  0.00  0.00    -0.481 OA
ATOM     33  HD1 ASP A  1       -2.011  -1.204   8.511  0.00  0.00    +0.295 HD
ENDBRANCH  30  32
ENDBRANCH  29  30
ENDBRANCH   6  29
BRANCH  11  34
ATOM     34  CB  PHE A  2       -2.364   5.696   3.712  0.00  0.00    +0.067 C 
BRANCH  34  35
ATOM     35  CG  PHE A  2       -1.826   6.425   4.931  0.00  0.00    -0.045 A 
ATOM     36  CD2 PHE A  2       -0.645   7.191   4.831  0.00  0.00    +0.004 A 
ATOM     37  CE2 PHE A  2       -0.100   7.777   5.966  0.00  0.00    +0.000 A 
ATOM     38  CZ  PHE A  2       -0.698   7.591   7.206  0.00  0.00    +0.000 A 
ATOM     39  CE1 PHE A  2       -1.840   6.810   7.325  0.00  0.00    +0.000 A 
ATOM     40  CD1 PHE A  2       -2.402   6.216   6.202  0.00  0.00    +0.004 A 
ENDBRANCH  34  35
ENDBRANCH  11  34
BRANCH  21  41
ATOM     41  CB  ARG A  4        1.091   0.206  -1.163  0.00  0.00    +0.033 C 
BRANCH  41  42
ATOM     42  CG  ARG A  4        1.556  -1.227  -1.489  0.00  0.00    +0.017 C 
BRANCH  42  43
ATOM     43  CD  ARG A  4        2.750  -1.250  -2.457  0.00  0.00    +0.084 C 
BRANCH  43  44
ATOM     44  NE  ARG A  4        3.321  -2.600  -2.602  0.00  0.00    -0.283 NA
ATOM     45  HE  ARG A  4        2.938  -3.156  -3.354  0.00  0.00    +0.125 HD
BRANCH  44  46
ATOM     46  CZ  ARG A  4        4.250  -3.178  -1.813  0.00  0.00    +0.167 C 
BRANCH  46  47
ATOM     47  NH2 ARG A  4        4.647  -4.427  -2.090  0.00  0.00    -0.297 NA
ATOM     48 HH21 ARG A  4        4.257  -4.921  -2.880  0.00  0.00    +0.121 HD
ATOM     49 HH22 ARG A  4        5.337  -4.881  -1.508  0.00  0.00    +0.121 HD
ENDBRANCH  46  47
BRANCH  46  50
ATOM     50  NH1 ARG A  4        4.792  -2.548  -0.756  0.00  0.00    -0.297 NA
ATOM     51 HH11 ARG A  4        4.502  -1.608  -0.524  0.00  0.00    +0.121 HD
ATOM     52 HH12 ARG A  4        5.487  -3.011  -0.187  0.00  0.00    +0.121 HD
ENDBRANCH  46  50
ENDBRANCH  44  46
ENDBRANCH  43  44
ENDBRANCH  42  43
ENDBRANCH  41  42
ENDBRANCH  21  41
TORSDOF 13
