REMARK  Name = DB11824
REMARK                            x       y       z     vdW  Elec       q    Type
REMARK                         _______ _______ _______ _____ _____    ______ ____
ROOT
ATOM      1  C   LIG    1        1.593   0.055   0.061  0.00  0.00    -0.043 A 
ATOM      2  C   LIG    1        2.258   0.587  -1.051  0.00  0.00    +0.013 A 
ATOM      3  C   LIG    1        3.653   0.599  -1.068  0.00  0.00    +0.019 A 
ATOM      4  C   LIG    1        4.663   1.146  -2.080  0.00  0.00    +0.227 C 
ATOM      5  O   LIG    1        5.847   0.473  -1.757  0.00  0.00    -0.338 OA
ATOM      6  C   LIG    1        5.845   0.203  -0.362  0.00  0.00    +0.199 C 
ATOM      7  O   LIG    1        4.763   2.536  -1.881  0.00  0.00    -0.334 OA
ATOM      8  C   LIG    1        5.779   3.180  -2.664  0.00  0.00    +0.178 C 
ATOM      9  C   LIG    1        5.460   3.023  -4.172  0.00  0.00    +0.177 C 
ATOM     10  C   LIG    1        5.235   1.537  -4.528  0.00  0.00    +0.179 C 
ATOM     11  C   LIG    1        4.241   0.875  -3.545  0.00  0.00    +0.209 C 
ATOM     12  C   LIG    1        4.386   0.070  -0.020  0.00  0.00    -0.013 A 
ATOM     13  C   LIG    1        3.734  -0.459   1.094  0.00  0.00    +0.006 A 
ATOM     14  C   LIG    1        2.337  -0.466   1.130  0.00  0.00    +0.004 A 
ENDROOT
BRANCH   9  15
ATOM     15  O   LIG    1        6.481   3.588  -4.978  0.00  0.00    -0.386 OA
ATOM     16  H   LIG    1        6.215   3.518  -5.898  0.00  0.00    +0.210 HD
ENDBRANCH   9  15
BRANCH  10  17
ATOM     17  O   LIG    1        4.810   1.390  -5.874  0.00  0.00    -0.386 OA
ATOM     18  H   LIG    1        3.954   1.814  -5.973  0.00  0.00    +0.210 HD
ENDBRANCH  10  17
BRANCH  11  19
ATOM     19  O   LIG    1        4.098  -0.518  -3.783  0.00  0.00    -0.383 OA
ATOM     20  H   LIG    1        3.403  -0.854  -3.213  0.00  0.00    +0.210 HD
ENDBRANCH  11  19
BRANCH   1  21
ATOM     21  C   LIG    1        0.070   0.042   0.105  0.00  0.00    +0.070 C 
BRANCH  21  25
ATOM     22  C   LIG    1       -1.679   3.980  -0.022  0.00  0.00    -0.048 A 
ATOM     23  C   LIG    1       -1.053   3.531   1.143  0.00  0.00    +0.004 A 
ATOM     24  C   LIG    1       -0.494   2.257   1.184  0.00  0.00    +0.004 A 
ATOM     25  C   LIG    1       -0.552   1.432   0.058  0.00  0.00    -0.043 A 
ATOM     26  C   LIG    1       -1.189   1.877  -1.103  0.00  0.00    +0.004 A 
ATOM     27  C   LIG    1       -1.750   3.150  -1.144  0.00  0.00    +0.004 A 
BRANCH  22  29
ATOM     28  C   LIG    1       -1.292   6.422  -0.617  0.00  0.00    +0.009 C 
ATOM     29  C   LIG    1       -2.277   5.378  -0.074  0.00  0.00    +0.032 C 
ENDBRANCH  22  29
ENDBRANCH  21  25
ENDBRANCH   1  21
BRANCH   8  30
ATOM     30  C   LIG    1        5.858   4.656  -2.220  0.00  0.00    +0.190 C 
BRANCH  30  31
ATOM     31  O   LIG    1        6.298   4.756  -0.880  0.00  0.00    -0.392 OA
ATOM     32  H   LIG    1        6.330   5.684  -0.637  0.00  0.00    +0.210 HD
ENDBRANCH  30  31
ENDBRANCH   8  30
TORSDOF 8
