REMARK  Name = DB11282
REMARK                            x       y       z     vdW  Elec       q    Type
REMARK                         _______ _______ _______ _____ _____    ______ ____
ROOT
ATOM      1  O   LIG    1       -0.420  -2.099  -0.149  0.00  0.00    -0.270 OA
ATOM      2  C   LIG    1       -0.813  -0.933  -0.075  0.00  0.00    +0.247 C 
ATOM      3  N   LIG    1        0.023   0.139  -0.015  0.00  0.00    -0.298 N 
ENDROOT
BRANCH   2   4
ATOM      4  C   LIG    1       -2.295  -0.680  -0.054  0.00  0.00    +0.037 A 
ATOM      5  C   LIG    1       -3.005  -0.563  -1.254  0.00  0.00    +0.013 A 
ATOM      6  C   LIG    1       -4.379  -0.326  -1.234  0.00  0.00    +0.001 A 
ATOM      7  C   LIG    1       -5.051  -0.208  -0.018  0.00  0.00    +0.003 A 
ATOM      8  C   LIG    1       -4.351  -0.329   1.187  0.00  0.00    -0.050 A 
ATOM      9  C   LIG    1       -5.073  -0.196   2.515  0.00  0.00    +0.044 C 
ATOM     10  C   LIG    1       -2.974  -0.567   1.165  0.00  0.00    +0.016 A 
ENDBRANCH   2   4
BRANCH   3  11
ATOM     11  C   LIG    1       -0.422   1.541   0.057  0.00  0.00    +0.104 C 
ATOM     12  C   LIG    1       -0.483   2.082   1.494  0.00  0.00    +0.024 C 
ENDBRANCH   3  11
BRANCH   3  13
ATOM     13  C   LIG    1        1.483  -0.037  -0.015  0.00  0.00    +0.104 C 
ATOM     14  C   LIG    1        2.075  -0.162  -1.427  0.00  0.00    +0.024 C 
ENDBRANCH   3  13
TORSDOF 3
