REMARK  Name = DB11956
REMARK                            x       y       z     vdW  Elec       q    Type
REMARK                         _______ _______ _______ _____ _____    ______ ____
ROOT
ATOM      1  C   LIG    1        3.505  -1.002   0.606  0.00  0.00    +0.000 C 
ENDROOT
BRANCH   1   4
ATOM      2  N   LIG    1        1.495  -0.009  -0.395  0.00  0.00    +0.000 N 
ATOM      3  H   LIG    1        2.124   0.257  -1.139  0.00  0.00    +0.000 HD
ATOM      4  C   LIG    1        1.986  -0.704   0.645  0.00  0.00    +0.000 C 
ATOM      5  O   LIG    1        1.305  -1.108   1.590  0.00  0.00    +0.000 OA
BRANCH   2   6
ATOM      6  C   LIG    1        0.100   0.414  -0.554  0.00  0.00    +0.000 C 
BRANCH   6   7
ATOM      7  B   LIG    1       -0.321   0.235  -2.067  0.00  0.00    +0.000 B 
BRANCH   7   8
ATOM      8  O   LIG    1        0.447   0.766  -3.063  0.00  0.00    +0.000 OA
ATOM      9  H   LIG    1        0.049   0.631  -3.926  0.00  0.00    +0.000 HD
ENDBRANCH   7   8
BRANCH   7  10
ATOM     10  O   LIG    1       -1.517  -0.346  -2.367  0.00  0.00    +0.000 OA
ATOM     11  H   LIG    1       -1.976  -0.643  -1.578  0.00  0.00    +0.000 HD
ENDBRANCH   7  10
ENDBRANCH   6   7
BRANCH   6  12
ATOM     12  C   LIG    1       -0.155   1.867  -0.074  0.00  0.00    +0.000 C 
BRANCH  12  13
ATOM     13  C   LIG    1        0.049   2.144   1.438  0.00  0.00    +0.000 C 
ATOM     14  C   LIG    1        0.018   3.656   1.731  0.00  0.00    +0.000 C 
ATOM     15  C   LIG    1       -0.970   1.402   2.325  0.00  0.00    +0.000 C 
ENDBRANCH  12  13
ENDBRANCH   6  12
ENDBRANCH   2   6
ENDBRANCH   1   4
BRANCH   1  16
ATOM     16  N   LIG    1        4.161  -0.761   1.899  0.00  0.00    +0.000 N 
ATOM     17  H   LIG    1        4.481  -1.588   2.382  0.00  0.00    +0.000 HD
ATOM     18  C   LIG    1        4.332   0.441   2.488  0.00  0.00    +0.000 C 
ATOM     19  O   LIG    1        3.962   1.496   1.966  0.00  0.00    +0.000 OA
BRANCH  18  20
ATOM     20  C   LIG    1        5.018   0.446   3.838  0.00  0.00    +0.000 A 
ATOM     21  N   LIG    1        5.365  -0.752   4.394  0.00  0.00    +0.000 NA
ATOM     22  C   LIG    1        5.986  -0.784   5.607  0.00  0.00    +0.000 A 
ATOM     23  C   LIG    1        6.269   0.400   6.304  0.00  0.00    +0.000 A 
ATOM     24  C   LIG    1        5.917   1.625   5.738  0.00  0.00    +0.000 A 
ATOM     25  C   LIG    1        5.287   1.654   4.495  0.00  0.00    +0.000 A 
BRANCH  22  26
ATOM     26  C   LIG    1        6.317  -2.139   6.154  0.00  0.00    +0.000 A 
ATOM     27  C   LIG    1        5.582  -3.275   5.777  0.00  0.00    +0.000 A 
ATOM     28  C   LIG    1        5.891  -4.532   6.289  0.00  0.00    +0.000 A 
ATOM     29  C   LIG    1        6.947  -4.670   7.185  0.00  0.00    +0.000 A 
ATOM     30  C   LIG    1        7.693  -3.561   7.570  0.00  0.00    +0.000 A 
ATOM     31  C   LIG    1        7.378  -2.305   7.057  0.00  0.00    +0.000 A 
ENDBRANCH  22  26
ENDBRANCH  18  20
ENDBRANCH   1  16
BRANCH   1  32
ATOM     32  C   LIG    1        3.718  -2.465   0.107  0.00  0.00    +0.000 C 
ATOM     33  C   LIG    1        5.199  -2.805  -0.137  0.00  0.00    +0.000 C 
BRANCH  32  34
ATOM     34  O   LIG    1        3.209  -3.433   1.012  0.00  0.00    +0.000 OA
ATOM     35  H   LIG    1        2.266  -3.283   1.121  0.00  0.00    +0.000 HD
ENDBRANCH  32  34
ENDBRANCH   1  32
TORSDOF 12
