REMARK  Name = DB11585
REMARK                            x       y       z     vdW  Elec       q    Type
REMARK                         _______ _______ _______ _____ _____    ______ ____
ROOT
ATOM      1  C   LIG    1        4.404  -1.267   0.092  0.00  0.00    +0.000 A 
ATOM      2  C   LIG    1        4.448  -2.663   0.158  0.00  0.00    +0.000 A 
ATOM      3  C   LIG    1        4.926  -3.311   1.296  0.00  0.00    +0.000 A 
ATOM      4  C   LIG    1        4.943  -4.828   1.355  0.00  0.00    +0.000 C 
ATOM      5  C   LIG    1        5.362  -2.557   2.385  0.00  0.00    +0.000 A 
ATOM      6  C   LIG    1        5.330  -1.157   2.342  0.00  0.00    +0.000 A 
ATOM      7  C   LIG    1        4.855  -0.507   1.186  0.00  0.00    +0.000 A 
ENDROOT
BRANCH   6   8
ATOM      8  N   LIG    1        5.782  -0.439   3.475  0.00  0.00    +0.000 N 
ATOM      9  N   LIG    1        5.029   0.538   4.034  0.00  0.00    +0.000 NA
ATOM     10  C   LIG    1        5.805   0.915   5.085  0.00  0.00    +0.000 A 
ATOM     11  C   LIG    1        5.585   1.899   6.060  0.00  0.00    +0.000 A 
ATOM     12  C   LIG    1        6.561   2.079   7.041  0.00  0.00    +0.000 A 
ATOM     13  C   LIG    1        7.723   1.307   7.059  0.00  0.00    +0.000 A 
ATOM     14  C   LIG    1        7.957   0.324   6.097  0.00  0.00    +0.000 A 
ATOM     15  C   LIG    1        6.986   0.131   5.103  0.00  0.00    +0.000 A 
ATOM     16  N   LIG    1        6.961  -0.747   4.065  0.00  0.00    +0.000 NA
ENDBRANCH   6   8
BRANCH   7  17
ATOM     17  O   LIG    1        4.843   0.866   1.112  0.00  0.00    +0.000 OA
ATOM     18  H   LIG    1        4.487   1.191   0.282  0.00  0.00    +0.000 HD
ENDBRANCH   7  17
BRANCH   1  19
ATOM     19  C   LIG    1        3.864  -0.619  -1.186  0.00  0.00    +0.000 C 
BRANCH  19  20
ATOM     20  C   LIG    1        2.317  -0.595  -1.273  0.00  0.00    +0.000 C 
ATOM     21  C   LIG    1        1.859  -0.233  -2.700  0.00  0.00    +0.000 C 
BRANCH  20  22
ATOM     22  C   LIG    1        1.662   0.336  -0.224  0.00  0.00    +0.000 C 
BRANCH  22  23
ATOM     23 SI   LIG    1       -0.125  -0.096   0.222  0.00  0.00    +0.000 Si
ATOM     24  C   LIG    1       -1.268   1.396   0.113  0.00  0.00    +0.000 C 
BRANCH  23  25
ATOM     25  O   LIG    1       -0.098  -0.627   1.806  0.00  0.00    +0.000 OA
BRANCH  25  26
ATOM     26 SI   LIG    1        0.406  -1.409   3.194  0.00  0.00    +0.000 Si
ATOM     27  C   LIG    1        1.565  -0.237   4.102  0.00  0.00    +0.000 C 
ATOM     28  C   LIG    1        1.314  -2.969   2.658  0.00  0.00    +0.000 C 
ATOM     29  C   LIG    1       -1.117  -1.817   4.224  0.00  0.00    +0.000 C 
ENDBRANCH  25  26
ENDBRANCH  23  25
BRANCH  23  30
ATOM     30  O   LIG    1       -0.680  -1.258  -0.844  0.00  0.00    +0.000 OA
BRANCH  30  31
ATOM     31 SI   LIG    1       -1.568  -2.505  -1.513  0.00  0.00    +0.000 Si
ATOM     32  C   LIG    1       -3.376  -2.221  -1.070  0.00  0.00    +0.000 C 
ATOM     33  C   LIG    1       -0.929  -4.114  -0.771  0.00  0.00    +0.000 C 
ATOM     34  C   LIG    1       -1.306  -2.462  -3.377  0.00  0.00    +0.000 C 
ENDBRANCH  30  31
ENDBRANCH  23  30
ENDBRANCH  22  23
ENDBRANCH  20  22
ENDBRANCH  19  20
ENDBRANCH   1  19
TORSDOF 10
