REMARK  Name = DB11581
REMARK                            x       y       z     vdW  Elec       q    Type
REMARK                         _______ _______ _______ _____ _____    ______ ____
ROOT
ATOM      1  C   LIG    1       -2.770  -0.429   1.272  0.00  0.00    +0.033 A 
ATOM      2  C   LIG    1       -1.844  -1.446   0.996  0.00  0.00    +0.070 A 
ATOM      3  C   LIG    1       -0.488  -1.169   0.815  0.00  0.00    +0.142 A 
ATOM      4  C   LIG    1       -0.018   0.154   0.936  0.00  0.00    +0.080 A 
ATOM      5  C   LIG    1       -0.940   1.173   1.205  0.00  0.00    +0.018 A 
ATOM      6  C   LIG    1       -2.294   0.885   1.367  0.00  0.00    +0.024 A 
ENDROOT
BRANCH   1   9
ATOM      7  C   LIG    1       -6.283  -1.831   0.741  0.00  0.00    +0.103 C 
ATOM      8  C   LIG    1       -4.754  -1.938   0.938  0.00  0.00    +0.120 C 
ATOM      9  N   LIG    1       -4.125  -0.703   1.441  0.00  0.00    -0.327 N 
ATOM     10  C   LIG    1       -4.893  -0.124   2.559  0.00  0.00    +0.120 C 
ATOM     11  C   LIG    1       -6.413  -0.051   2.293  0.00  0.00    +0.103 C 
ATOM     12  N   LIG    1       -6.942  -1.375   1.966  0.00  0.00    -0.295 NA
BRANCH  12  13
ATOM     13  C   LIG    1       -8.398  -1.313   1.798  0.00  0.00    +0.115 C 
BRANCH  13  14
ATOM     14  C   LIG    1       -9.118  -2.665   1.730  0.00  0.00    -0.052 C 
ATOM     15  C   LIG    1      -10.002  -2.995   0.744  0.00  0.00    -0.039 C 
ATOM     16  C   LIG    1      -10.637  -4.391   0.662  0.00  0.00    +0.042 C 
ATOM     17  C   LIG    1      -10.847  -5.013   2.070  0.00  0.00    -0.031 C 
ATOM     18  C   LIG    1      -11.898  -4.217   2.886  0.00  0.00    +0.011 C 
ATOM     19  C   LIG    1      -11.263  -6.490   1.890  0.00  0.00    +0.011 C 
ATOM     20  C   LIG    1       -9.454  -4.987   2.750  0.00  0.00    +0.011 C 
ATOM     21  C   LIG    1       -8.922  -3.556   2.967  0.00  0.00    +0.033 C 
BRANCH  15  22
ATOM     22  C   LIG    1      -10.128  -2.176  -0.478  0.00  0.00    -0.022 A 
ATOM     23  C   LIG    1       -9.095  -2.128  -1.420  0.00  0.00    +0.009 A 
ATOM     24  C   LIG    1       -9.240  -1.375  -2.582  0.00  0.00    +0.020 A 
ATOM     25  C   LIG    1      -10.426  -0.682  -2.812  0.00  0.00    +0.041 A 
ATOM     26 CL   LIG    1      -10.609   0.250  -4.253  0.00  0.00    -0.084 Cl
ATOM     27  C   LIG    1      -11.470  -0.740  -1.889  0.00  0.00    +0.020 A 
ATOM     28  C   LIG    1      -11.322  -1.493  -0.727  0.00  0.00    +0.009 A 
ENDBRANCH  15  22
ENDBRANCH  13  14
ENDBRANCH  12  13
ENDBRANCH   1   9
BRANCH   4  29
ATOM     29  C   LIG    1        1.447   0.485   0.789  0.00  0.00    +0.267 C 
ATOM     30  O   LIG    1        2.314  -0.276   1.219  0.00  0.00    -0.268 OA
ATOM     31  N   LIG    1        1.761   1.684   0.108  0.00  0.00    -0.181 N 
ATOM     32  H   LIG    1        0.998   2.273  -0.236  0.00  0.00    +0.177 HD
BRANCH  31  33
ATOM     33  S   LIG    1        3.379   2.238  -0.319  0.00  0.00    +0.075 S 
ATOM     34  O   LIG    1        4.272   1.974   0.816  0.00  0.00    -0.150 OA
ATOM     35  O   LIG    1        3.246   3.592  -0.868  0.00  0.00    -0.150 OA
BRANCH  33  36
ATOM     36  C   LIG    1        3.898   1.162  -1.656  0.00  0.00    +0.111 A 
ATOM     37  C   LIG    1        4.373  -0.119  -1.376  0.00  0.00    +0.063 A 
ATOM     38  C   LIG    1        4.801  -0.991  -2.392  0.00  0.00    +0.144 A 
ATOM     39  C   LIG    1        4.749  -0.532  -3.736  0.00  0.00    +0.058 A 
ATOM     40  C   LIG    1        4.255   0.756  -4.002  0.00  0.00    +0.027 A 
ATOM     41  C   LIG    1        3.834   1.594  -2.976  0.00  0.00    +0.031 A 
BRANCH  38  42
ATOM     42  N   LIG    1        5.285  -2.351  -1.997  0.00  0.00    +0.008 N 
ATOM     43  O   LIG    1        5.639  -3.158  -2.850  0.00  0.00    -0.130 OA
BRANCH  42  44
ATOM     44  O   LIG    1        5.307  -2.636  -0.802  0.00  0.00    -0.396 OA
ATOM     45  H   LIG    1        5.032  -2.007  -0.165  0.00  0.00    +0.329 HD
ENDBRANCH  42  44
ENDBRANCH  38  42
BRANCH  39  46
ATOM     46  N   LIG    1        5.190  -1.344  -4.798  0.00  0.00    -0.342 N 
ATOM     47  H   LIG    1        5.545  -2.265  -4.582  0.00  0.00    +0.146 HD
BRANCH  46  48
ATOM     48  C   LIG    1        5.172  -0.938  -6.201  0.00  0.00    +0.105 C 
BRANCH  48  49
ATOM     49  C   LIG    1        5.717  -2.014  -7.167  0.00  0.00    +0.010 C 
ATOM     50  C   LIG    1        7.202  -2.367  -6.918  0.00  0.00    +0.033 C 
ATOM     51  C   LIG    1        7.688  -3.446  -7.905  0.00  0.00    +0.160 C 
ATOM     52  O   LIG    1        6.848  -4.598  -7.817  0.00  0.00    -0.380 OA
ATOM     53  C   LIG    1        5.481  -4.350  -8.150  0.00  0.00    +0.160 C 
ATOM     54  C   LIG    1        4.883  -3.315  -7.176  0.00  0.00    +0.033 C 
ENDBRANCH  48  49
ENDBRANCH  46  48
ENDBRANCH  39  46
ENDBRANCH  33  36
ENDBRANCH  31  33
ENDBRANCH   4  29
BRANCH   3  55
ATOM     55  O   LIG    1        0.340  -2.229   0.512  0.00  0.00    -0.454 OA
BRANCH  55  56
ATOM     56  C   LIG    1        0.825  -2.415  -0.770  0.00  0.00    +0.147 A 
ATOM     57  C   LIG    1        1.733  -3.458  -0.972  0.00  0.00    +0.159 A 
ATOM     58  N   LIG    1        2.296  -3.789  -2.164  0.00  0.00    -0.234 NA
ATOM     59  C   LIG    1        1.924  -3.020  -3.190  0.00  0.00    +0.138 A 
ATOM     60  N   LIG    1        2.341  -3.135  -4.498  0.00  0.00    -0.346 N 
ATOM     61  H   LIG    1        2.987  -3.809  -4.884  0.00  0.00    +0.167 HD
ATOM     62  C   LIG    1        1.740  -2.159  -5.256  0.00  0.00    +0.085 A 
ATOM     63  C   LIG    1        0.921  -1.389  -4.452  0.00  0.00    +0.029 A 
ATOM     64  C   LIG    1        1.018  -1.926  -3.126  0.00  0.00    +0.022 A 
ATOM     65  C   LIG    1        0.453  -1.629  -1.876  0.00  0.00    +0.059 A 
ENDBRANCH  55  56
ENDBRANCH   3  55
TORSDOF 14
