REMARK  Name = DB11847
REMARK                            x       y       z     vdW  Elec       q    Type
REMARK                         _______ _______ _______ _____ _____    ______ ____
ROOT
ATOM      1  C   LIG    1        2.992  -0.521  -0.897  0.00  0.00    +0.103 C 
ATOM      2  C   LIG    1        2.502  -1.354  -2.115  0.00  0.00    +0.057 C 
ATOM      3  C   LIG    1        2.879  -2.851  -2.135  0.00  0.00    +0.108 C 
ATOM      4  N   LIG    1        2.550  -3.537  -0.878  0.00  0.00    -0.327 N 
ATOM      5  C   LIG    1        3.374  -2.914   0.168  0.00  0.00    +0.108 C 
ATOM      6  C   LIG    1        3.060  -1.415   0.374  0.00  0.00    +0.057 C 
ENDROOT
BRANCH   4   7
ATOM      7  C   LIG    1        2.338  -4.917  -0.922  0.00  0.00    +0.067 A 
ATOM      8  C   LIG    1        1.291  -5.451  -1.690  0.00  0.00    +0.145 A 
ATOM      9  F   LIG    1        0.464  -4.644  -2.397  0.00  0.00    -0.204 F 
ATOM     10  C   LIG    1        1.056  -6.824  -1.718  0.00  0.00    +0.054 A 
ATOM     11  C   LIG    1        1.841  -7.718  -0.976  0.00  0.00    +0.049 A 
ATOM     12  C   LIG    1        1.532  -9.197  -1.026  0.00  0.00    +0.203 A 
ATOM     13  C   LIG    1        2.370 -10.058  -0.133  0.00  0.00    +0.122 A 
ATOM     14  C   LIG    1        3.368  -9.443   0.569  0.00  0.00    +0.105 A 
ATOM     15  N   LIG    1        3.703  -8.099   0.534  0.00  0.00    -0.343 N 
ATOM     16  O   LIG    1        0.629  -9.620  -1.752  0.00  0.00    -0.286 OA
ATOM     17  C   LIG    1        2.894  -7.194  -0.198  0.00  0.00    +0.055 A 
ATOM     18  C   LIG    1        3.116  -5.809  -0.169  0.00  0.00    +0.052 A 
BRANCH  15  19
ATOM     19  C   LIG    1        4.847  -7.642   1.334  0.00  0.00    +0.087 C 
ATOM     20  C   LIG    1        6.152  -8.423   1.260  0.00  0.00    +0.027 C 
ATOM     21  C   LIG    1        6.047  -7.088   0.583  0.00  0.00    +0.027 C 
ENDBRANCH  15  19
BRANCH  13  22
ATOM     22  C   LIG    1        2.193 -11.634   0.080  0.00  0.00    +0.342 C 
ATOM     23  O   LIG    1        3.031 -12.225   0.805  0.00  0.00    -0.245 OA
BRANCH  22  24
ATOM     24  O   LIG    1        1.218 -12.159  -0.505  0.00  0.00    -0.477 OA
ATOM     25  H   LIG    1        0.645 -11.632  -1.027  0.00  0.00    +0.295 HD
ENDBRANCH  22  24
ENDBRANCH  13  22
ENDBRANCH   4   7
BRANCH   1  26
ATOM     26  O   LIG    1        4.367  -0.342  -1.203  0.00  0.00    -0.385 OA
ATOM     27  H   LIG    1        4.762  -1.207  -1.333  0.00  0.00    +0.210 HD
ENDBRANCH   1  26
BRANCH   1  28
ATOM     28  C   LIG    1        2.218   0.798  -0.692  0.00  0.00    +0.264 C 
BRANCH  28  29
ATOM     29  O   LIG    1        0.852   0.522  -0.388  0.00  0.00    -0.486 OA
BRANCH  29  35
ATOM     30  C   LIG    1       -0.607   3.922   0.023  0.00  0.00    +0.027 A 
ATOM     31  C   LIG    1       -1.937   3.592   0.327  0.00  0.00    +0.043 A 
ATOM     32  C   LIG    1       -2.295   2.237   0.367  0.00  0.00    +0.065 A 
ATOM     33  C   LIG    1       -1.349   1.240   0.129  0.00  0.00    +0.167 A 
ATOM     34  F   LIG    1       -1.730  -0.058   0.182  0.00  0.00    -0.202 F 
ATOM     35  C   LIG    1       -0.023   1.569  -0.164  0.00  0.00    +0.156 A 
ATOM     36  C   LIG    1        0.338   2.925  -0.216  0.00  0.00    +0.050 A 
BRANCH  31  37
ATOM     37  N   LIG    1       -2.919   4.585   0.558  0.00  0.00    -0.234 N 
ATOM     38  C   LIG    1       -2.694   5.844   1.139  0.00  0.00    +0.408 C 
ATOM     39  O   LIG    1       -1.650   6.403   1.471  0.00  0.00    -0.226 OA
ATOM     40  O   LIG    1       -3.896   6.448   1.286  0.00  0.00    -0.443 OA
ATOM     41  C   LIG    1       -4.969   5.724   0.728  0.00  0.00    +0.221 C 
ATOM     42  C   LIG    1       -4.354   4.363   0.485  0.00  0.00    +0.164 C 
BRANCH  41  43
ATOM     43  C   LIG    1       -5.499   6.463  -0.525  0.00  0.00    +0.202 C 
BRANCH  43  44
ATOM     44  O   LIG    1       -4.538   6.583  -1.557  0.00  0.00    -0.391 OA
ATOM     45  H   LIG    1       -4.936   7.052  -2.293  0.00  0.00    +0.210 HD
ENDBRANCH  43  44
ENDBRANCH  41  43
ENDBRANCH  31  37
ENDBRANCH  29  35
ENDBRANCH  28  29
ENDBRANCH   1  28
TORSDOF 11
