REMARK  Name = DB11658
REMARK                            x       y       z     vdW  Elec       q    Type
REMARK                         _______ _______ _______ _____ _____    ______ ____
ROOT
ATOM      1  C   LIG    1       -0.073   2.491   0.081  0.00  0.00    +0.064 C 
ATOM      2  C   LIG    1       -0.737   1.128   0.005  0.00  0.00    +0.022 A 
ATOM      3  N   LIG    1        0.014  -0.037  -0.075  0.00  0.00    -0.325 N 
ATOM      4  C   LIG    1       -0.846  -1.121  -0.117  0.00  0.00    +0.141 A 
ATOM      5  N   LIG    1       -0.505  -2.417  -0.192  0.00  0.00    -0.237 NA
ATOM      6  C   LIG    1       -1.545  -3.289  -0.209  0.00  0.00    +0.113 A 
ATOM      7  C   LIG    1       -2.888  -2.917  -0.158  0.00  0.00    +0.020 A 
ATOM      8  C   LIG    1       -3.219  -1.563  -0.086  0.00  0.00    +0.013 A 
ATOM      9  C   LIG    1       -2.173  -0.622  -0.064  0.00  0.00    +0.023 A 
ATOM     10  C   LIG    1       -2.094   0.808   0.008  0.00  0.00    -0.007 A 
ENDROOT
BRANCH   3  11
ATOM     11  C   LIG    1        1.479  -0.133  -0.061  0.00  0.00    +0.158 C 
BRANCH  11  12
ATOM     12  C   LIG    1        2.026  -0.760   1.216  0.00  0.00    -0.028 A 
ATOM     13  C   LIG    1        1.884  -0.095   2.436  0.00  0.00    +0.007 A 
ATOM     14  C   LIG    1        2.366  -0.674   3.606  0.00  0.00    +0.027 A 
ATOM     15  C   LIG    1        2.996  -1.919   3.555  0.00  0.00    +0.088 A 
ATOM     16  C   LIG    1        3.142  -2.585   2.337  0.00  0.00    +0.027 A 
ATOM     17  C   LIG    1        2.659  -2.005   1.168  0.00  0.00    +0.007 A 
BRANCH  15  18
ATOM     18  S   LIG    1        3.603  -2.675   5.060  0.00  0.00    -0.006 S 
ATOM     19  C   LIG    1        2.137  -3.709   5.640  0.00  0.00    +0.200 C 
ATOM     20  O   LIG    1        3.834  -1.603   6.035  0.00  0.00    -0.170 OA
ATOM     21  O   LIG    1        4.695  -3.583   4.688  0.00  0.00    -0.170 OA
ENDBRANCH  15  18
ENDBRANCH  11  12
ENDBRANCH   3  11
BRANCH  10  22
ATOM     22  C   LIG    1       -3.288   1.758   0.083  0.00  0.00    +0.158 C 
BRANCH  22  23
ATOM     23  C   LIG    1       -4.018   1.782   1.449  0.00  0.00    +0.309 C 
ATOM     24  O   LIG    1       -3.446   1.339   2.474  0.00  0.00    -0.251 OA
BRANCH  23  25
ATOM     25  O   LIG    1       -5.169   2.275   1.452  0.00  0.00    -0.480 OA
ATOM     26  H   LIG    1       -5.545   2.590   0.653  0.00  0.00    +0.295 HD
ENDBRANCH  23  25
ENDBRANCH  22  23
ENDBRANCH  10  22
TORSDOF 6
