REMARK  Name = DB11961
REMARK                            x       y       z     vdW  Elec       q    Type
REMARK                         _______ _______ _______ _____ _____    ______ ____
ROOT
ATOM      1  S   LIG    1        1.930   0.273  -0.006  0.00  0.00    +0.034 S 
ATOM      2  O   LIG    1        2.369   0.668   1.337  0.00  0.00    -0.158 OA
ATOM      3  O   LIG    1        2.310   1.082  -1.170  0.00  0.00    -0.158 OA
ENDROOT
BRANCH   1   4
ATOM      4  N   LIG    1        2.489  -1.383  -0.300  0.00  0.00    -0.181 NA
ATOM      5  C   LIG    1        2.295  -1.886  -1.686  0.00  0.00    +0.112 C 
ATOM      6  C   LIG    1        2.456  -3.420  -1.728  0.00  0.00    +0.062 C 
ATOM      7  C   LIG    1        3.809  -3.851  -1.125  0.00  0.00    +0.178 C 
ATOM      8  C   LIG    1        3.966  -3.290   0.310  0.00  0.00    +0.062 C 
ATOM      9  C   LIG    1        3.781  -1.758   0.333  0.00  0.00    +0.112 C 
BRANCH   7  10
ATOM     10  O   LIG    1        3.901  -5.280  -1.161  0.00  0.00    -0.473 OA
BRANCH  10  11
ATOM     11  C   LIG    1        5.124  -5.922  -1.067  0.00  0.00    +0.215 A 
ATOM     12  N   LIG    1        6.273  -5.186  -1.003  0.00  0.00    -0.220 NA
ATOM     13  C   LIG    1        7.455  -5.847  -0.915  0.00  0.00    +0.134 A 
ATOM     14  C   LIG    1        7.542  -7.240  -0.888  0.00  0.00    +0.059 A 
ATOM     15 CL   LIG    1        9.074  -8.025  -0.775  0.00  0.00    -0.082 Cl
ATOM     16  C   LIG    1        6.362  -7.983  -0.954  0.00  0.00    +0.027 A 
ATOM     17  C   LIG    1        5.137  -7.320  -1.047  0.00  0.00    +0.068 A 
ENDBRANCH  10  11
ENDBRANCH   7  10
ENDBRANCH   1   4
BRANCH   1  18
ATOM     18  C   LIG    1        0.034   0.094   0.019  0.00  0.00    +0.220 C 
BRANCH  18  20
ATOM     19  C   LIG    1       -2.206   1.185   0.619  0.00  0.00    +0.043 C 
ATOM     20  C   LIG    1       -0.742   1.438   0.186  0.00  0.00    +0.130 C 
ATOM     21  N   LIG    1       -0.094   2.421   1.013  0.00  0.00    -0.284 N 
ATOM     22  H   LIG    1        0.339   2.149   1.884  0.00  0.00    +0.151 HD
ATOM     23  C   LIG    1        0.210   3.559   0.375  0.00  0.00    +0.307 C 
ATOM     24  O   LIG    1        0.584   4.615   0.879  0.00  0.00    -0.252 OA
ATOM     25  N   LIG    1       -0.140   3.348  -0.910  0.00  0.00    -0.238 N 
ATOM     26  H   LIG    1       -0.002   4.042  -1.630  0.00  0.00    +0.159 HD
ATOM     27  C   LIG    1       -0.750   2.176  -1.145  0.00  0.00    +0.245 C 
ATOM     28  O   LIG    1       -1.203   1.768  -2.215  0.00  0.00    -0.273 OA
ENDBRANCH  18  20
ENDBRANCH   1  18
TORSDOF 5
