REMARK  Name = DB11999
REMARK                            x       y       z     vdW  Elec       q    Type
REMARK                         _______ _______ _______ _____ _____    ______ ____
ROOT
ATOM      1  C   LIG    1        1.410   0.110  -0.828  0.00  0.00    +0.124 A 
ATOM      2  N   LIG    1        2.093   1.282  -0.855  0.00  0.00    -0.214 NA
ATOM      3  C   LIG    1        3.453   1.287  -0.770  0.00  0.00    +0.152 A 
ATOM      4  N   LIG    1        4.156   2.529  -0.808  0.00  0.00    -0.279 N 
ATOM      5  C   LIG    1        5.539   2.510  -0.637  0.00  0.00    +0.114 A 
ATOM      6  C   LIG    1        6.312   1.406  -0.463  0.00  0.00    +0.123 A 
ATOM      7  C   LIG    1        5.684   0.069  -0.444  0.00  0.00    +0.205 A 
ATOM      8  O   LIG    1        6.306  -0.985  -0.301  0.00  0.00    -0.286 OA
ATOM      9  C   LIG    1        4.186   0.089  -0.597  0.00  0.00    +0.065 A 
ATOM     10  C   LIG    1        3.463  -1.113  -0.555  0.00  0.00    +0.019 A 
ATOM     11  C   LIG    1        2.075  -1.109  -0.666  0.00  0.00    +0.044 A 
ENDROOT
BRANCH   1  15
ATOM     12  C   LIG    1       -2.346  -0.454  -1.230  0.00  0.00    -0.024 C 
ATOM     13  C   LIG    1       -2.252   1.076  -1.172  0.00  0.00    +0.123 C 
ATOM     14  C   LIG    1       -0.753   1.369  -1.298  0.00  0.00    +0.136 C 
ATOM     15  N   LIG    1        0.010   0.192  -0.891  0.00  0.00    -0.314 N 
ATOM     16  C   LIG    1       -0.889  -0.934  -1.126  0.00  0.00    +0.093 C 
BRANCH  12  18
ATOM     17  C   LIG    1       -3.347  -2.542  -2.386  0.00  0.00    -0.100 C 
ATOM     18  N   LIG    1       -3.152  -1.019  -2.415  0.00  0.00    +0.382 N 
ATOM     19  H   LIG    1       -4.064  -0.585  -2.410  0.00  0.00    -0.086 HD
ATOM     20  H   LIG    1       -2.695  -0.755  -3.277  0.00  0.00    -0.086 HD
ENDBRANCH  12  18
BRANCH  13  21
ATOM     21  O   LIG    1       -2.747   1.479   0.105  0.00  0.00    -0.380 OA
ATOM     22  C   LIG    1       -2.943   2.879   0.264  0.00  0.00    +0.194 C 
ENDBRANCH  13  21
ENDBRANCH   1  15
BRANCH   4  23
ATOM     23  C   LIG    1        3.572   3.759  -1.137  0.00  0.00    +0.179 A 
ATOM     24  S   LIG    1        2.369   3.923  -2.400  0.00  0.00    -0.058 S 
ATOM     25  C   LIG    1        2.366   5.640  -2.141  0.00  0.00    +0.068 A 
ATOM     26  C   LIG    1        3.267   5.935  -1.127  0.00  0.00    +0.121 A 
ATOM     27  N   LIG    1        3.914   4.913  -0.603  0.00  0.00    -0.231 NA
ENDBRANCH   4  23
BRANCH   6  28
ATOM     28  C   LIG    1        7.833   1.677  -0.316  0.00  0.00    +0.342 C 
ATOM     29  O   LIG    1        8.535   1.252  -1.262  0.00  0.00    -0.245 OA
BRANCH  28  30
ATOM     30  O   LIG    1        8.172   2.273   0.733  0.00  0.00    -0.477 OA
ATOM     31  H   LIG    1        7.521   2.532   1.356  0.00  0.00    +0.295 HD
ENDBRANCH  28  30
ENDBRANCH   6  28
TORSDOF 6
