REMARK  Name = DB11577
REMARK                            x       y       z     vdW  Elec       q    Type
REMARK                         _______ _______ _______ _____ _____    ______ ____
ROOT
ATOM      1  C   LIG    1       -0.718   1.258  -0.035  0.00  0.00    +0.031 A 
ATOM      2  C   LIG    1       -0.009   0.049  -0.006  0.00  0.00    +0.118 A 
ATOM      3  C   LIG    1       -0.700  -1.169   0.021  0.00  0.00    +0.043 A 
ATOM      4  C   LIG    1       -2.095  -1.157   0.008  0.00  0.00    +0.047 A 
ATOM      5  C   LIG    1       -3.080  -2.254   0.027  0.00  0.00    +0.211 C 
ATOM      6  O   LIG    1       -2.877  -3.468   0.058  0.00  0.00    -0.285 OA
ATOM      7  C   LIG    1       -4.405  -1.598  -0.000  0.00  0.00    +0.105 C 
ATOM      8  N   LIG    1       -4.146  -0.243  -0.031  0.00  0.00    -0.309 N 
ATOM      9  H   LIG    1       -4.932   0.392  -0.052  0.00  0.00    +0.152 HD
ATOM     10  C   LIG    1       -5.614  -2.217   0.004  0.00  0.00    +0.105 C 
ATOM     11  N   LIG    1       -5.873  -3.572   0.035  0.00  0.00    -0.309 N 
ATOM     12  H   LIG    1       -5.088  -4.208   0.056  0.00  0.00    +0.152 HD
ATOM     13  C   LIG    1       -7.229  -3.850   0.030  0.00  0.00    +0.043 A 
ATOM     14  C   LIG    1       -7.924  -2.659  -0.004  0.00  0.00    +0.047 A 
ATOM     15  C   LIG    1       -9.320  -2.646  -0.017  0.00  0.00    +0.043 A 
ATOM     16  C   LIG    1      -10.010  -3.864   0.009  0.00  0.00    +0.118 A 
ATOM     17  C   LIG    1       -9.302  -5.073   0.039  0.00  0.00    +0.031 A 
ATOM     18  C   LIG    1       -7.904  -5.070   0.051  0.00  0.00    +0.026 A 
ATOM     19  C   LIG    1       -6.940  -1.562  -0.023  0.00  0.00    +0.211 C 
ATOM     20  O   LIG    1       -7.142  -0.348  -0.054  0.00  0.00    -0.285 OA
ATOM     21  C   LIG    1       -2.790   0.035  -0.026  0.00  0.00    +0.043 A 
ATOM     22  C   LIG    1       -2.115   1.255  -0.048  0.00  0.00    +0.026 A 
ENDROOT
BRANCH   2  23
ATOM     23  S   LIG    1        1.779   0.059   0.023  0.00  0.00    +0.110 S 
ATOM     24  O   LIG    1        2.206  -0.452   1.330  0.00  0.00    -0.142 OA
ATOM     25  O   LIG    1        2.251   1.344  -0.505  0.00  0.00    -0.142 OA
BRANCH  23  26
ATOM     26  O   LIG    1        2.055  -1.117  -1.117  0.00  0.00    -0.250 OA
ATOM     27  H   LIG    1        1.917  -2.007  -0.739  0.00  0.00    +0.245 HD
ENDBRANCH  23  26
ENDBRANCH   2  23
BRANCH  16  28
ATOM     28  S   LIG    1      -11.798  -3.874  -0.019  0.00  0.00    +0.110 S 
ATOM     29  O   LIG    1      -12.270  -5.160   0.507  0.00  0.00    -0.142 OA
ATOM     30  O   LIG    1      -12.225  -3.362  -1.326  0.00  0.00    -0.142 OA
BRANCH  28  31
ATOM     31  O   LIG    1      -12.074  -2.699   1.122  0.00  0.00    -0.250 OA
ATOM     32  H   LIG    1      -11.938  -1.809   0.744  0.00  0.00    +0.245 HD
ENDBRANCH  28  31
ENDBRANCH  16  28
TORSDOF 4
