REMARK  Name = DB11836
REMARK                            x       y       z     vdW  Elec       q    Type
REMARK                         _______ _______ _______ _____ _____    ______ ____
ROOT
ATOM      1  N   LIG    1        1.491   0.020   0.048  0.00  0.00    -0.243 N 
ATOM      2  N   LIG    1        2.243  -1.103   0.012  0.00  0.00    -0.168 NA
ATOM      3  C   LIG    1        3.510  -0.756  -0.026  0.00  0.00    +0.105 A 
ATOM      4  C   LIG    1        3.625   0.679  -0.059  0.00  0.00    +0.086 A 
ATOM      5  C   LIG    1        4.616   1.680  -0.146  0.00  0.00    +0.131 A 
ATOM      6  N   LIG    1        4.280   2.996  -0.139  0.00  0.00    -0.220 NA
ATOM      7  C   LIG    1        2.958   3.297  -0.057  0.00  0.00    +0.225 A 
ATOM      8  N   LIG    1        1.911   2.433   0.012  0.00  0.00    -0.216 NA
ATOM      9  C   LIG    1        2.289   1.147   0.006  0.00  0.00    +0.164 A 
ENDROOT
BRANCH   3  10
ATOM     10  C   LIG    1        4.584  -1.796  -0.025  0.00  0.00    +0.005 A 
ATOM     11  C   LIG    1        5.739  -1.609   0.752  0.00  0.00    +0.041 A 
ATOM     12  C   LIG    1        6.738  -2.592   0.713  0.00  0.00    +0.112 A 
ATOM     13  N   LIG    1        7.944  -2.676   1.353  0.00  0.00    -0.196 NA
ATOM     14  C   LIG    1        8.434  -3.817   0.924  0.00  0.00    +0.286 A 
ATOM     15  O   LIG    1        7.657  -4.515   0.045  0.00  0.00    -0.425 OA
ATOM     16  C   LIG    1        6.557  -3.726  -0.094  0.00  0.00    +0.157 A 
ATOM     17  C   LIG    1        5.419  -3.939  -0.874  0.00  0.00    +0.049 A 
ATOM     18  C   LIG    1        4.438  -2.946  -0.820  0.00  0.00    +0.014 A 
BRANCH  14  19
ATOM     19  N   LIG    1        9.630  -4.378   1.262  0.00  0.00    -0.313 N 
ATOM     20  H   LIG    1        9.924  -5.265   0.880  0.00  0.00    +0.147 HD
ATOM     21  H   LIG    1       10.259  -3.925   1.909  0.00  0.00    +0.147 HD
ENDBRANCH  14  19
ENDBRANCH   3  10
BRANCH   1  23
ATOM     22  C   LIG    1       -0.425  -0.814   1.374  0.00  0.00    +0.032 C 
ATOM     23  C   LIG    1        0.026  -0.070   0.101  0.00  0.00    +0.103 C 
ATOM     24  C   LIG    1       -0.518  -0.723  -1.186  0.00  0.00    +0.032 C 
ENDBRANCH   1  23
BRANCH   5  25
ATOM     25  N   LIG    1        5.969   1.378  -0.270  0.00  0.00    -0.342 N 
ATOM     26  H   LIG    1        6.638   2.131  -0.339  0.00  0.00    +0.144 HD
ATOM     27  H   LIG    1        6.263   0.412  -0.294  0.00  0.00    +0.144 HD
ENDBRANCH   5  25
TORSDOF 4
