REMARK  Name = DB11816
REMARK                            x       y       z     vdW  Elec       q    Type
REMARK                         _______ _______ _______ _____ _____    ______ ____
ROOT
ATOM      1  C   LIG    1       -2.058  -1.325  -0.150  0.00  0.00    +0.070 A 
ATOM      2  C   LIG    1       -0.664  -1.146  -0.078  0.00  0.00    +0.146 A 
ATOM      3  F   LIG    1        0.161  -2.213   0.059  0.00  0.00    -0.203 F 
ATOM      4  C   LIG    1       -0.118   0.143  -0.156  0.00  0.00    -0.027 A 
ATOM      5  C   LIG    1       -0.962   1.240  -0.353  0.00  0.00    +0.004 A 
ATOM      6  C   LIG    1       -2.339   1.057  -0.472  0.00  0.00    +0.002 A 
ATOM      7  C   LIG    1       -2.885  -0.222  -0.379  0.00  0.00    +0.026 A 
ENDROOT
BRANCH   1  11
ATOM      8  N   LIG    1       -3.231  -4.585   0.697  0.00  0.00    -0.268 N 
ATOM      9  H   LIG    1       -3.851  -4.557  -0.100  0.00  0.00    +0.156 HD
ATOM     10  C   LIG    1       -2.477  -3.487   0.909  0.00  0.00    +0.308 C 
ATOM     11  N   LIG    1       -2.666  -2.587  -0.077  0.00  0.00    -0.267 N 
ATOM     12  H   LIG    1       -3.467  -2.727  -0.675  0.00  0.00    +0.156 HD
ATOM     13  O   LIG    1       -1.723  -3.311   1.869  0.00  0.00    -0.252 OA
BRANCH   8  18
ATOM     14  C   LIG    1       -3.960  -9.488   3.467  0.00  0.00    +0.065 C 
ATOM     15  C   LIG    1       -3.693  -8.162   2.780  0.00  0.00    +0.038 A 
ATOM     16  N   LIG    1       -4.541  -7.838   1.770  0.00  0.00    -0.258 NA
ATOM     17  C   LIG    1       -4.341  -6.660   1.127  0.00  0.00    +0.134 A 
ATOM     18  C   LIG    1       -3.315  -5.767   1.456  0.00  0.00    +0.053 A 
ATOM     19  C   LIG    1       -2.444  -6.130   2.500  0.00  0.00    +0.026 A 
ATOM     20  C   LIG    1       -2.635  -7.339   3.172  0.00  0.00    +0.025 A 
ENDBRANCH   8  18
ENDBRANCH   1  11
BRANCH   4  21
ATOM     21  C   LIG    1        1.387   0.365  -0.044  0.00  0.00    -0.040 C 
BRANCH  21  22
ATOM     22  N   LIG    1        1.886   0.705   1.381  0.00  0.00    +0.384 N 
ATOM     23  H   LIG    1        1.419   1.542   1.699  0.00  0.00    -0.081 HD
ATOM     24  C   LIG    1        1.582  -0.431   2.391  0.00  0.00    -0.059 C 
ATOM     25  C   LIG    1        2.121  -0.057   3.794  0.00  0.00    +0.092 C 
ATOM     26  N   LIG    1        3.559   0.235   3.668  0.00  0.00    -0.271 N 
ATOM     27  C   LIG    1        4.464  -0.826   3.872  0.00  0.00    +0.402 C 
ATOM     28  O   LIG    1        4.162  -1.946   4.293  0.00  0.00    -0.226 OA
ATOM     29  C   LIG    1        3.894   1.363   2.775  0.00  0.00    +0.092 C 
ATOM     30  C   LIG    1        3.406   0.998   1.353  0.00  0.00    -0.059 C 
BRANCH  27  31
ATOM     31  O   LIG    1        5.740  -0.466   3.570  0.00  0.00    -0.454 OA
ATOM     32  C   LIG    1        6.813  -1.386   3.716  0.00  0.00    +0.282 C 
ENDBRANCH  27  31
ENDBRANCH  21  22
ENDBRANCH   4  21
TORSDOF 5
