REMARK  Name = DB11718
REMARK                            x       y       z     vdW  Elec       q    Type
REMARK                         _______ _______ _______ _____ _____    ______ ____
ROOT
ATOM      1  C   LIG    1        1.465  -0.003  -0.070  0.00  0.00    +0.046 A 
ATOM      2  C   LIG    1        2.249   0.968   0.610  0.00  0.00    +0.105 A 
ATOM      3  N   LIG    1        3.530   0.657   0.598  0.00  0.00    -0.170 NA
ATOM      4  N   LIG    1        3.617  -0.516  -0.042  0.00  0.00    -0.268 N 
ATOM      5  C   LIG    1        2.392  -0.961  -0.456  0.00  0.00    +0.119 A 
ENDROOT
BRANCH   2   6
ATOM      6  C   LIG    1        1.803   2.228   1.285  0.00  0.00    +0.041 A 
ATOM      7  C   LIG    1        2.414   3.465   1.028  0.00  0.00    +0.155 A 
ATOM      8  F   LIG    1        3.443   3.540   0.146  0.00  0.00    -0.203 F 
ATOM      9  C   LIG    1        1.964   4.630   1.665  0.00  0.00    +0.085 A 
ATOM     10  C   LIG    1        0.883   4.549   2.553  0.00  0.00    +0.047 A 
ATOM     11  C   LIG    1        0.271   3.325   2.811  0.00  0.00    +0.044 A 
ATOM     12 CL   LIG    1       -1.073   3.238   3.890  0.00  0.00    -0.083 Cl
ATOM     13  C   LIG    1        0.738   2.169   2.190  0.00  0.00    +0.033 A 
BRANCH   9  14
ATOM     14  N   LIG    1        2.612   5.845   1.383  0.00  0.00    -0.218 N 
ATOM     15  H   LIG    1        3.409   5.817   0.765  0.00  0.00    +0.173 HD
BRANCH  14  16
ATOM     16  S   LIG    1        2.225   7.384   2.177  0.00  0.00    +0.040 S 
ATOM     17  C   LIG    1        3.477   8.563   1.406  0.00  0.00    +0.218 C 
ATOM     18  O   LIG    1        2.529   7.215   3.602  0.00  0.00    -0.155 OA
ATOM     19  O   LIG    1        0.874   7.757   1.746  0.00  0.00    -0.155 OA
ENDBRANCH  14  16
ENDBRANCH   9  14
ENDBRANCH   2   6
BRANCH   1  22
ATOM     20  C   LIG    1       -2.004   1.125  -0.515  0.00  0.00    +0.216 A 
ATOM     21  N   LIG    1       -0.658   1.146  -0.348  0.00  0.00    -0.214 NA
ATOM     22  C   LIG    1       -0.006  -0.048  -0.335  0.00  0.00    +0.080 A 
ATOM     23  C   LIG    1       -0.688  -1.256  -0.528  0.00  0.00    +0.048 A 
ATOM     24  C   LIG    1       -2.070  -1.182  -0.711  0.00  0.00    +0.116 A 
ATOM     25  N   LIG    1       -2.745  -0.004  -0.699  0.00  0.00    -0.223 NA
BRANCH  20  26
ATOM     26  N   LIG    1       -2.629   2.382  -0.463  0.00  0.00    -0.312 N 
ATOM     27  H   LIG    1       -2.047   3.180  -0.254  0.00  0.00    +0.149 HD
BRANCH  26  28
ATOM     28  C   LIG    1       -4.070   2.535  -0.272  0.00  0.00    +0.126 C 
BRANCH  28  30
ATOM     29  C   LIG    1       -4.208   1.525   2.098  0.00  0.00    +0.029 C 
ATOM     30  C   LIG    1       -4.484   2.751   1.207  0.00  0.00    +0.090 C 
BRANCH  30  31
ATOM     31  N   LIG    1       -5.889   3.144   1.329  0.00  0.00    -0.277 N 
ATOM     32  H   LIG    1       -6.552   2.452   1.648  0.00  0.00    +0.152 HD
ATOM     33  C   LIG    1       -6.362   4.406   0.996  0.00  0.00    +0.400 C 
ATOM     34  O   LIG    1       -5.686   5.350   0.579  0.00  0.00    -0.226 OA
BRANCH  33  35
ATOM     35  O   LIG    1       -7.692   4.442   1.206  0.00  0.00    -0.454 OA
ATOM     36  C   LIG    1       -8.435   5.626   0.952  0.00  0.00    +0.282 C 
ENDBRANCH  33  35
ENDBRANCH  30  31
ENDBRANCH  28  30
ENDBRANCH  26  28
ENDBRANCH  20  26
ENDBRANCH   1  22
BRANCH   4  37
ATOM     37  C   LIG    1        4.915  -1.170  -0.236  0.00  0.00    +0.101 C 
ATOM     38  C   LIG    1        5.829  -0.296  -1.118  0.00  0.00    +0.032 C 
ATOM     39  C   LIG    1        5.559  -1.508   1.123  0.00  0.00    +0.032 C 
ENDBRANCH   4  37
TORSDOF 10
