REMARK  Name = DB11154
REMARK                            x       y       z     vdW  Elec       q    Type
REMARK                         _______ _______ _______ _____ _____    ______ ____
ROOT
ATOM      1  C   LIG    1        1.585   0.116   0.005  0.00  0.00    +0.182 C 
ENDROOT
BRANCH   1   2
ATOM      2  O   LIG    1        1.932   0.600   1.307  0.00  0.00    -0.376 OA
ATOM      3  H   LIG    1        2.490   1.373   1.190  0.00  0.00    +0.211 HD
ENDBRANCH   1   2
BRANCH   1   4
ATOM      4  C   LIG    1        2.225   0.992  -1.142  0.00  0.00    +0.338 C 
ATOM      5  O   LIG    1        1.987   0.660  -2.329  0.00  0.00    -0.248 OA
BRANCH   4   6
ATOM      6  O   LIG    1        2.944   1.980  -0.850  0.00  0.00    -0.479 OA
ATOM      7  H   LIG    1        3.100   2.197   0.048  0.00  0.00    +0.295 HD
ENDBRANCH   4   6
ENDBRANCH   1   4
BRANCH   1   8
ATOM      8  C   LIG    1        0.008   0.112  -0.102  0.00  0.00    +0.167 C 
BRANCH   8   9
ATOM      9  C   LIG    1       -0.773   1.458  -0.015  0.00  0.00    +0.308 C 
ATOM     10  O   LIG    1       -1.945   1.443  -0.457  0.00  0.00    -0.251 OA
BRANCH   9  11
ATOM     11  O   LIG    1       -0.248   2.466   0.511  0.00  0.00    -0.481 OA
ATOM     12  H   LIG    1        0.633   2.425   0.826  0.00  0.00    +0.295 HD
ENDBRANCH   9  11
ENDBRANCH   8   9
ENDBRANCH   1   8
BRANCH   1  13
ATOM     13  C   LIG    1        2.070  -1.385  -0.096  0.00  0.00    +0.167 C 
BRANCH  13  14
ATOM     14  C   LIG    1        3.590  -1.711  -0.002  0.00  0.00    +0.308 C 
ATOM     15  O   LIG    1        3.942  -2.827  -0.448  0.00  0.00    -0.251 OA
BRANCH  14  16
ATOM     16  O   LIG    1        4.382  -0.903   0.535  0.00  0.00    -0.481 OA
ATOM     17  H   LIG    1        4.068  -0.079   0.853  0.00  0.00    +0.295 HD
ENDBRANCH  14  16
ENDBRANCH  13  14
ENDBRANCH   1  13
TORSDOF 9
