REMARK  Name = DB11687
REMARK                            x       y       z     vdW  Elec       q    Type
REMARK                         _______ _______ _______ _____ _____    ______ ____
ROOT
ATOM      1  C   LIG    1        1.488   0.074   0.016  0.00  0.00    +0.031 A 
ATOM      2  C   LIG    1        2.209   1.268  -0.013  0.00  0.00    +0.069 A 
ATOM      3  C   LIG    1        3.601   1.259  -0.074  0.00  0.00    +0.133 A 
ATOM      4  C   LIG    1        4.314   0.039  -0.101  0.00  0.00    +0.107 A 
ATOM      5  C   LIG    1        5.817   0.080  -0.206  0.00  0.00    +0.344 C 
ATOM      6  O   LIG    1        6.421  -0.689   0.736  0.00  0.00    -0.457 OA
ATOM      7  C   LIG    1        7.843  -0.772   0.886  0.00  0.00    +0.180 C 
ATOM      8  C   LIG    1        8.073  -0.919   2.403  0.00  0.00    +0.052 C 
ATOM      9  C   LIG    1        8.440  -1.943   0.043  0.00  0.00    +0.049 C 
ATOM     10  C   LIG    1        9.938  -2.177   0.318  0.00  0.00    +0.015 C 
ATOM     11  C   LIG    1        8.218  -1.756  -1.459  0.00  0.00    -0.017 C 
ATOM     12  C   LIG    1        7.644  -2.592  -2.353  0.00  0.00    +0.045 C 
ATOM     13  C   LIG    1        7.128  -3.929  -2.073  0.00  0.00    +0.187 C 
ATOM     14  C   LIG    1        5.854  -4.350  -2.837  0.00  0.00    +0.213 C 
ATOM     15  C   LIG    1        4.931  -5.404  -2.146  0.00  0.00    +0.154 C 
ATOM     16  C   LIG    1        4.388  -4.979  -0.761  0.00  0.00    +0.061 C 
ATOM     17  C   LIG    1        3.698  -3.625  -0.746  0.00  0.00    -0.024 C 
ATOM     18  C   LIG    1        4.223  -2.521  -0.179  0.00  0.00    +0.005 C 
ATOM     19  O   LIG    1        7.650  -4.689  -1.255  0.00  0.00    -0.290 OA
ATOM     20  O   LIG    1        6.428   0.846  -0.956  0.00  0.00    -0.245 OA
ATOM     21  C   LIG    1        3.584  -1.180  -0.085  0.00  0.00    -0.006 A 
ATOM     22  C   LIG    1        2.183  -1.131  -0.024  0.00  0.00    +0.032 A 
ENDROOT
BRANCH   1  23
ATOM     23  N   LIG    1        0.085   0.024   0.082  0.00  0.00    -0.344 N 
ATOM     24  H   LIG    1       -0.368  -0.870  -0.044  0.00  0.00    +0.146 HD
BRANCH  23  26
ATOM     25  C   LIG    1       -2.235   0.918   0.145  0.00  0.00    +0.024 C 
ATOM     26  C   LIG    1       -0.739   1.224   0.018  0.00  0.00    +0.098 C 
ENDBRANCH  23  26
ENDBRANCH   1  23
BRANCH   3  27
ATOM     27  O   LIG    1        4.225   2.484  -0.084  0.00  0.00    -0.506 OA
ATOM     28  H   LIG    1        3.608   3.218  -0.055  0.00  0.00    +0.292 HD
ENDBRANCH   3  27
BRANCH  14  29
ATOM     29  O   LIG    1        6.247  -4.803  -4.122  0.00  0.00    -0.381 OA
ATOM     30  H   LIG    1        6.723  -4.097  -4.565  0.00  0.00    +0.210 HD
ENDBRANCH  14  29
BRANCH  15  31
ATOM     31  O   LIG    1        5.569  -6.663  -2.001  0.00  0.00    -0.388 OA
ATOM     32  H   LIG    1        5.936  -6.916  -2.852  0.00  0.00    +0.210 HD
ENDBRANCH  15  31
TORSDOF 5
