REMARK  Name = DB11676
REMARK                            x       y       z     vdW  Elec       q    Type
REMARK                         _______ _______ _______ _____ _____    ______ ____
ROOT
ATOM      1  C   LIG    1       -0.914  -0.508   1.436  0.00  0.00    +0.132 C 
ATOM      2  C   LIG    1       -2.296   0.132   1.264  0.00  0.00    +0.130 C 
ATOM      3  CA  LIG    1       -1.996   1.370   0.390  0.00  0.00    -0.014 C 
ATOM      4  N   LIG    1       -0.926   0.858  -0.591  0.00  0.00    +0.390 N 
ATOM      5  H1  LIG    1       -1.373   0.561  -1.447  0.00  0.00    -0.084 HD
ATOM      6  H2  LIG    1       -0.270   1.592  -0.815  0.00  0.00    -0.084 HD
ATOM      7  C   LIG    1       -0.220  -0.340   0.070  0.00  0.00    -0.005 C 
ENDROOT
BRANCH   7   8
ATOM      8  C   LIG    1        1.286  -0.131   0.116  0.00  0.00    -0.015 A 
ATOM      9  C   LIG    1        2.054   0.510   1.081  0.00  0.00    +0.087 A 
ATOM     10  N   LIG    1        3.386   0.482   0.751  0.00  0.00    -0.357 N 
ATOM     11  H   LIG    1        4.102   0.898   1.330  0.00  0.00    +0.165 HD
ATOM     12  C   LIG    1        3.545  -0.179  -0.447  0.00  0.00    +0.105 A 
ATOM     13  C   LIG    1        4.651  -0.497  -1.246  0.00  0.00    +0.144 A 
ATOM     14  N   LIG    1        4.451  -1.177  -2.403  0.00  0.00    -0.219 NA
ATOM     15  C   LIG    1        3.177  -1.515  -2.725  0.00  0.00    +0.224 A 
ATOM     16  N   LIG    1        2.052  -1.247  -2.011  0.00  0.00    -0.234 NA
ATOM     17  C   LIG    1        2.240  -0.576  -0.866  0.00  0.00    +0.095 A 
BRANCH  13  18
ATOM     18  N   LIG    1        5.963  -0.154  -0.926  0.00  0.00    -0.341 N 
ATOM     19  H   LIG    1        6.707  -0.422  -1.554  0.00  0.00    +0.144 HD
ATOM     20  H   LIG    1        6.157   0.345  -0.070  0.00  0.00    +0.144 HD
ENDBRANCH  13  18
ENDBRANCH   7   8
BRANCH   1  21
ATOM     21  O   LIG    1       -0.896  -1.829   1.945  0.00  0.00    -0.391 OA
ATOM     22  H   LIG    1        0.017  -2.113   2.027  0.00  0.00    +0.210 HD
ENDBRANCH   1  21
BRANCH   2  23
ATOM     23  O   LIG    1       -3.240  -0.746   0.671  0.00  0.00    -0.391 OA
ATOM     24  H   LIG    1       -3.270  -1.554   1.190  0.00  0.00    +0.210 HD
ENDBRANCH   2  23
BRANCH   3  25
ATOM     25  C   LIG    1       -1.605   2.652   1.156  0.00  0.00    +0.143 C 
BRANCH  25  26
ATOM     26  O   LIG    1       -2.649   3.069   2.011  0.00  0.00    -0.397 OA
ATOM     27  H   LIG    1       -2.386   3.885   2.444  0.00  0.00    +0.209 HD
ENDBRANCH  25  26
ENDBRANCH   3  25
TORSDOF 6
