REMARK  Name = DB11969
REMARK                            x       y       z     vdW  Elec       q    Type
REMARK                         _______ _______ _______ _____ _____    ______ ____
ROOT
ATOM      1  C   LIG    1       -0.914   0.880   0.259  0.00  0.00    +0.280 C 
ATOM      2  N   LIG    1       -0.079  -0.102  -0.137  0.00  0.00    -0.307 N 
ATOM      3  H   LIG    1       -0.488  -0.935  -0.536  0.00  0.00    +0.149 HD
ATOM      4  O   LIG    1       -0.543   1.959   0.724  0.00  0.00    -0.267 OA
ENDROOT
BRANCH   1   9
ATOM      5  C   LIG    1       -4.564   0.532   0.143  0.00  0.00    +0.059 A 
ATOM      6  C   LIG    1       -4.060  -0.629  -0.436  0.00  0.00    +0.204 A 
ATOM      7 CL   LIG    1       -4.823  -2.011  -1.115  0.00  0.00    -0.042 Cl
ATOM      8  O   LIG    1       -2.702  -0.603  -0.446  0.00  0.00    -0.438 OA
ATOM      9  C   LIG    1       -2.312   0.571   0.121  0.00  0.00    +0.192 A 
ATOM     10  C   LIG    1       -3.440   1.294   0.485  0.00  0.00    +0.066 A 
BRANCH   5  17
ATOM     11  C   LIG    1       -5.902   3.229  -0.656  0.00  0.00    +0.173 C 
ATOM     12  N   LIG    1       -6.536   2.081  -0.020  0.00  0.00    -0.265 N 
ATOM     13  N   LIG    1       -7.829   2.173   0.317  0.00  0.00    -0.178 NA
ATOM     14  C   LIG    1       -8.107   1.024   0.881  0.00  0.00    +0.155 A 
ATOM     15  C   LIG    1       -7.001   0.171   0.945  0.00  0.00    +0.086 A 
ATOM     16 CL   LIG    1       -6.952  -1.405   1.633  0.00  0.00    -0.080 Cl
ATOM     17  C   LIG    1       -5.962   0.883   0.356  0.00  0.00    +0.091 A 
ENDBRANCH   5  17
ENDBRANCH   1   9
BRANCH   2  18
ATOM     18  C   LIG    1        1.389  -0.075  -0.054  0.00  0.00    +0.060 C 
BRANCH  18  19
ATOM     19  C   LIG    1        2.017  -0.763  -1.292  0.00  0.00    -0.064 C 
BRANCH  19  20
ATOM     20  N   LIG    1        1.948   0.140  -2.533  0.00  0.00    +0.379 N 
ATOM     21  H   LIG    1        0.985   0.350  -2.756  0.00  0.00    -0.090 HD
ATOM     22  H   LIG    1        2.437   1.006  -2.361  0.00  0.00    -0.090 HD
ATOM     23  H   LIG    1        2.372  -0.323  -3.325  0.00  0.00    -0.090 HD
ENDBRANCH  19  20
ENDBRANCH  18  19
BRANCH  18  24
ATOM     24  C   LIG    1        1.893  -0.742   1.252  0.00  0.00    +0.055 C 
BRANCH  24  25
ATOM     25  C   LIG    1        1.467  -0.023   2.527  0.00  0.00    -0.043 A 
ATOM     26  C   LIG    1        0.379  -0.490   3.272  0.00  0.00    +0.045 A 
ATOM     27  C   LIG    1       -0.028   0.187   4.422  0.00  0.00    +0.159 A 
ATOM     28  F   LIG    1       -1.087  -0.267   5.131  0.00  0.00    -0.202 F 
ATOM     29  C   LIG    1        0.655   1.331   4.837  0.00  0.00    +0.158 A 
ATOM     30  F   LIG    1        0.262   1.991   5.951  0.00  0.00    -0.202 F 
ATOM     31  C   LIG    1        1.745   1.797   4.102  0.00  0.00    +0.041 A 
ATOM     32  C   LIG    1        2.151   1.122   2.950  0.00  0.00    +0.006 A 
ENDBRANCH  24  25
ENDBRANCH  18  24
ENDBRANCH   2  18
TORSDOF 7
