REMARK  Name = DB11966
REMARK                            x       y       z     vdW  Elec       q    Type
REMARK                         _______ _______ _______ _____ _____    ______ ____
ROOT
ATOM      1  O   LIG    1        1.937   0.074   0.420  0.00  0.00    -0.284 OA
ENDROOT
BRANCH   1   2
ATOM      2  P   LIG    1        0.344  -0.209   0.223  0.00  0.00    +0.462 P 
ATOM      3  O   LIG    1       -0.482   1.021   0.072  0.00  0.00    -0.228 OA
BRANCH   2   4
ATOM      4  N   LIG    1       -0.040  -1.227   1.529  0.00  0.00    -0.199 NA
ATOM      5  H   LIG    1        0.693  -1.548   2.163  0.00  0.00    +0.135 HD
BRANCH   4   7
ATOM      6  C   LIG    1       -1.285  -3.359   1.832  0.00  0.00    +0.036 C 
ATOM      7  C   LIG    1       -1.363  -1.823   1.710  0.00  0.00    +0.171 C 
BRANCH   7   8
ATOM      8  C   LIG    1       -2.089  -1.184   2.880  0.00  0.00    +0.325 C 
ATOM      9  O   LIG    1       -2.372  -1.781   3.923  0.00  0.00    -0.249 OA
BRANCH   8  10
ATOM     10  O   LIG    1       -2.390   0.108   2.620  0.00  0.00    -0.463 OA
BRANCH  10  11
ATOM     11  C   LIG    1       -3.090   0.904   3.572  0.00  0.00    +0.238 C 
BRANCH  11  12
ATOM     12  C   LIG    1       -3.185   2.385   3.124  0.00  0.00    -0.003 C 
ATOM     13  C   LIG    1       -3.914   2.492   1.765  0.00  0.00    +0.014 C 
ATOM     14  C   LIG    1       -3.987   3.167   4.188  0.00  0.00    +0.014 C 
ATOM     15  C   LIG    1       -1.772   3.000   3.009  0.00  0.00    +0.014 C 
ENDBRANCH  11  12
ENDBRANCH  10  11
ENDBRANCH   8  10
ENDBRANCH   7   8
ENDBRANCH   4   7
ENDBRANCH   2   4
BRANCH   2  16
ATOM     16  O   LIG    1        0.286  -1.238  -1.042  0.00  0.00    -0.412 OA
BRANCH  16  17
ATOM     17  C   LIG    1        0.320  -0.850  -2.355  0.00  0.00    +0.139 A 
ATOM     18  C   LIG    1       -0.830  -0.326  -3.016  0.00  0.00    +0.024 A 
ATOM     19  C   LIG    1       -2.086  -0.183  -2.367  0.00  0.00    +0.012 A 
ATOM     20  C   LIG    1       -3.180   0.345  -3.047  0.00  0.00    +0.001 A 
ATOM     21  C   LIG    1       -3.066   0.735  -4.376  0.00  0.00    +0.001 A 
ATOM     22  C   LIG    1       -1.856   0.598  -5.051  0.00  0.00    +0.008 A 
ATOM     23  C   LIG    1       -0.723   0.061  -4.390  0.00  0.00    -0.014 A 
ATOM     24  C   LIG    1        0.512  -0.107  -5.063  0.00  0.00    +0.009 A 
ATOM     25  C   LIG    1        1.604  -0.660  -4.401  0.00  0.00    +0.004 A 
ATOM     26  C   LIG    1        1.504  -1.035  -3.067  0.00  0.00    +0.047 A 
ENDBRANCH  16  17
ENDBRANCH   2  16
ENDBRANCH   1   2
BRANCH   1  27
ATOM     27  C   LIG    1        2.367   0.872   1.512  0.00  0.00    +0.206 C 
BRANCH  27  28
ATOM     28  C   LIG    1        3.902   0.946   1.624  0.00  0.00    +0.178 C 
ATOM     29  O   LIG    1        4.453  -0.363   1.589  0.00  0.00    -0.345 OA
ATOM     30  C   LIG    1        5.578  -0.402   0.768  0.00  0.00    +0.256 C 
ATOM     31  C   LIG    1        5.386   0.677  -0.313  0.00  0.00    +0.136 C 
ATOM     32  C   LIG    1        4.613   0.195  -1.561  0.00  0.00    +0.049 C 
ATOM     33  C   LIG    1        4.621   1.733   0.510  0.00  0.00    +0.181 C 
BRANCH  30  34
ATOM     34  N   LIG    1        5.844  -1.756   0.318  0.00  0.00    -0.285 N 
ATOM     35  C   LIG    1        4.936  -2.733  -0.061  0.00  0.00    +0.171 A 
ATOM     36  N   LIG    1        3.595  -2.704  -0.082  0.00  0.00    -0.195 NA
ATOM     37  C   LIG    1        3.030  -3.865  -0.514  0.00  0.00    +0.218 A 
ATOM     38  N   LIG    1        3.670  -4.998  -0.903  0.00  0.00    -0.178 NA
ATOM     39  C   LIG    1        5.034  -4.984  -0.866  0.00  0.00    +0.247 A 
ATOM     40  C   LIG    1        5.730  -3.842  -0.443  0.00  0.00    +0.169 A 
ATOM     41  N   LIG    1        7.063  -3.567  -0.321  0.00  0.00    -0.229 NA
ATOM     42  C   LIG    1        7.084  -2.333   0.118  0.00  0.00    +0.203 A 
BRANCH  37  43
ATOM     43  N   LIG    1        1.643  -3.898  -0.567  0.00  0.00    -0.327 N 
ATOM     44  H   LIG    1        1.122  -3.059  -0.352  0.00  0.00    +0.145 HD
ATOM     45  H   LIG    1        1.185  -4.723  -0.925  0.00  0.00    +0.145 HD
ENDBRANCH  37  43
BRANCH  39  46
ATOM     46  O   LIG    1        5.774  -6.089  -1.242  0.00  0.00    -0.478 OA
ATOM     47  C   LIG    1        5.087  -7.264  -1.667  0.00  0.00    +0.279 C 
ENDBRANCH  39  46
ENDBRANCH  30  34
BRANCH  31  48
ATOM     48  O   LIG    1        6.657   1.074  -0.810  0.00  0.00    -0.382 OA
ATOM     49  H   LIG    1        7.184   1.393  -0.074  0.00  0.00    +0.210 HD
ENDBRANCH  31  48
BRANCH  33  50
ATOM     50  O   LIG    1        5.453   2.750   1.048  0.00  0.00    -0.386 OA
ATOM     51  H   LIG    1        5.832   3.248   0.320  0.00  0.00    +0.210 HD
ENDBRANCH  33  50
ENDBRANCH  27  28
ENDBRANCH   1  27
TORSDOF 16
