REMARK  Name = DB11155
REMARK                            x       y       z     vdW  Elec       q    Type
REMARK                         _______ _______ _______ _____ _____    ______ ____
ROOT
ATOM      1  N   LIG    1        1.355   0.257   0.150  0.00  0.00    -0.269 N 
ATOM      2  H   LIG    1        1.852  -0.600  -0.042  0.00  0.00    +0.156 HD
ATOM      3  C   LIG    1        2.107   1.319   0.506  0.00  0.00    +0.308 C 
ATOM      4  N   LIG    1        3.415   1.002   0.419  0.00  0.00    -0.269 N 
ATOM      5  H   LIG    1        3.630   0.043   0.190  0.00  0.00    +0.156 HD
ATOM      6  O   LIG    1        1.665   2.407   0.876  0.00  0.00    -0.252 OA
ENDROOT
BRANCH   4   7
ATOM      7  C   LIG    1        4.543   1.808   0.667  0.00  0.00    +0.036 A 
ATOM      8  C   LIG    1        4.524   3.212   0.725  0.00  0.00    +0.025 A 
ATOM      9  C   LIG    1        5.699   3.920   0.970  0.00  0.00    +0.023 A 
ATOM     10  C   LIG    1        6.907   3.245   1.153  0.00  0.00    +0.059 A 
ATOM     11 CL   LIG    1        8.341   4.163   1.456  0.00  0.00    -0.082 Cl
ATOM     12  C   LIG    1        6.936   1.846   1.083  0.00  0.00    +0.061 A 
ATOM     13 CL   LIG    1        8.411   0.966   1.295  0.00  0.00    -0.082 Cl
ATOM     14  C   LIG    1        5.758   1.139   0.838  0.00  0.00    +0.044 A 
ENDBRANCH   4   7
BRANCH   1  16
ATOM     15  C   LIG    1       -0.555  -1.154   0.006  0.00  0.00    +0.025 A 
ATOM     16  C   LIG    1       -0.047   0.146   0.066  0.00  0.00    +0.035 A 
ATOM     17  C   LIG    1       -0.928   1.239   0.011  0.00  0.00    +0.025 A 
ATOM     18  C   LIG    1       -2.300   1.022  -0.082  0.00  0.00    +0.022 A 
ATOM     19  C   LIG    1       -2.796  -0.280  -0.127  0.00  0.00    +0.041 A 
ATOM     20 CL   LIG    1       -4.497  -0.545  -0.242  0.00  0.00    -0.084 Cl
ATOM     21  C   LIG    1       -1.928  -1.368  -0.086  0.00  0.00    +0.022 A 
ENDBRANCH   1  16
TORSDOF 2
