REMARK  Name = DB11587
REMARK                            x       y       z     vdW  Elec       q    Type
REMARK                         _______ _______ _______ _____ _____    ______ ____
ROOT
ATOM      1  C   LIG    1        2.121   0.292  -1.546  0.00  0.00    +0.161 C 
ENDROOT
BRANCH   1   2
ATOM      2  C   LIG    1        3.630   0.526  -1.404  0.00  0.00    -0.018 A 
ATOM      3  C   LIG    1        4.567  -0.412  -1.857  0.00  0.00    +0.006 A 
ATOM      4  C   LIG    1        5.930  -0.171  -1.706  0.00  0.00    +0.000 A 
ATOM      5  C   LIG    1        6.359   1.006  -1.099  0.00  0.00    +0.000 A 
ATOM      6  C   LIG    1        5.438   1.944  -0.640  0.00  0.00    +0.000 A 
ATOM      7  C   LIG    1        4.075   1.703  -0.792  0.00  0.00    +0.006 A 
ENDBRANCH   1   2
BRANCH   1   8
ATOM      8  O   LIG    1        1.783  -0.600  -2.599  0.00  0.00    -0.386 OA
ATOM      9  H   LIG    1        2.017  -0.187  -3.433  0.00  0.00    +0.210 HD
ENDBRANCH   1   8
BRANCH   1  10
ATOM     10  C   LIG    1        1.466  -0.163  -0.194  0.00  0.00    +0.086 C 
ATOM     11  C   LIG    1        1.840  -1.636   0.137  0.00  0.00    +0.027 C 
BRANCH  10  12
ATOM     12  N   LIG    1        0.007   0.122  -0.195  0.00  0.00    -0.300 NA
ATOM     13  C   LIG    1       -0.757  -0.638   0.803  0.00  0.00    +0.105 C 
BRANCH  12  14
ATOM     14  C   LIG    1       -0.270   1.560  -0.023  0.00  0.00    +0.081 C 
ATOM     15  C   LIG    1       -1.677   1.962  -0.502  0.00  0.00    +0.020 C 
ENDBRANCH  12  14
ENDBRANCH  10  12
ENDBRANCH   1  10
TORSDOF 5
