REMARK  Name = DB11848
REMARK                            x       y       z     vdW  Elec       q    Type
REMARK                         _______ _______ _______ _____ _____    ______ ____
ROOT
ATOM      1  C   LIG    1        1.629  -0.055  -0.007  0.00  0.00    +0.176 C 
ENDROOT
BRANCH   1   2
ATOM      2  O   LIG    1        2.002  -1.405   0.230  0.00  0.00    -0.386 OA
ATOM      3  H   LIG    1        1.667  -1.943  -0.491  0.00  0.00    +0.210 HD
ENDBRANCH   1   2
BRANCH   1   4
ATOM      4  C   LIG    1        2.133   0.856   1.159  0.00  0.00    +0.181 C 
BRANCH   4   5
ATOM      5  O   LIG    1        1.371   0.586   2.329  0.00  0.00    -0.386 OA
ATOM      6  H   LIG    1        0.440   0.673   2.108  0.00  0.00    +0.210 HD
ENDBRANCH   4   5
BRANCH   4   7
ATOM      7  C   LIG    1        3.657   0.725   1.465  0.00  0.00    +0.208 C 
BRANCH   7   8
ATOM      8  C   LIG    1        4.142   1.684   2.561  0.00  0.00    +0.257 C 
ATOM      9  O   LIG    1        4.313   1.293   3.714  0.00  0.00    -0.298 OA
ENDBRANCH   7   8
BRANCH   7  10
ATOM     10  O   LIG    1        4.407   1.038   0.305  0.00  0.00    -0.382 OA
ATOM     11  H   LIG    1        5.331   0.843   0.479  0.00  0.00    +0.210 HD
ENDBRANCH   7  10
ENDBRANCH   4   7
ENDBRANCH   1   4
BRANCH   1  12
ATOM     12  C   LIG    1        0.102   0.018  -0.310  0.00  0.00    +0.172 C 
BRANCH  12  13
ATOM     13  O   LIG    1       -0.269   1.375  -0.469  0.00  0.00    -0.387 OA
ATOM     14  H   LIG    1       -1.212   1.409  -0.661  0.00  0.00    +0.210 HD
ENDBRANCH  12  13
BRANCH  12  15
ATOM     15  C   LIG    1       -0.315  -0.764  -1.581  0.00  0.00    +0.206 C 
BRANCH  15  16
ATOM     16  O   LIG    1       -1.700  -1.074  -1.635  0.00  0.00    -0.284 OA
BRANCH  16  17
ATOM     17  P   LIG    1       -2.942   0.112  -2.034  0.00  0.00    +0.472 P 
ATOM     18  O   LIG    1       -3.117   0.987  -0.780  0.00  0.00    -0.228 OA
BRANCH  17  19
ATOM     19  O   LIG    1       -2.405   0.897  -3.245  0.00  0.00    -0.303 OA
ATOM     20  H   LIG    1       -3.053   1.568  -3.508  0.00  0.00    +0.222 HD
ENDBRANCH  17  19
BRANCH  17  21
ATOM     21  O   LIG    1       -4.200  -0.711  -2.365  0.00  0.00    -0.303 OA
ATOM     22  H   LIG    1       -4.927  -0.112  -2.595  0.00  0.00    +0.222 HD
ENDBRANCH  17  21
ENDBRANCH  16  17
ENDBRANCH  15  16
ENDBRANCH  12  15
ENDBRANCH   1  12
TORSDOF 13
