REMARK  Name = DB11399
REMARK                            x       y       z     vdW  Elec       q    Type
REMARK                         _______ _______ _______ _____ _____    ______ ____
ROOT
ATOM      1  C   LIG    1       -4.829  -0.276  -0.323  0.00  0.00    +0.034 A 
ATOM      2  C   LIG    1       -4.771   0.985  -0.918  0.00  0.00    +0.025 A 
ATOM      3  C   LIG    1       -3.570   1.663  -1.120  0.00  0.00    +0.028 A 
ATOM      4  C   LIG    1       -2.392   1.028  -0.703  0.00  0.00    +0.049 A 
ATOM      5  N   LIG    1       -1.063   1.431  -0.770  0.00  0.00    -0.339 N 
ATOM      6  C   LIG    1       -0.637   2.726  -1.302  0.00  0.00    +0.149 C 
ATOM      7  C   LIG    1       -0.248   0.457  -0.196  0.00  0.00    +0.105 A 
ATOM      8  C   LIG    1       -1.068  -0.585   0.225  0.00  0.00    +0.041 A 
ATOM      9  C   LIG    1       -2.418  -0.256  -0.092  0.00  0.00    +0.002 A 
ATOM     10  C   LIG    1       -3.647  -0.908   0.093  0.00  0.00    +0.033 A 
ENDROOT
BRANCH   1  13
ATOM     11  C   LIG    1       -6.528  -1.964   0.408  0.00  0.00    +0.249 C 
ATOM     12  O   LIG    1       -5.796  -2.772   0.981  0.00  0.00    -0.270 OA
ATOM     13  N   LIG    1       -6.121  -0.822  -0.191  0.00  0.00    -0.281 N 
ATOM     14  H   LIG    1       -6.851  -0.255  -0.597  0.00  0.00    +0.155 HD
BRANCH  11  20
ATOM     15  C   LIG    1       -8.765  -2.609   1.493  0.00  0.00    -0.006 A 
ATOM     16  C   LIG    1      -10.135  -2.867   1.345  0.00  0.00    +0.009 A 
ATOM     17  C   LIG    1      -10.773  -2.716   0.117  0.00  0.00    +0.001 A 
ATOM     18  C   LIG    1      -10.047  -2.304  -0.994  0.00  0.00    +0.001 A 
ATOM     19  C   LIG    1       -8.683  -2.051  -0.876  0.00  0.00    +0.013 A 
ATOM     20  C   LIG    1       -8.021  -2.201   0.355  0.00  0.00    +0.045 A 
BRANCH  15  23
ATOM     21  C   LIG    1       -7.016  -1.817   4.767  0.00  0.00    +0.013 A 
ATOM     22  C   LIG    1       -7.555  -1.677   3.491  0.00  0.00    +0.009 A 
ATOM     23  C   LIG    1       -8.178  -2.759   2.858  0.00  0.00    -0.017 A 
ATOM     24  C   LIG    1       -8.262  -3.982   3.531  0.00  0.00    +0.009 A 
ATOM     25  C   LIG    1       -7.725  -4.125   4.807  0.00  0.00    +0.013 A 
ATOM     26  C   LIG    1       -7.098  -3.044   5.434  0.00  0.00    +0.055 A 
BRANCH  26  27
ATOM     27  C   LIG    1       -6.517  -3.221   6.836  0.00  0.00    +0.417 C 
ATOM     28  F   LIG    1       -6.149  -2.062   7.385  0.00  0.00    -0.166 F 
ATOM     29  F   LIG    1       -5.443  -4.009   6.769  0.00  0.00    -0.166 F 
ATOM     30  F   LIG    1       -7.417  -3.791   7.639  0.00  0.00    -0.166 F 
ENDBRANCH  26  27
ENDBRANCH  15  23
ENDBRANCH  11  20
ENDBRANCH   1  13
BRANCH   7  31
ATOM     31  C   LIG    1        1.176   0.587   0.051  0.00  0.00    +0.261 C 
ATOM     32  O   LIG    1        1.726   1.682   0.180  0.00  0.00    -0.269 OA
ATOM     33  N   LIG    1        1.832  -0.590   0.116  0.00  0.00    -0.295 N 
ATOM     34  H   LIG    1        1.323  -1.430  -0.116  0.00  0.00    +0.150 HD
BRANCH  33  35
ATOM     35  C   LIG    1        3.279  -0.773   0.323  0.00  0.00    +0.190 C 
BRANCH  35  36
ATOM     36  C   LIG    1        3.487  -2.158   0.895  0.00  0.00    -0.018 A 
ATOM     37  C   LIG    1        3.917  -2.301   2.220  0.00  0.00    +0.006 A 
ATOM     38  C   LIG    1        4.139  -3.567   2.754  0.00  0.00    +0.000 A 
ATOM     39  C   LIG    1        3.927  -4.696   1.967  0.00  0.00    +0.000 A 
ATOM     40  C   LIG    1        3.490  -4.569   0.650  0.00  0.00    +0.000 A 
ATOM     41  C   LIG    1        3.269  -3.304   0.116  0.00  0.00    +0.006 A 
ENDBRANCH  35  36
BRANCH  35  42
ATOM     42  C   LIG    1        4.131  -0.495  -0.955  0.00  0.00    +0.240 C 
ATOM     43  N   LIG    1        5.451  -0.184  -0.831  0.00  0.00    -0.298 N 
ATOM     44  C   LIG    1        6.289   0.055  -2.013  0.00  0.00    +0.132 C 
ATOM     45  O   LIG    1        3.572  -0.601  -2.051  0.00  0.00    -0.273 OA
BRANCH  43  46
ATOM     46  C   LIG    1        6.218  -0.225   0.427  0.00  0.00    +0.142 C 
BRANCH  46  47
ATOM     47  C   LIG    1        6.919  -1.542   0.776  0.00  0.00    -0.030 A 
ATOM     48  C   LIG    1        6.808  -2.691  -0.019  0.00  0.00    +0.005 A 
ATOM     49  C   LIG    1        7.444  -3.869   0.360  0.00  0.00    +0.000 A 
ATOM     50  C   LIG    1        8.195  -3.901   1.533  0.00  0.00    +0.000 A 
ATOM     51  C   LIG    1        8.316  -2.765   2.327  0.00  0.00    +0.000 A 
ATOM     52  C   LIG    1        7.679  -1.587   1.948  0.00  0.00    +0.005 A 
ENDBRANCH  46  47
ENDBRANCH  43  46
ENDBRANCH  35  42
ENDBRANCH  33  35
ENDBRANCH   7  31
TORSDOF 10
