REMARK  Name = DB11079
REMARK                            x       y       z     vdW  Elec       q    Type
REMARK                         _______ _______ _______ _____ _____    ______ ____
ROOT
ATOM      1  N   LIG    1        1.511   0.118   0.234  0.00  0.00    -0.296 NA
ENDROOT
BRANCH   1   2
ATOM      2  C   LIG    1        0.067  -0.171   0.205  0.00  0.00    +0.112 C 
BRANCH   2   3
ATOM      3  C   LIG    1       -0.792   0.979  -0.366  0.00  0.00    +0.171 C 
BRANCH   3   4
ATOM      4  O   LIG    1       -0.887   2.097   0.494  0.00  0.00    -0.394 OA
ATOM      5  H   LIG    1       -1.424   2.767   0.065  0.00  0.00    +0.209 HD
ENDBRANCH   3   4
ENDBRANCH   2   3
ENDBRANCH   1   2
BRANCH   1   6
ATOM      6  C   LIG    1        1.869   0.749   1.516  0.00  0.00    +0.112 C 
BRANCH   6   7
ATOM      7  C   LIG    1        3.201   1.520   1.406  0.00  0.00    +0.171 C 
BRANCH   7   8
ATOM      8  O   LIG    1        3.480   2.155   2.635  0.00  0.00    -0.394 OA
ATOM      9  H   LIG    1        2.833   2.851   2.772  0.00  0.00    +0.209 HD
ENDBRANCH   7   8
ENDBRANCH   6   7
ENDBRANCH   1   6
BRANCH   1  10
ATOM     10  C   LIG    1        2.291  -1.112   0.001  0.00  0.00    +0.112 C 
BRANCH  10  11
ATOM     11  C   LIG    1        2.559  -1.414  -1.491  0.00  0.00    +0.171 C 
BRANCH  11  12
ATOM     12  O   LIG    1        1.416  -1.847  -2.198  0.00  0.00    -0.394 OA
ATOM     13  H   LIG    1        1.665  -2.012  -3.110  0.00  0.00    +0.209 HD
ENDBRANCH  11  12
ENDBRANCH  10  11
ENDBRANCH   1  10
TORSDOF 9
