REMARK  Name = DB11743
REMARK                            x       y       z     vdW  Elec       q    Type
REMARK                         _______ _______ _______ _____ _____    ______ ____
ROOT
ATOM      1  C   LIG    1        2.164  -1.369   0.054  0.00  0.00    +0.221 C 
ATOM      2  O   LIG    1        1.576  -2.310   0.595  0.00  0.00    -0.275 OA
ATOM      3  N   LIG    1        3.333  -1.547  -0.625  0.00  0.00    -0.298 N 
ATOM      4  C   LIG    1        3.965  -2.872  -0.695  0.00  0.00    +0.126 C 
ATOM      5  C   LIG    1        5.257  -2.850   0.153  0.00  0.00    +0.125 C 
ATOM      6  N   LIG    1        6.181  -1.735  -0.129  0.00  0.00    -0.312 N 
ATOM      7  C   LIG    1        5.480  -0.443  -0.227  0.00  0.00    +0.125 C 
ATOM      8  C   LIG    1        4.192  -0.447  -1.080  0.00  0.00    +0.126 C 
ENDROOT
BRANCH   6   9
ATOM      9  C   LIG    1        7.494  -1.748   0.342  0.00  0.00    +0.128 A 
ATOM     10  N   LIG    1        7.736  -2.483   1.469  0.00  0.00    -0.220 NA
ATOM     11  C   LIG    1        8.992  -2.444   1.984  0.00  0.00    +0.223 A 
ATOM     12  N   LIG    1       10.035  -1.730   1.494  0.00  0.00    -0.237 NA
ATOM     13  C   LIG    1        9.775  -1.017   0.369  0.00  0.00    +0.078 A 
ATOM     14  C   LIG    1       10.757  -0.103  -0.330  0.00  0.00    +0.164 C 
ATOM     15  C   LIG    1       10.120   0.034  -1.714  0.00  0.00    +0.045 C 
ATOM     16  C   LIG    1        8.604  -0.145  -1.523  0.00  0.00    +0.024 C 
ATOM     17  C   LIG    1        7.930  -0.724  -2.782  0.00  0.00    +0.013 C 
ATOM     18  C   LIG    1        8.529  -1.008  -0.267  0.00  0.00    +0.019 A 
BRANCH  14  19
ATOM     19  O   LIG    1       10.909   1.137   0.332  0.00  0.00    -0.386 OA
ATOM     20  H   LIG    1       10.081   1.619   0.272  0.00  0.00    +0.210 HD
ENDBRANCH  14  19
ENDBRANCH   6   9
BRANCH   1  21
ATOM     21  C   LIG    1        1.483   0.030   0.092  0.00  0.00    +0.088 C 
BRANCH  21  22
ATOM     22  C   LIG    1        2.066   0.883   1.232  0.00  0.00    -0.037 A 
ATOM     23  C   LIG    1        1.990   0.455   2.564  0.00  0.00    +0.006 A 
ATOM     24  C   LIG    1        2.518   1.240   3.584  0.00  0.00    +0.020 A 
ATOM     25  C   LIG    1        3.117   2.460   3.278  0.00  0.00    +0.041 A 
ATOM     26 CL   LIG    1        3.773   3.434   4.543  0.00  0.00    -0.084 Cl
ATOM     27  C   LIG    1        3.189   2.901   1.958  0.00  0.00    +0.020 A 
ATOM     28  C   LIG    1        2.661   2.115   0.938  0.00  0.00    +0.006 A 
ENDBRANCH  21  22
BRANCH  21  29
ATOM     29  C   LIG    1       -0.066  -0.076   0.177  0.00  0.00    -0.065 C 
BRANCH  29  30
ATOM     30  N   LIG    1       -0.713   1.311  -0.004  0.00  0.00    +0.381 N 
ATOM     31  H   LIG    1       -0.361   1.702  -0.866  0.00  0.00    -0.086 HD
ATOM     32  H   LIG    1       -0.413   1.914   0.750  0.00  0.00    -0.086 HD
BRANCH  30  34
ATOM     33  C   LIG    1       -2.685   2.750  -0.501  0.00  0.00    -0.014 C 
ATOM     34  C   LIG    1       -2.253   1.336  -0.077  0.00  0.00    -0.078 C 
ATOM     35  C   LIG    1       -2.863   0.909   1.272  0.00  0.00    -0.014 C 
ENDBRANCH  30  34
ENDBRANCH  29  30
ENDBRANCH  21  29
ENDBRANCH   1  21
TORSDOF 7
