REMARK  Name = DB11933
REMARK                            x       y       z     vdW  Elec       q    Type
REMARK                         _______ _______ _______ _____ _____    ______ ____
ROOT
ATOM      1  C   LIG    1       -0.294  -0.222  -0.333  0.00  0.00    +0.150 A 
ATOM      2  N   LIG    1       -0.959   0.960  -0.175  0.00  0.00    -0.219 NA
ATOM      3  C   LIG    1       -2.285   0.901   0.113  0.00  0.00    +0.225 A 
ATOM      4  N   LIG    1       -3.056  -0.208   0.273  0.00  0.00    -0.216 NA
ATOM      5  C   LIG    1       -2.372  -1.350   0.119  0.00  0.00    +0.167 A 
ATOM      6  N   LIG    1       -2.810  -2.663   0.200  0.00  0.00    -0.286 N 
ATOM      7  C   LIG    1       -1.692  -3.423  -0.086  0.00  0.00    +0.203 A 
ATOM      8  N   LIG    1       -0.596  -2.743  -0.309  0.00  0.00    -0.231 NA
ATOM      9  C   LIG    1       -0.991  -1.438  -0.193  0.00  0.00    +0.147 A 
ENDROOT
BRANCH   6  10
ATOM     10  C1* LIG    1       -4.149  -3.146   0.474  0.00  0.00    +0.253 C 
ATOM     11  O4* LIG    1       -4.995  -2.772  -0.570  0.00  0.00    -0.346 OA
ATOM     12  C4* LIG    1       -6.339  -2.610  -0.122  0.00  0.00    +0.177 C 
ATOM     13  C3* LIG    1       -6.269  -2.895   1.391  0.00  0.00    +0.178 C 
ATOM     14  C2* LIG    1       -4.809  -2.614   1.744  0.00  0.00    +0.195 C 
BRANCH  13  15
ATOM     15  O3* LIG    1       -6.693  -4.215   1.698  0.00  0.00    -0.386 OA
ATOM     16  H3* LIG    1       -7.556  -4.360   1.301  0.00  0.00    +0.210 HD
ENDBRANCH  13  15
BRANCH  14  17
ATOM     17  O2* LIG    1       -4.284  -3.258   2.891  0.00  0.00    -0.385 OA
ATOM     18  H2* LIG    1       -4.673  -2.859   3.672  0.00  0.00    +0.210 HD
ENDBRANCH  14  17
BRANCH  12  19
ATOM     19  C5* LIG    1       -6.759  -1.176  -0.501  0.00  0.00    +0.190 C 
BRANCH  19  20
ATOM     20  O5* LIG    1       -8.148  -0.999  -0.316  0.00  0.00    -0.392 OA
ATOM     21  H5* LIG    1       -8.380  -0.104  -0.578  0.00  0.00    +0.210 HD
ENDBRANCH  19  20
ENDBRANCH  12  19
ENDBRANCH   6  10
BRANCH   1  22
ATOM     22  N   LIG    1        1.076  -0.232  -0.645  0.00  0.00    -0.324 N 
ATOM     23  H   LIG    1        1.557  -1.119  -0.600  0.00  0.00    +0.148 HD
BRANCH  22  24
ATOM     24  C   LIG    1        1.878   0.984  -0.595  0.00  0.00    +0.130 C 
BRANCH  24  27
ATOM     25  C   LIG    1        5.298   1.285  -2.570  0.00  0.00    +0.038 C 
ATOM     26  C   LIG    1        3.868   1.566  -2.138  0.00  0.00    -0.078 C 
ATOM     27  C   LIG    1        3.284   0.848  -1.154  0.00  0.00    -0.010 C 
ATOM     28  C   LIG    1        3.206   2.700  -2.910  0.00  0.00    +0.038 C 
ENDBRANCH  24  27
ENDBRANCH  22  24
ENDBRANCH   1  22
TORSDOF 8
