REMARK  Name = DB11691
REMARK                            x       y       z     vdW  Elec       q    Type
REMARK                         _______ _______ _______ _____ _____    ______ ____
ROOT
ATOM      1  C   LIG    1        0.232  -0.480   0.325  0.00  0.00    +0.058 C 
ATOM      2  C   LIG    1       -0.413   0.694   0.588  0.00  0.00    +0.144 C 
ATOM      3  C   LIG    1       -1.935   0.885   0.490  0.00  0.00    +0.252 C 
ATOM      4  O   LIG    1       -2.504   1.164   1.790  0.00  0.00    -0.476 OA
ATOM      5  C   LIG    1       -3.041  -0.011   2.259  0.00  0.00    +0.167 A 
ATOM      6  C   LIG    1       -3.478  -0.295   3.550  0.00  0.00    +0.159 A 
ATOM      7  C   LIG    1       -3.878  -1.607   3.840  0.00  0.00    +0.049 A 
ATOM      8  C   LIG    1       -3.801  -2.609   2.857  0.00  0.00    +0.008 A 
ATOM      9  C   LIG    1       -3.369  -2.313   1.555  0.00  0.00    -0.038 A 
ATOM     10  C   LIG    1       -3.128  -3.360   0.458  0.00  0.00    +0.057 C 
ATOM     11  C   LIG    1       -2.815  -2.716  -0.940  0.00  0.00    +0.094 C 
ATOM     12  C   LIG    1       -1.857  -1.455  -0.805  0.00  0.00    +0.100 C 
ATOM     13  N   LIG    1       -4.095  -2.425  -1.646  0.00  0.00    -0.296 NA
ATOM     14  C   LIG    1       -4.828  -1.252  -1.129  0.00  0.00    +0.086 C 
ATOM     15  C   LIG    1       -3.928  -0.024  -0.878  0.00  0.00    +0.034 C 
ATOM     16  C   LIG    1       -3.067  -0.976   1.286  0.00  0.00    +0.014 A 
ATOM     17  C   LIG    1       -2.669  -0.380  -0.035  0.00  0.00    +0.075 C 
ATOM     18  C   LIG    1       -0.515  -1.766  -0.078  0.00  0.00    +0.081 C 
ENDROOT
BRANCH   1  21
ATOM     19  N   LIG    1        2.107  -1.627   1.162  0.00  0.00    -0.298 N 
ATOM     20  H   LIG    1        1.404  -2.237   1.551  0.00  0.00    +0.150 HD
ATOM     21  C   LIG    1        1.678  -0.589   0.413  0.00  0.00    +0.244 C 
ATOM     22  O   LIG    1        2.436   0.215  -0.133  0.00  0.00    -0.270 OA
BRANCH  19  23
ATOM     23  C   LIG    1        3.498  -2.007   1.466  0.00  0.00    +0.108 C 
ATOM     24  C   LIG    1        4.228  -2.463   0.175  0.00  0.00    +0.041 C 
ATOM     25  C   LIG    1        3.454  -3.205   2.437  0.00  0.00    +0.041 C 
BRANCH  23  26
ATOM     26  C   LIG    1        4.239  -0.854   2.158  0.00  0.00    +0.251 A 
ATOM     27  O   LIG    1        3.589  -0.165   3.129  0.00  0.00    -0.335 OA
ATOM     28  N   LIG    1        4.506   0.785   3.570  0.00  0.00    -0.056 NA
ATOM     29  C   LIG    1        5.578   0.544   2.841  0.00  0.00    +0.202 A 
ATOM     30  N   LIG    1        5.471  -0.454   1.981  0.00  0.00    -0.190 NA
BRANCH  29  31
ATOM     31  C   LIG    1        6.841   1.350   2.982  0.00  0.00    +0.022 A 
ATOM     32  C   LIG    1        8.027   0.933   2.360  0.00  0.00    +0.012 A 
ATOM     33  C   LIG    1        9.195   1.679   2.489  0.00  0.00    +0.001 A 
ATOM     34  C   LIG    1        9.187   2.850   3.241  0.00  0.00    +0.000 A 
ATOM     35  C   LIG    1        8.020   3.280   3.866  0.00  0.00    +0.001 A 
ATOM     36  C   LIG    1        6.852   2.533   3.737  0.00  0.00    +0.012 A 
ENDBRANCH  29  31
ENDBRANCH  23  26
ENDBRANCH  19  23
ENDBRANCH   1  21
BRANCH   2  37
ATOM     37  O   LIG    1        0.230   1.834   0.972  0.00  0.00    -0.507 OA
ATOM     38  H   LIG    1       -0.414   2.527   1.134  0.00  0.00    +0.292 HD
ENDBRANCH   2  37
BRANCH   6  39
ATOM     39  O   LIG    1       -3.486   0.676   4.515  0.00  0.00    -0.503 OA
ATOM     40  H   LIG    1       -3.179   1.525   4.189  0.00  0.00    +0.292 HD
ENDBRANCH   6  39
BRANCH  12  41
ATOM     41  O   LIG    1       -1.466  -0.964  -2.083  0.00  0.00    -0.386 OA
ATOM     42  H   LIG    1       -0.887  -0.209  -1.954  0.00  0.00    +0.210 HD
ENDBRANCH  12  41
BRANCH  13  43
ATOM     43  C   LIG    1       -3.960  -2.465  -3.110  0.00  0.00    +0.088 C 
BRANCH  43  44
ATOM     44  C   LIG    1       -5.307  -2.663  -3.835  0.00  0.00    +0.003 C 
ATOM     45  C   LIG    1       -6.183  -1.496  -4.209  0.00  0.00    +0.005 C 
ATOM     46  C   LIG    1       -5.454  -2.294  -5.285  0.00  0.00    +0.005 C 
ENDBRANCH  43  44
ENDBRANCH  13  43
TORSDOF 9
