REMARK  Name = DB11770
REMARK                            x       y       z     vdW  Elec       q    Type
REMARK                         _______ _______ _______ _____ _____    ______ ____
ROOT
ATOM      1  C   LIG    1        3.622  -0.837  -0.011  0.00  0.00    +0.121 A 
ATOM      2  C   LIG    1        4.458   0.281   0.132  0.00  0.00    +0.047 A 
ATOM      3  C   LIG    1        5.841   0.142   0.048  0.00  0.00    +0.027 A 
ATOM      4  C   LIG    1        6.408  -1.122  -0.172  0.00  0.00    +0.035 A 
ATOM      5  C   LIG    1        5.576  -2.232  -0.322  0.00  0.00    +0.027 A 
ATOM      6  C   LIG    1        4.194  -2.089  -0.236  0.00  0.00    +0.047 A 
ENDROOT
BRANCH   4   7
ATOM      7  N   LIG    1        7.791  -1.356  -0.293  0.00  0.00    -0.269 N 
ATOM      8  H   LIG    1        8.034  -2.244  -0.705  0.00  0.00    +0.156 HD
ATOM      9  C   LIG    1        8.815  -0.592   0.138  0.00  0.00    +0.304 C 
ATOM     10  N   LIG    1        9.995  -1.123  -0.226  0.00  0.00    -0.296 N 
ATOM     11  H   LIG    1        9.986  -1.976  -0.765  0.00  0.00    +0.151 HD
ATOM     12  O   LIG    1        8.709   0.449   0.790  0.00  0.00    -0.253 OA
BRANCH  10  13
ATOM     13  C   LIG    1       11.315  -0.664   0.216  0.00  0.00    +0.074 C 
ATOM     14  C   LIG    1       11.611  -0.867   1.726  0.00  0.00    +0.022 C 
ATOM     15  C   LIG    1       13.025  -0.418   2.145  0.00  0.00    +0.002 C 
ATOM     16  C   LIG    1       14.120  -1.022   1.250  0.00  0.00    +0.000 C 
ATOM     17  C   LIG    1       13.863  -0.704  -0.232  0.00  0.00    +0.002 C 
ATOM     18  C   LIG    1       12.465  -1.163  -0.693  0.00  0.00    +0.022 C 
ENDBRANCH  10  13
ENDBRANCH   4   7
BRANCH   1  19
ATOM     19  O   LIG    1        2.243  -0.792   0.052  0.00  0.00    -0.489 OA
BRANCH  19  20
ATOM     20  C   LIG    1        1.591   0.465   0.222  0.00  0.00    +0.258 C 
BRANCH  20  21
ATOM     21  C   LIG    1        0.063   0.268   0.184  0.00  0.00    +0.135 C 
BRANCH  21  22
ATOM     22  O   LIG    1       -0.336  -0.455   1.337  0.00  0.00    -0.390 OA
ATOM     23  H   LIG    1        0.004  -0.006   2.115  0.00  0.00    +0.210 HD
ENDBRANCH  21  22
BRANCH  21  24
ATOM     24  C   LIG    1       -0.686   1.617   0.108  0.00  0.00    -0.047 C 
BRANCH  24  25
ATOM     25  N   LIG    1       -2.213   1.392   0.052  0.00  0.00    +0.384 N 
ATOM     26  H   LIG    1       -2.412   0.844  -0.774  0.00  0.00    -0.085 HD
ATOM     27  H   LIG    1       -2.472   0.829   0.850  0.00  0.00    -0.085 HD
BRANCH  25  28
ATOM     28  C   LIG    1       -3.143   2.630   0.029  0.00  0.00    -0.077 C 
ATOM     29  C   LIG    1       -2.992   3.399   1.361  0.00  0.00    -0.011 C 
ATOM     30  C   LIG    1       -2.789   3.519  -1.185  0.00  0.00    -0.011 C 
ATOM     31  C   LIG    1       -4.579   2.082  -0.111  0.00  0.00    -0.011 C 
ENDBRANCH  25  28
ENDBRANCH  24  25
ENDBRANCH  21  24
ENDBRANCH  20  21
ENDBRANCH  19  20
ENDBRANCH   1  19
TORSDOF 9
