REMARK  Name = DB11938
REMARK                            x       y       z     vdW  Elec       q    Type
REMARK                         _______ _______ _______ _____ _____    ______ ____
ROOT
ATOM      1  C   LIG    1        0.034   0.058   0.270  0.00  0.00    +0.159 C 
ENDROOT
BRANCH   1   3
ATOM      2  C   LIG    1       -0.558  -2.023   1.591  0.00  0.00    +0.234 C 
ATOM      3  N   LIG    1       -0.578  -0.695   1.376  0.00  0.00    -0.302 N 
ATOM      4  H   LIG    1       -1.004  -0.116   2.085  0.00  0.00    +0.150 HD
ATOM      5  O   LIG    1       -0.084  -2.861   0.823  0.00  0.00    -0.274 OA
BRANCH   2   6
ATOM      6  C   LIG    1       -1.175  -2.490   2.918  0.00  0.00    +0.163 C 
BRANCH   6   9
ATOM      7  C   LIG    1        0.871  -2.698   4.322  0.00  0.00    +0.231 C 
ATOM      8  O   LIG    1        1.117  -1.489   4.340  0.00  0.00    -0.274 OA
ATOM      9  N   LIG    1       -0.197  -3.238   3.709  0.00  0.00    -0.302 N 
ATOM     10  H   LIG    1       -0.332  -4.238   3.743  0.00  0.00    +0.150 HD
BRANCH   7  11
ATOM     11  C   LIG    1        1.827  -3.691   5.015  0.00  0.00    +0.142 C 
BRANCH  11  12
ATOM     12  N   LIG    1        1.918  -3.293   6.431  0.00  0.00    -0.320 NA
ATOM     13  H   LIG    1        2.587  -2.543   6.534  0.00  0.00    +0.119 HD
ATOM     14  H   LIG    1        2.287  -4.056   6.981  0.00  0.00    +0.119 HD
ENDBRANCH  11  12
BRANCH  11  15
ATOM     15  C   LIG    1        3.202  -3.744   4.308  0.00  0.00    +0.063 C 
BRANCH  15  16
ATOM     16  C   LIG    1        4.122  -4.854   4.788  0.00  0.00    -0.045 A 
ATOM     17  C   LIG    1        3.966  -6.166   4.290  0.00  0.00    +0.004 A 
ATOM     18  C   LIG    1        4.745  -7.198   4.797  0.00  0.00    +0.000 A 
ATOM     19  C   LIG    1        5.659  -6.951   5.814  0.00  0.00    +0.000 A 
ATOM     20  C   LIG    1        5.793  -5.673   6.343  0.00  0.00    +0.000 A 
ATOM     21  C   LIG    1        5.023  -4.627   5.849  0.00  0.00    +0.004 A 
ENDBRANCH  15  16
ENDBRANCH  11  15
ENDBRANCH   7  11
ENDBRANCH   6   9
BRANCH   6  22
ATOM     22  C   LIG    1       -2.424  -3.361   2.673  0.00  0.00    +0.067 C 
BRANCH  22  23
ATOM     23  C   LIG    1       -3.202  -3.707   3.930  0.00  0.00    -0.045 A 
ATOM     24  C   LIG    1       -4.111  -2.778   4.478  0.00  0.00    +0.004 A 
ATOM     25  C   LIG    1       -4.747  -3.056   5.681  0.00  0.00    +0.000 A 
ATOM     26  C   LIG    1       -4.471  -4.234   6.363  0.00  0.00    +0.000 A 
ATOM     27  C   LIG    1       -3.547  -5.139   5.857  0.00  0.00    +0.000 A 
ATOM     28  C   LIG    1       -2.901  -4.880   4.655  0.00  0.00    +0.004 A 
ENDBRANCH  22  23
ENDBRANCH   6  22
ENDBRANCH   2   6
ENDBRANCH   1   3
BRANCH   1  29
ATOM     29  C   LIG    1        1.573   0.093   0.347  0.00  0.00    +0.234 C 
ATOM     30  O   LIG    1        2.201  -0.855   0.820  0.00  0.00    -0.274 OA
ATOM     31  N   LIG    1        2.142   1.205  -0.153  0.00  0.00    -0.302 N 
ATOM     32  H   LIG    1        1.537   1.920  -0.528  0.00  0.00    +0.150 HD
BRANCH  31  33
ATOM     33  C   LIG    1        3.578   1.512  -0.228  0.00  0.00    +0.159 C 
BRANCH  33  34
ATOM     34  C   LIG    1        4.256   1.527   1.168  0.00  0.00    +0.236 C 
ATOM     35  N   LIG    1        3.908   2.486   2.070  0.00  0.00    -0.300 N 
ATOM     36  C   LIG    1        3.088   3.665   1.742  0.00  0.00    +0.110 C 
ATOM     37  C   LIG    1        4.081   4.826   1.496  0.00  0.00    +0.052 C 
ATOM     38  C   LIG    1        5.036   5.116   2.697  0.00  0.00    +0.117 C 
ATOM     39  C   LIG    1        5.655   3.757   3.165  0.00  0.00    +0.052 C 
ATOM     40  C   LIG    1        4.633   2.605   3.347  0.00  0.00    +0.110 C 
ATOM     41  O   LIG    1        5.078   0.641   1.416  0.00  0.00    -0.274 OA
BRANCH  38  42
ATOM     42  N   LIG    1        6.098   6.031   2.301  0.00  0.00    -0.316 NA
ATOM     43  H   LIG    1        6.736   6.186   3.069  0.00  0.00    +0.119 HD
ATOM     44  H   LIG    1        5.709   6.924   2.031  0.00  0.00    +0.119 HD
ENDBRANCH  38  42
BRANCH  38  45
ATOM     45  C   LIG    1        4.225   5.788   3.851  0.00  0.00    +0.325 C 
ATOM     46  O   LIG    1        4.041   5.275   4.954  0.00  0.00    -0.249 OA
BRANCH  45  47
ATOM     47  O   LIG    1        3.736   7.019   3.504  0.00  0.00    -0.479 OA
ATOM     48  H   LIG    1        3.245   7.430   4.219  0.00  0.00    +0.295 HD
ENDBRANCH  45  47
ENDBRANCH  38  45
ENDBRANCH  33  34
BRANCH  33  49
ATOM     49  C   LIG    1        4.285   0.565  -1.233  0.00  0.00    +0.032 C 
BRANCH  49  50
ATOM     50  C   LIG    1        3.732   0.654  -2.666  0.00  0.00    +0.003 C 
BRANCH  50  51
ATOM     51  C   LIG    1        4.475  -0.276  -3.639  0.00  0.00    +0.015 C 
BRANCH  51  52
ATOM     52  C   LIG    1        3.963  -0.186  -5.085  0.00  0.00    +0.077 C 
BRANCH  52  53
ATOM     53  N   LIG    1        2.624  -0.734  -5.196  0.00  0.00    -0.330 NA
ATOM     54  H   LIG    1        2.638  -1.713  -4.949  0.00  0.00    +0.118 HD
ATOM     55  H   LIG    1        2.316  -0.685  -6.156  0.00  0.00    +0.118 HD
ENDBRANCH  52  53
ENDBRANCH  51  52
ENDBRANCH  50  51
ENDBRANCH  49  50
ENDBRANCH  33  49
ENDBRANCH  31  33
ENDBRANCH   1  29
BRANCH   1  56
ATOM     56  C   LIG    1       -0.440  -0.438  -1.124  0.00  0.00    +0.034 C 
BRANCH  56  57
ATOM     57  C   LIG    1       -1.971  -0.424  -1.347  0.00  0.00    -0.015 C 
ATOM     58  C   LIG    1       -2.578   0.988  -1.200  0.00  0.00    +0.007 C 
ATOM     59  C   LIG    1       -2.338  -1.080  -2.696  0.00  0.00    +0.007 C 
ENDBRANCH  56  57
ENDBRANCH   1  56
TORSDOF 22
