REMARK  Name = DB11256
REMARK                            x       y       z     vdW  Elec       q    Type
REMARK                         _______ _______ _______ _____ _____    ______ ____
ROOT
ATOM      1  C   UNK A  0       -2.826   0.164   0.084  0.00  0.00    +0.027 A 
ATOM      2  C   UNK A  0       -2.109   1.363   0.168  0.00  0.00    +0.023 A 
ATOM      3  C   UNK A  0       -0.720   1.345   0.256  0.00  0.00    +0.015 A 
ATOM      4  C   UNK A  0       -0.018   0.128   0.261  0.00  0.00    +0.037 A 
ATOM      5  C   UNK A  0       -0.748  -1.066   0.176  0.00  0.00    +0.015 A 
ATOM      6  C   UNK A  0       -2.136  -1.047   0.088  0.00  0.00    +0.023 A 
ENDROOT
BRANCH   4   7
ATOM      7  C   UNK A  0        1.494   0.076   0.361  0.00  0.00    +0.245 C 
ATOM      8  N   GLU A  1        2.138   1.258   0.451  0.00  0.00    -0.298 N 
ATOM      9  H   GLU A  1        1.592   2.107   0.455  0.00  0.00    +0.150 HD
ATOM     10  O   UNK A  0        2.089  -1.004   0.358  0.00  0.00    -0.270 OA
BRANCH   8  11
ATOM     11  CA  GLU A  1        3.589   1.440   0.587  0.00  0.00    +0.182 C 
BRANCH  11  12
ATOM     12  C   GLU A  1        4.094   1.017   1.987  0.00  0.00    +0.325 C 
ATOM     13  OXT GLU A  1        3.409   1.006   2.990  0.00  0.00    -0.249 OA
BRANCH  12  14
ATOM     14  O   GLU A  1        5.406   0.644   1.912  0.00  0.00    -0.479 OA
ATOM     15  H   GLU A  1        5.752   0.360   2.760  0.00  0.00    +0.295 HD
ENDBRANCH  12  14
ENDBRANCH  11  12
BRANCH  11  16
ATOM     16  CB  GLU A  1        3.930   2.912   0.232  0.00  0.00    +0.045 C 
BRANCH  16  17
ATOM     17  CG  GLU A  1        5.435   3.239   0.142  0.00  0.00    +0.123 C 
BRANCH  17  18
ATOM     18  CD  GLU A  1        5.678   4.663  -0.354  0.00  0.00    +0.305 C 
ATOM     19  OE2 GLU A  1        5.851   5.625   0.391  0.00  0.00    -0.251 OA
BRANCH  18  20
ATOM     20  OE1 GLU A  1        5.672   4.744  -1.716  0.00  0.00    -0.481 OA
ATOM     21  HE1 GLU A  1        5.823   5.637  -2.033  0.00  0.00    +0.295 HD
ENDBRANCH  18  20
ENDBRANCH  17  18
ENDBRANCH  16  17
ENDBRANCH  11  16
ENDBRANCH   8  11
ENDBRANCH   4   7
BRANCH   1  22
ATOM     22  N   UNK A  0       -4.227   0.116  -0.006  0.00  0.00    -0.342 N 
ATOM     23  H   UNK A  0       -4.686  -0.783  -0.030  0.00  0.00    +0.146 HD
BRANCH  22  24
ATOM     24  C   UNK A  0       -5.058   1.317   0.012  0.00  0.00    +0.125 C 
BRANCH  24  38
ATOM     25  C   UNK A  0       -7.120   3.017  -1.406  0.00  0.00    +0.130 C 
ATOM     26  N   UNK A  0       -7.377   2.278  -0.159  0.00  0.00    -0.320 N 
ATOM     27  C   UNK A  0       -8.664   2.296   0.424  0.00  0.00    +0.135 A 
ATOM     28  C   UNK A  0       -9.446   3.559   0.545  0.00  0.00    +0.298 A 
ATOM     29  N   UNK A  0      -10.801   3.397   0.927  0.00  0.00    -0.176 NA
ATOM     30  C   UNK A  0      -11.256   2.286   1.388  0.00  0.00    +0.195 A 
ATOM     31  N   UNK A  0      -10.482   1.138   1.458  0.00  0.00    -0.315 N 
ATOM     32  H   UNK A  0      -10.868   0.285   1.835  0.00  0.00    +0.170 HD
ATOM     33  O   UNK A  0       -8.885   4.643   0.388  0.00  0.00    -0.264 OA
ATOM     34  C   UNK A  0       -9.203   1.159   0.949  0.00  0.00    +0.126 A 
ATOM     35  N   UNK A  0       -8.494  -0.007   1.064  0.00  0.00    -0.327 N 
ATOM     36  H   UNK A  0       -8.869  -0.777   1.597  0.00  0.00    +0.148 HD
ATOM     37  C   UNK A  0       -7.041   0.101   1.084  0.00  0.00    +0.126 C 
ATOM     38  C   UNK A  0       -6.578   1.016  -0.095  0.00  0.00    +0.107 C 
BRANCH  30  39
ATOM     39  N   UNK A  0      -12.598   2.212   1.815  0.00  0.00    -0.329 N 
ATOM     40  H   UNK A  0      -12.846   1.529   2.516  0.00  0.00    +0.145 HD
ATOM     41  H   UNK A  0      -13.110   3.075   1.930  0.00  0.00    +0.145 HD
ENDBRANCH  30  39
ENDBRANCH  24  38
ENDBRANCH  22  24
ENDBRANCH   1  22
TORSDOF 12
