REMARK  Name = DB11811
REMARK                            x       y       z     vdW  Elec       q    Type
REMARK                         _______ _______ _______ _____ _____    ______ ____
ROOT
ATOM      1  C   LIG    1        1.453   0.350  -0.236  0.00  0.00    +0.311 C 
ENDROOT
BRANCH   1   2
ATOM      2  C   LIG    1        1.853   1.422   0.783  0.00  0.00    +0.004 A 
ATOM      3  C   LIG    1        1.569   1.254   2.143  0.00  0.00    +0.009 A 
ATOM      4  C   LIG    1        1.943   2.232   3.060  0.00  0.00    +0.020 A 
ATOM      5  C   LIG    1        2.604   3.377   2.618  0.00  0.00    +0.041 A 
ATOM      6 CL   LIG    1        3.069   4.589   3.755  0.00  0.00    -0.084 Cl
ATOM      7  C   LIG    1        2.894   3.549   1.266  0.00  0.00    +0.020 A 
ATOM      8  C   LIG    1        2.519   2.571   0.348  0.00  0.00    +0.009 A 
ENDBRANCH   1   2
BRANCH   1   9
ATOM      9  C   LIG    1       -0.080   0.346  -0.414  0.00  0.00    +0.353 C 
ATOM     10  O   LIG    1       -0.677   1.351  -0.809  0.00  0.00    -0.246 OA
BRANCH   9  11
ATOM     11  O   LIG    1       -0.656  -0.837  -0.108  0.00  0.00    -0.460 OA
BRANCH  11  12
ATOM     12  C   LIG    1       -2.053  -1.045  -0.271  0.00  0.00    +0.251 C 
BRANCH  12  13
ATOM     13  C   LIG    1       -2.419  -2.500   0.074  0.00  0.00    +0.145 C 
BRANCH  13  16
ATOM     14  C   LIG    1       -0.068  -5.031  -1.622  0.00  0.00    +0.109 C 
ATOM     15  C   LIG    1       -0.562  -4.039  -0.575  0.00  0.00    +0.210 C 
ATOM     16  N   LIG    1       -1.771  -3.489  -0.792  0.00  0.00    -0.312 N 
ATOM     17  H   LIG    1       -2.288  -3.772  -1.611  0.00  0.00    +0.149 HD
ATOM     18  O   LIG    1        0.143  -3.784   0.401  0.00  0.00    -0.276 OA
ENDBRANCH  13  16
ENDBRANCH  12  13
ENDBRANCH  11  12
ENDBRANCH   9  11
ENDBRANCH   1   9
BRANCH   1  19
ATOM     19  O   LIG    1        1.922  -0.939   0.183  0.00  0.00    -0.473 OA
BRANCH  19  20
ATOM     20  C   LIG    1        3.239  -1.307  -0.010  0.00  0.00    +0.123 A 
ATOM     21  C   LIG    1        4.217  -0.501  -0.617  0.00  0.00    +0.058 A 
ATOM     22  C   LIG    1        5.531  -0.957  -0.778  0.00  0.00    +0.058 A 
ATOM     23  C   LIG    1        5.867  -2.239  -0.325  0.00  0.00    +0.012 A 
ATOM     24  C   LIG    1        4.905  -3.047   0.279  0.00  0.00    +0.004 A 
ATOM     25  C   LIG    1        3.601  -2.581   0.434  0.00  0.00    +0.046 A 
BRANCH  22  26
ATOM     26  C   LIG    1        6.572  -0.056  -1.440  0.00  0.00    +0.418 C 
ATOM     27  F   LIG    1        7.818  -0.486  -1.231  0.00  0.00    -0.166 F 
ATOM     28  F   LIG    1        6.480   1.189  -0.970  0.00  0.00    -0.166 F 
ATOM     29  F   LIG    1        6.354  -0.033  -2.755  0.00  0.00    -0.166 F 
ENDBRANCH  22  26
ENDBRANCH  19  20
ENDBRANCH   1  19
TORSDOF 9
