REMARK  Name = DB11704
REMARK                            x       y       z     vdW  Elec       q    Type
REMARK                         _______ _______ _______ _____ _____    ______ ____
ROOT
ATOM      1  C   LIG    1        1.486  -0.123  -0.024  0.00  0.00    +0.204 C 
ENDROOT
BRANCH   1   2
ATOM      2  C   LIG    1        2.063   0.281  -1.383  0.00  0.00    -0.007 A 
ATOM      3  C   LIG    1        1.423  -0.103  -2.564  0.00  0.00    +0.008 A 
ATOM      4  C   LIG    1        1.950   0.266  -3.798  0.00  0.00    +0.013 A 
ATOM      5  C   LIG    1        3.127   1.028  -3.871  0.00  0.00    +0.037 A 
ATOM      6  C   LIG    1        3.766   1.401  -2.681  0.00  0.00    +0.013 A 
ATOM      7  C   LIG    1        3.239   1.031  -1.447  0.00  0.00    +0.008 A 
BRANCH   5   8
ATOM      8  C   LIG    1        3.723   1.437  -5.202  0.00  0.00    +0.244 C 
ATOM      9  N   LIG    1        2.899   1.393  -6.268  0.00  0.00    -0.311 N 
ATOM     10  H   LIG    1        1.944   1.098  -6.125  0.00  0.00    +0.149 HD
ATOM     11  O   LIG    1        4.896   1.809  -5.280  0.00  0.00    -0.270 OA
BRANCH   9  12
ATOM     12  C   LIG    1        3.266   1.739  -7.641  0.00  0.00    +0.115 C 
BRANCH  12  13
ATOM     13  C   LIG    1        4.093   0.628  -8.342  0.00  0.00    +0.139 C 
BRANCH  13  14
ATOM     14  C   LIG    1        4.458   0.922  -9.818  0.00  0.00    +0.306 C 
ATOM     15  O   LIG    1        5.119   0.037 -10.406  0.00  0.00    -0.251 OA
BRANCH  14  16
ATOM     16  O   LIG    1        4.093   1.994 -10.357  0.00  0.00    -0.481 OA
ATOM     17  H   LIG    1        3.598   2.620  -9.866  0.00  0.00    +0.295 HD
ENDBRANCH  14  16
ENDBRANCH  13  14
ENDBRANCH  12  13
ENDBRANCH   9  12
ENDBRANCH   5   8
ENDBRANCH   1   2
BRANCH   1  18
ATOM     18  O   LIG    1        0.068   0.085   0.013  0.00  0.00    -0.484 OA
BRANCH  18  25
ATOM     19  C   LIG    1       -4.020   2.718  -0.101  0.00  0.00    +0.044 C 
ATOM     20  C   LIG    1       -2.497   2.698  -0.042  0.00  0.00    -0.039 A 
ATOM     21  C   LIG    1       -1.744   3.886   0.049  0.00  0.00    -0.012 A 
ATOM     22  C   LIG    1       -0.339   3.792   0.130  0.00  0.00    -0.039 A 
ATOM     23  C   LIG    1        0.543   5.035   0.199  0.00  0.00    +0.044 C 
ATOM     24  C   LIG    1        0.284   2.542   0.118  0.00  0.00    +0.049 A 
ATOM     25  C   LIG    1       -0.465   1.362   0.026  0.00  0.00    +0.122 A 
ATOM     26  C   LIG    1       -1.852   1.459  -0.049  0.00  0.00    +0.049 A 
BRANCH  21  27
ATOM     27  C   LIG    1       -2.418   5.216   0.060  0.00  0.00    -0.017 A 
ATOM     28  C   LIG    1       -3.058   5.695  -1.084  0.00  0.00    +0.009 A 
ATOM     29  C   LIG    1       -3.685   6.937  -1.073  0.00  0.00    +0.005 A 
ATOM     30  C   LIG    1       -3.688   7.733   0.081  0.00  0.00    -0.042 A 
ATOM     31  C   LIG    1       -3.044   7.242   1.229  0.00  0.00    +0.005 A 
ATOM     32  C   LIG    1       -2.418   5.999   1.216  0.00  0.00    +0.009 A 
BRANCH  30  33
ATOM     33  C   LIG    1       -4.393   9.113   0.053  0.00  0.00    -0.013 C 
ATOM     34  C   LIG    1       -5.900   8.920  -0.249  0.00  0.00    +0.015 C 
ATOM     35  C   LIG    1       -4.280   9.889   1.393  0.00  0.00    +0.015 C 
ATOM     36  C   LIG    1       -3.764  10.002  -1.048  0.00  0.00    +0.015 C 
ENDBRANCH  30  33
ENDBRANCH  21  27
ENDBRANCH  18  25
ENDBRANCH   1  18
BRANCH   1  37
ATOM     37  C   LIG    1        1.760  -1.609   0.290  0.00  0.00    +0.058 C 
BRANCH  37  38
ATOM     38  C   LIG    1        1.275  -2.046   1.688  0.00  0.00    +0.117 C 
BRANCH  38  39
ATOM     39  C   LIG    1        1.559  -3.523   2.014  0.00  0.00    +0.390 C 
ATOM     40  F   LIG    1        2.865  -3.789   1.983  0.00  0.00    -0.171 F 
ATOM     41  F   LIG    1        0.960  -4.340   1.147  0.00  0.00    -0.171 F 
ATOM     42  F   LIG    1        1.114  -3.835   3.232  0.00  0.00    -0.171 F 
ENDBRANCH  38  39
ENDBRANCH  37  38
ENDBRANCH   1  37
TORSDOF 13
