REMARK  Name = DB11747
REMARK                            x       y       z     vdW  Elec       q    Type
REMARK                         _______ _______ _______ _____ _____    ______ ____
ROOT
ATOM      1  C   LIG    1        1.767  -3.703   1.152  0.00  0.00    +0.123 A 
ATOM      2  C   LIG    1        1.351  -4.325   2.328  0.00  0.00    +0.074 A 
ATOM      3  C   LIG    1        1.505  -5.719   2.511  0.00  0.00    +0.079 A 
ATOM      4  N   LIG    1        1.076  -6.279   3.677  0.00  0.00    -0.235 NA
ATOM      5  C   LIG    1        1.242  -7.616   3.805  0.00  0.00    +0.223 A 
ATOM      6  N   LIG    1        1.790  -8.455   2.897  0.00  0.00    -0.220 NA
ATOM      7  C   LIG    1        2.220  -7.905   1.730  0.00  0.00    +0.135 A 
ATOM      8  C   LIG    1        2.102  -6.502   1.474  0.00  0.00    +0.041 A 
ATOM      9  C   LIG    1        2.524  -5.849   0.285  0.00  0.00    +0.017 A 
ATOM     10  C   LIG    1        2.353  -4.474   0.139  0.00  0.00    +0.046 A 
ENDROOT
BRANCH   7  11
ATOM     11  N   LIG    1        2.806  -8.744   0.758  0.00  0.00    -0.282 N 
ATOM     12  H   LIG    1        3.156  -8.210  -0.024  0.00  0.00    +0.155 HD
BRANCH  11  13
ATOM     13  C   LIG    1        2.952 -10.116   0.714  0.00  0.00    +0.146 A 
ATOM     14  N   LIG    1        2.357 -10.955   1.538  0.00  0.00    -0.158 NA
ATOM     15  N   LIG    1        2.747 -12.174   1.151  0.00  0.00    -0.279 N 
ATOM     16  H   LIG    1        2.428 -13.006   1.626  0.00  0.00    +0.189 HD
ATOM     17  C   LIG    1        3.591 -12.176   0.074  0.00  0.00    +0.047 A 
ATOM     18  C   LIG    1        3.727 -10.824  -0.214  0.00  0.00    +0.068 A 
BRANCH  17  19
ATOM     19  C   LIG    1        4.151 -13.460  -0.518  0.00  0.00    +0.151 C 
BRANCH  19  20
ATOM     20  C   LIG    1        4.941 -13.261  -1.821  0.00  0.00    +0.223 C 
ATOM     21  N   LIG    1        6.202 -13.745  -1.822  0.00  0.00    -0.285 N 
ATOM     22  H   LIG    1        6.485 -14.266  -1.005  0.00  0.00    +0.155 HD
ATOM     23  O   LIG    1        4.395 -12.710  -2.778  0.00  0.00    -0.275 OA
BRANCH  21  24
ATOM     24  C   LIG    1        7.174 -13.676  -2.838  0.00  0.00    +0.036 A 
ATOM     25  C   LIG    1        7.152 -12.752  -3.898  0.00  0.00    +0.061 A 
ATOM     26  C   LIG    1        8.172 -12.749  -4.849  0.00  0.00    +0.125 A 
ATOM     27  F   LIG    1        8.145 -11.858  -5.866  0.00  0.00    -0.205 F 
ATOM     28  C   LIG    1        9.224 -13.659  -4.750  0.00  0.00    +0.038 A 
ATOM     29  C   LIG    1        9.260 -14.569  -3.694  0.00  0.00    +0.005 A 
ATOM     30  C   LIG    1        8.242 -14.574  -2.741  0.00  0.00    +0.023 A 
ENDBRANCH  21  24
ENDBRANCH  19  20
ENDBRANCH  17  19
ENDBRANCH  11  13
ENDBRANCH   7  11
BRANCH   1  31
ATOM     31  O   LIG    1        1.563  -2.338   1.075  0.00  0.00    -0.492 OA
BRANCH  31  32
ATOM     32  C   LIG    1        1.931  -1.638  -0.110  0.00  0.00    +0.227 C 
BRANCH  32  33
ATOM     33  C   LIG    1        1.560  -0.155   0.037  0.00  0.00    +0.022 C 
BRANCH  33  34
ATOM     34  C   LIG    1        0.046   0.063   0.234  0.00  0.00    -0.075 C 
BRANCH  34  35
ATOM     35  N   LIG    1       -0.337   1.567   0.214  0.00  0.00    +0.381 N 
ATOM     36  H   LIG    1        0.135   1.986  -0.577  0.00  0.00    -0.082 HD
BRANCH  35  38
ATOM     37  C   LIG    1       -2.250   1.458  -1.473  0.00  0.00    -0.017 C 
ATOM     38  C   LIG    1       -1.857   1.771  -0.019  0.00  0.00    -0.082 C 
ENDBRANCH  35  38
BRANCH  35  39
ATOM     39  C   LIG    1        0.190   2.316   1.468  0.00  0.00    -0.050 C 
BRANCH  39  40
ATOM     40  C   LIG    1       -0.035   3.843   1.401  0.00  0.00    +0.154 C 
BRANCH  40  41
ATOM     41  O   LIG    1        0.223   4.398   0.120  0.00  0.00    -0.289 OA
BRANCH  41  42
ATOM     42  P   LIG    1        1.849   4.499  -0.553  0.00  0.00    +0.472 P 
ATOM     43  O   LIG    1        1.708   5.337  -1.836  0.00  0.00    -0.228 OA
BRANCH  42  44
ATOM     44  O   LIG    1        2.286   3.050  -0.833  0.00  0.00    -0.303 OA
ATOM     45  H   LIG    1        1.713   2.666  -1.516  0.00  0.00    +0.222 HD
ENDBRANCH  42  44
BRANCH  42  46
ATOM     46  O   LIG    1        2.708   5.187   0.524  0.00  0.00    -0.303 OA
ATOM     47  H   LIG    1        2.391   6.094   0.660  0.00  0.00    +0.222 HD
ENDBRANCH  42  46
ENDBRANCH  41  42
ENDBRANCH  40  41
ENDBRANCH  39  40
ENDBRANCH  35  39
ENDBRANCH  34  35
ENDBRANCH  33  34
ENDBRANCH  32  33
ENDBRANCH  31  32
ENDBRANCH   1  31
TORSDOF 17
