REMARK  Name = DB11935
REMARK                            x       y       z     vdW  Elec       q    Type
REMARK                         _______ _______ _______ _____ _____    ______ ____
ROOT
ATOM      1  C   LIG    1       -4.104   0.548  -0.808  0.00  0.00    +0.258 C 
ATOM      2  C   LIG    1       -3.083   1.765  -0.980  0.00  0.00    +0.277 C 
ATOM      3  O   LIG    1       -3.095   2.853  -1.555  0.00  0.00    -0.270 OA
ATOM      4  N   LIG    1       -2.101   1.037  -0.301  0.00  0.00    -0.230 N 
ATOM      5  C   LIG    1       -0.738   1.035  -0.326  0.00  0.00    +0.125 C 
ATOM      6  C   LIG    1       -0.056  -0.140  -0.423  0.00  0.00    -0.006 C 
ATOM      7  C   LIG    1       -0.875  -1.439  -0.537  0.00  0.00    +0.196 C 
ATOM      8  O   LIG    1       -2.205  -1.168  -1.025  0.00  0.00    -0.349 OA
ATOM      9  C   LIG    1       -2.875  -0.220  -0.222  0.00  0.00    +0.273 C 
ENDROOT
BRANCH   1  10
ATOM     10  N   LIG    1       -4.584  -0.048  -2.038  0.00  0.00    -0.276 N 
ATOM     11  H   LIG    1       -4.548  -1.057  -2.061  0.00  0.00    +0.152 HD
ATOM     12  C   LIG    1       -5.174   0.553  -3.091  0.00  0.00    +0.226 C 
ATOM     13  O   LIG    1       -5.407   1.761  -3.154  0.00  0.00    -0.275 OA
BRANCH  12  14
ATOM     14  C   LIG    1       -5.581  -0.379  -4.240  0.00  0.00    +0.170 C 
BRANCH  14  15
ATOM     15  S   LIG    1       -5.597   0.396  -5.892  0.00  0.00    -0.082 S 
BRANCH  15  16
ATOM     16  C   LIG    1       -3.826   0.662  -6.211  0.00  0.00    +0.400 C 
ATOM     17  F   LIG    1       -3.296   1.553  -5.375  0.00  0.00    -0.197 F 
ATOM     18  F   LIG    1       -3.139  -0.478  -6.149  0.00  0.00    -0.197 F 
ENDBRANCH  15  16
ENDBRANCH  14  15
ENDBRANCH  12  14
ENDBRANCH   1  10
BRANCH   1  20
ATOM     19  C   LIG    1       -6.107   1.732  -0.092  0.00  0.00    +0.197 C 
ATOM     20  O   LIG    1       -5.077   0.785   0.178  0.00  0.00    -0.348 OA
ENDBRANCH   1  20
BRANCH   5  21
ATOM     21  C   LIG    1       -0.014   2.407  -0.209  0.00  0.00    +0.351 C 
ATOM     22  O   LIG    1        0.447   2.853  -1.285  0.00  0.00    -0.244 OA
BRANCH  21  23
ATOM     23  O   LIG    1        0.012   2.889   0.946  0.00  0.00    -0.476 OA
ATOM     24  H   LIG    1       -0.384   2.424   1.657  0.00  0.00    +0.295 HD
ENDBRANCH  21  23
ENDBRANCH   5  21
BRANCH   6  25
ATOM     25  C   LIG    1        1.463  -0.301  -0.422  0.00  0.00    +0.112 C 
BRANCH  25  26
ATOM     26  S   LIG    1        2.098  -1.209   1.022  0.00  0.00    -0.080 S 
BRANCH  26  27
ATOM     27  C   LIG    1        3.826  -1.251   0.645  0.00  0.00    +0.210 A 
ATOM     28  N   LIG    1        4.797  -1.791   1.460  0.00  0.00    -0.218 N 
ATOM     29  N   LIG    1        6.006  -1.636   0.907  0.00  0.00    -0.043 NA
ATOM     30  N   LIG    1        5.759  -1.008  -0.297  0.00  0.00    -0.022 NA
ATOM     31  N   LIG    1        4.394  -0.777  -0.440  0.00  0.00    -0.102 NA
BRANCH  28  32
ATOM     32  C   LIG    1        4.667  -2.385   2.789  0.00  0.00    +0.176 C 
BRANCH  32  33
ATOM     33  C   LIG    1        4.961  -1.379   3.921  0.00  0.00    +0.179 C 
BRANCH  33  34
ATOM     34  O   LIG    1        4.027  -0.318   3.925  0.00  0.00    -0.393 OA
ATOM     35  H   LIG    1        4.120   0.178   3.109  0.00  0.00    +0.209 HD
ENDBRANCH  33  34
ENDBRANCH  32  33
ENDBRANCH  28  32
ENDBRANCH  26  27
ENDBRANCH  25  26
ENDBRANCH   6  25
TORSDOF 13
