REMARK  Name = DB11893
REMARK                            x       y       z     vdW  Elec       q    Type
REMARK                         _______ _______ _______ _____ _____    ______ ____
ROOT
ATOM      1  N   LIG    1        0.491   0.470   0.871  0.00  0.00    -0.160 NA
ENDROOT
BRANCH   1   2
ATOM      2  S   LIG    1        0.051   2.193   0.812  0.00  0.00    +0.062 S 
ATOM      3  O   LIG    1       -1.319   2.360   1.313  0.00  0.00    -0.153 OA
ATOM      4  O   LIG    1        1.156   2.956   1.405  0.00  0.00    -0.153 OA
BRANCH   2   6
ATOM      5  C   LIG    1        1.151   3.086  -1.568  0.00  0.00    +0.030 A 
ATOM      6  C   LIG    1        0.019   2.561  -0.940  0.00  0.00    +0.106 A 
ATOM      7  C   LIG    1       -1.126   2.265  -1.682  0.00  0.00    +0.030 A 
ATOM      8  C   LIG    1       -1.143   2.503  -3.054  0.00  0.00    +0.022 A 
ATOM      9  C   LIG    1       -0.013   3.032  -3.677  0.00  0.00    +0.041 A 
ATOM     10 CL   LIG    1       -0.032   3.322  -5.378  0.00  0.00    -0.084 Cl
ATOM     11  C   LIG    1        1.133   3.324  -2.940  0.00  0.00    +0.022 A 
ENDBRANCH   2   6
ENDBRANCH   1   2
BRANCH   1  12
ATOM     12  C   LIG    1        1.884   0.102   0.447  0.00  0.00    +0.166 C 
BRANCH  12  13
ATOM     13  C   LIG    1        2.691  -0.410   1.665  0.00  0.00    +0.229 C 
ATOM     14  N   LIG    1        2.966   0.473   2.630  0.00  0.00    -0.328 N 
ATOM     15  H   LIG    1        3.491   0.187   3.443  0.00  0.00    +0.145 HD
ATOM     16  H   LIG    1        2.649   1.429   2.554  0.00  0.00    +0.145 HD
ATOM     17  O   LIG    1        3.063  -1.579   1.740  0.00  0.00    -0.274 OA
ENDBRANCH  12  13
BRANCH  12  18
ATOM     18  C   LIG    1        1.846  -0.828  -0.794  0.00  0.00    +0.039 C 
BRANCH  18  19
ATOM     19  C   LIG    1        3.210  -1.028  -1.494  0.00  0.00    +0.115 C 
BRANCH  19  20
ATOM     20  C   LIG    1        3.133  -1.883  -2.772  0.00  0.00    +0.390 C 
ATOM     21  F   LIG    1        2.337  -1.327  -3.686  0.00  0.00    -0.171 F 
ATOM     22  F   LIG    1        2.663  -3.104  -2.517  0.00  0.00    -0.171 F 
ATOM     23  F   LIG    1        4.339  -2.023  -3.322  0.00  0.00    -0.171 F 
ENDBRANCH  19  20
ENDBRANCH  18  19
ENDBRANCH  12  18
ENDBRANCH   1  12
BRANCH   1  24
ATOM     24  C   LIG    1       -0.322  -0.486   1.683  0.00  0.00    +0.148 C 
BRANCH  24  25
ATOM     25  C   LIG    1       -1.793  -0.554   1.287  0.00  0.00    +0.004 A 
ATOM     26  C   LIG    1       -2.182  -0.872  -0.020  0.00  0.00    +0.129 A 
ATOM     27  F   LIG    1       -1.257  -1.118  -0.974  0.00  0.00    -0.205 F 
ATOM     28  C   LIG    1       -3.535  -0.939  -0.352  0.00  0.00    +0.050 A 
ATOM     29  C   LIG    1       -4.529  -0.702   0.609  0.00  0.00    +0.025 A 
ATOM     30  C   LIG    1       -4.126  -0.396   1.918  0.00  0.00    +0.012 A 
ATOM     31  C   LIG    1       -2.775  -0.327   2.253  0.00  0.00    +0.008 A 
BRANCH  29  32
ATOM     32  C   LIG    1       -5.988  -0.780   0.247  0.00  0.00    +0.202 A 
ATOM     33  N   LIG    1       -6.945  -0.588   1.136  0.00  0.00    -0.056 NA
ATOM     34  O   LIG    1       -8.117  -0.751   0.401  0.00  0.00    -0.341 OA
ATOM     35  C   LIG    1       -7.695  -1.023  -0.856  0.00  0.00    +0.343 A 
ATOM     36  N   LIG    1       -6.398  -1.048  -0.981  0.00  0.00    -0.194 NA
ENDBRANCH  29  32
ENDBRANCH  24  25
ENDBRANCH   1  24
TORSDOF 10
