REMARK  Name = DB11255
REMARK                            x       y       z     vdW  Elec       q    Type
REMARK                         _______ _______ _______ _____ _____    ______ ____
ROOT
ATOM      1  CA  LYS A  1        1.469  -0.015   0.000  0.00  0.00    +0.147 A 
ATOM      2  CB  LYS A  1        2.201   1.193   0.000  0.00  0.00    +0.035 A 
ATOM      3  CG  LYS A  1        3.596   1.161   0.000  0.00  0.00    +0.004 A 
ATOM      4  CD  LYS A  1        4.257  -0.065   0.000  0.00  0.00    +0.020 A 
ATOM      5  CE  LYS A  1        3.490  -1.228   0.000  0.00  0.00    +0.111 A 
ATOM      6  N   LYS A  1        2.135  -1.213   0.000  0.00  0.00    -0.248 NA
ENDROOT
BRANCH   1   7
ATOM      7  C   LYS A  1       -0.047  -0.013   0.000  0.00  0.00    +0.355 C 
ATOM      8  OXT LYS A  1       -0.650   1.088   0.000  0.00  0.00    -0.243 OA
BRANCH   7   9
ATOM      9  O   LYS A  1       -0.654  -1.111   0.000  0.00  0.00    -0.476 OA
ATOM     10  H   LYS A  1       -1.031  -1.438   0.793  0.00  0.00    +0.295 HD
ENDBRANCH   7   9
ENDBRANCH   1   7
TORSDOF 2
