REMARK  Name = DB11679
REMARK                            x       y       z     vdW  Elec       q    Type
REMARK                         _______ _______ _______ _____ _____    ______ ____
ROOT
ATOM      1  C   LIG    1       -4.266   4.790  -2.613  0.00  0.00    +0.087 C 
ATOM      2  C   LIG    1       -3.300   4.461  -1.494  0.00  0.00    +0.115 A 
ATOM      3  O   LIG    1       -2.777   3.205  -1.570  0.00  0.00    -0.459 OA
ATOM      4  C   LIG    1       -1.941   3.066  -0.509  0.00  0.00    +0.139 A 
ATOM      5  C   LIG    1       -1.202   1.918  -0.204  0.00  0.00    +0.093 A 
ATOM      6  C   LIG    1       -0.388   1.964   0.928  0.00  0.00    +0.134 A 
ATOM      7  C   LIG    1       -0.342   3.113   1.725  0.00  0.00    +0.047 A 
ATOM      8  C   LIG    1       -1.082   4.255   1.410  0.00  0.00    +0.016 A 
ATOM      9  C   LIG    1       -1.907   4.245   0.267  0.00  0.00    +0.033 A 
ATOM     10  C   LIG    1       -2.798   5.176  -0.391  0.00  0.00    +0.085 A 
ENDROOT
BRANCH  10  11
ATOM     11  C   LIG    1       -3.151   6.544  -0.072  0.00  0.00    +0.248 C 
ATOM     12  N   LIG    1       -2.574   7.019   1.045  0.00  0.00    -0.314 N 
ATOM     13  H   LIG    1       -1.950   6.415   1.558  0.00  0.00    +0.149 HD
ATOM     14  C   LIG    1       -2.760   8.362   1.584  0.00  0.00    +0.128 C 
ATOM     15  O   LIG    1       -3.914   7.204  -0.779  0.00  0.00    -0.270 OA
ENDBRANCH  10  11
BRANCH   6  16
ATOM     16  O   LIG    1        0.335   0.841   1.267  0.00  0.00    -0.437 OA
BRANCH  16  17
ATOM     17  C   LIG    1        1.721   0.825   1.312  0.00  0.00    +0.231 A 
ATOM     18  N   LIG    1        2.403   1.925   0.885  0.00  0.00    -0.201 NA
ATOM     19  C   LIG    1        3.753   1.853   0.952  0.00  0.00    +0.225 A 
ATOM     20  N   LIG    1        4.490   0.805   1.395  0.00  0.00    -0.235 NA
ATOM     21  C   LIG    1        3.802  -0.294   1.818  0.00  0.00    +0.082 A 
ATOM     22  C   LIG    1        4.518  -1.416   2.290  0.00  0.00    +0.078 A 
ATOM     23  C   LIG    1        3.845  -2.566   2.733  0.00  0.00    +0.164 A 
ATOM     24  C   LIG    1        2.444  -2.612   2.707  0.00  0.00    +0.162 A 
ATOM     25  C   LIG    1        1.714  -1.506   2.243  0.00  0.00    +0.064 A 
ATOM     26  C   LIG    1        2.377  -0.340   1.795  0.00  0.00    +0.066 A 
BRANCH  23  27
ATOM     27  O   LIG    1        4.496  -3.692   3.207  0.00  0.00    -0.491 OA
ATOM     28  C   LIG    1        5.918  -3.712   3.263  0.00  0.00    +0.277 C 
ENDBRANCH  23  27
BRANCH  24  29
ATOM     29  O   LIG    1        1.850  -3.779   3.156  0.00  0.00    -0.491 OA
ATOM     30  C   LIG    1        0.430  -3.894   3.153  0.00  0.00    +0.277 C 
ENDBRANCH  24  29
ENDBRANCH  16  17
ENDBRANCH   6  16
TORSDOF 5
