REMARK  Name = DB11696
REMARK                            x       y       z     vdW  Elec       q    Type
REMARK                         _______ _______ _______ _____ _____    ______ ____
ROOT
ATOM      1  C   LIG    1        1.701   0.703  -0.163  0.00  0.00    +0.218 C 
ATOM      2  N   LIG    1        1.842   2.043  -0.148  0.00  0.00    -0.305 N 
ATOM      3  H   LIG    1        1.012   2.615  -0.089  0.00  0.00    +0.149 HD
ATOM      4  O   LIG    1        2.655  -0.076  -0.207  0.00  0.00    -0.275 OA
ENDROOT
BRANCH   1   5
ATOM      5  C   LIG    1        0.258   0.155  -0.152  0.00  0.00    +0.089 C 
BRANCH   5   6
ATOM      6  C   LIG    1       -0.001  -0.666   1.135  0.00  0.00    +0.090 C 
BRANCH   6   7
ATOM      7  S   LIG    1       -1.747  -1.088   1.445  0.00  0.00    -0.088 S 
BRANCH   7   9
ATOM      8  C   LIG    1       -2.824  -2.703   3.498  0.00  0.00    +0.099 C 
ATOM      9  C   LIG    1       -1.524  -2.132   2.943  0.00  0.00    +0.186 C 
ATOM     10  O   LIG    1       -0.443  -2.373   3.479  0.00  0.00    -0.286 OA
ENDBRANCH   7   9
ENDBRANCH   6   7
ENDBRANCH   5   6
BRANCH   5  11
ATOM     11  C   LIG    1       -0.076  -0.658  -1.438  0.00  0.00    +0.048 C 
BRANCH  11  12
ATOM     12  C   LIG    1        0.220   0.060  -2.754  0.00  0.00    -0.047 A 
ATOM     13  C   LIG    1       -0.585   1.129  -3.159  0.00  0.00    +0.003 A 
ATOM     14  C   LIG    1       -0.309   1.794  -4.351  0.00  0.00    +0.000 A 
ATOM     15  C   LIG    1        0.767   1.386  -5.136  0.00  0.00    +0.000 A 
ATOM     16  C   LIG    1        1.571   0.319  -4.741  0.00  0.00    +0.000 A 
ATOM     17  C   LIG    1        1.298  -0.344  -3.547  0.00  0.00    +0.003 A 
ENDBRANCH  11  12
ENDBRANCH   5  11
ENDBRANCH   1   5
BRANCH   2  18
ATOM     18  C   LIG    1        3.121   2.759  -0.249  0.00  0.00    +0.224 C 
BRANCH  18  19
ATOM     19  C   LIG    1        3.597   2.867  -1.710  0.00  0.00    +0.325 C 
ATOM     20  O   LIG    1        2.847   2.676  -2.672  0.00  0.00    -0.249 OA
BRANCH  19  21
ATOM     21  O   LIG    1        4.909   3.195  -1.793  0.00  0.00    -0.459 OA
BRANCH  21  22
ATOM     22  C   LIG    1        5.585   3.259  -3.049  0.00  0.00    +0.267 C 
BRANCH  22  23
ATOM     23  C   LIG    1        5.849   1.866  -3.609  0.00  0.00    -0.010 A 
ATOM     24  C   LIG    1        5.173   1.434  -4.754  0.00  0.00    +0.007 A 
ATOM     25  C   LIG    1        5.403   0.155  -5.254  0.00  0.00    +0.000 A 
ATOM     26  C   LIG    1        6.308  -0.686  -4.609  0.00  0.00    +0.000 A 
ATOM     27  C   LIG    1        6.987  -0.259  -3.469  0.00  0.00    +0.000 A 
ATOM     28  C   LIG    1        6.757   1.020  -2.968  0.00  0.00    +0.007 A 
ENDBRANCH  22  23
ENDBRANCH  21  22
ENDBRANCH  19  21
ENDBRANCH  18  19
ENDBRANCH   2  18
TORSDOF 11
