REMARK  Name = DB11219
REMARK                            x       y       z     vdW  Elec       q    Type
REMARK                         _______ _______ _______ _____ _____    ______ ____
ROOT
ATOM      1  O   LIG    1       -2.825   0.251   0.109  0.00  0.00    -0.292 OA
ATOM      2  C   LIG    1       -2.097   1.243   0.049  0.00  0.00    +0.166 C 
ATOM      3  C   LIG    1       -0.624   1.264   0.011  0.00  0.00    -0.000 C 
ATOM      4  C   LIG    1        0.133   0.145   0.043  0.00  0.00    +0.015 C 
ATOM      5  C   LIG    1       -0.231   2.750  -0.004  0.00  0.00    +0.029 C 
ATOM      6  C   LIG    1       -0.588   3.288  -1.418  0.00  0.00    +0.010 C 
ATOM      7  C   LIG    1       -2.136   3.293  -1.380  0.00  0.00    +0.015 C 
ATOM      8  C   LIG    1       -1.307   3.345   0.933  0.00  0.00    -0.016 C 
ATOM      9  C   LIG    1       -1.226   2.851   2.418  0.00  0.00    +0.012 C 
ATOM     10  C   LIG    1       -1.284   4.902   1.011  0.00  0.00    +0.012 C 
ATOM     11  C   LIG    1       -2.447   2.756   0.051  0.00  0.00    +0.036 C 
ATOM     12  C   LIG    1       -3.893   2.999   0.535  0.00  0.00    +0.020 C 
ENDROOT
BRANCH   4  13
ATOM     13  C   LIG    1        1.606   0.059   0.004  0.00  0.00    -0.025 A 
ATOM     14  C   LIG    1        2.235  -0.940   0.753  0.00  0.00    +0.008 A 
ATOM     15  C   LIG    1        3.623  -1.054   0.750  0.00  0.00    +0.004 A 
ATOM     16  C   LIG    1        4.392  -0.170  -0.009  0.00  0.00    -0.050 A 
ATOM     17  C   LIG    1        5.906  -0.281  -0.011  0.00  0.00    +0.044 C 
ATOM     18  C   LIG    1        3.771   0.828  -0.761  0.00  0.00    +0.004 A 
ATOM     19  C   LIG    1        2.384   0.940  -0.757  0.00  0.00    +0.008 A 
ENDBRANCH   4  13
TORSDOF 1
