REMARK  Name = DB11994
REMARK                            x       y       z     vdW  Elec       q    Type
REMARK                         _______ _______ _______ _____ _____    ______ ____
ROOT
ATOM      1  C   LIG    1        1.451   0.106   0.024  0.00  0.00    +0.143 A 
ATOM      2  C   LIG    1        2.130  -0.184  -1.188  0.00  0.00    +0.075 A 
ATOM      3  C   LIG    1        1.386  -0.409  -2.485  0.00  0.00    +0.202 C 
ATOM      4  O   LIG    1        0.168  -0.600  -2.504  0.00  0.00    -0.286 OA
ATOM      5  C   LIG    1        2.182  -0.239  -3.760  0.00  0.00    +0.076 A 
ATOM      6  C   LIG    1        1.553  -0.004  -5.007  0.00  0.00    +0.144 A 
ATOM      7  C   LIG    1        2.316   0.109  -6.172  0.00  0.00    +0.062 A 
ATOM      8  C   LIG    1        3.710   0.033  -6.139  0.00  0.00    +0.063 A 
ATOM      9  C   LIG    1        4.333  -0.169  -4.904  0.00  0.00    +0.027 A 
ATOM     10  C   LIG    1        3.596  -0.306  -3.718  0.00  0.00    +0.037 A 
ATOM     11  C   LIG    1        4.337  -0.495  -2.425  0.00  0.00    +0.195 C 
ATOM     12  O   LIG    1        5.554  -0.701  -2.398  0.00  0.00    -0.287 OA
ATOM     13  C   LIG    1        3.547  -0.255  -1.172  0.00  0.00    +0.037 A 
ATOM     14  C   LIG    1        4.236  -0.073   0.036  0.00  0.00    +0.012 A 
ATOM     15  C   LIG    1        3.554   0.176   1.220  0.00  0.00    +0.004 A 
ATOM     16  C   LIG    1        2.170   0.265   1.212  0.00  0.00    +0.047 A 
ENDROOT
BRANCH   8  17
ATOM     17  C   LIG    1        4.538   0.171  -7.396  0.00  0.00    +0.337 C 
ATOM     18  O   LIG    1        5.767   0.099  -7.386  0.00  0.00    -0.245 OA
BRANCH  17  19
ATOM     19  O   LIG    1        3.824   0.381  -8.541  0.00  0.00    -0.477 OA
ATOM     20  H   LIG    1        4.390   0.465  -9.311  0.00  0.00    +0.295 HD
ENDBRANCH  17  19
ENDBRANCH   8  17
BRANCH   1  21
ATOM     21  O   LIG    1        0.077   0.222   0.105  0.00  0.00    -0.425 OA
BRANCH  21  23
ATOM     22  C   LIG    1       -2.021   1.385   0.046  0.00  0.00    +0.136 C 
ATOM     23  C   LIG    1       -0.501   1.446  -0.053  0.00  0.00    +0.309 C 
ATOM     24  O   LIG    1        0.077   2.514  -0.264  0.00  0.00    -0.251 OA
ENDBRANCH  21  23
ENDBRANCH   1  21
BRANCH   6  25
ATOM     25  O   LIG    1        0.182   0.097  -5.143  0.00  0.00    -0.425 OA
BRANCH  25  26
ATOM     26  C   LIG    1       -0.403   1.328  -5.133  0.00  0.00    +0.309 C 
ATOM     27  C   LIG    1       -1.920   1.252  -5.259  0.00  0.00    +0.136 C 
ATOM     28  O   LIG    1        0.169   2.416  -5.028  0.00  0.00    -0.251 OA
ENDBRANCH  25  26
ENDBRANCH   6  25
TORSDOF 6
