REMARK  Name = DB11496
REMARK                            x       y       z     vdW  Elec       q    Type
REMARK                         _______ _______ _______ _____ _____    ______ ____
ROOT
ATOM      1  S   LIG    1       -0.043   0.130   0.001  0.00  0.00    -0.025 S 
ATOM      2  C   LIG    1        0.003   1.786   0.010  0.00  0.00    +0.124 A 
ATOM      3  S   LIG    1       -1.446   2.789   0.029  0.00  0.00    -0.062 S 
ATOM      4  C   LIG    1       -0.468   4.248   0.029  0.00  0.00    +0.038 A 
ATOM      5  C   LIG    1       -0.889   5.578   0.040  0.00  0.00    +0.017 A 
ATOM      6  C   LIG    1        0.065   6.599   0.037  0.00  0.00    +0.001 A 
ATOM      7  C   LIG    1        1.428   6.287   0.023  0.00  0.00    +0.002 A 
ATOM      8  C   LIG    1        1.845   4.954   0.012  0.00  0.00    +0.027 A 
ATOM      9  C   LIG    1        0.887   3.939   0.015  0.00  0.00    +0.054 A 
ATOM     10  N   LIG    1        1.103   2.574   0.005  0.00  0.00    -0.343 N 
ATOM     11  H   LIG    1        2.022   2.156  -0.006  0.00  0.00    +0.167 HD
ENDROOT
TORSDOF 0
