REMARK  Name = DB11784
REMARK                            x       y       z     vdW  Elec       q    Type
REMARK                         _______ _______ _______ _____ _____    ______ ____
ROOT
ATOM      1  C   LIG    1        1.399  -0.237  -0.842  0.00  0.00    +0.237 C 
ATOM      2  N   LIG    1        1.694  -1.521  -0.481  0.00  0.00    -0.285 N 
ATOM      3  C   LIG    1        3.082  -2.074  -0.344  0.00  0.00    +0.117 C 
ATOM      4  C   LIG    1        2.820  -3.594  -0.124  0.00  0.00    +0.037 C 
ATOM      5  C   LIG    1        1.393  -3.688   0.378  0.00  0.00    +0.022 C 
ATOM      6  C   LIG    1        0.674  -2.573  -0.367  0.00  0.00    +0.109 C 
ATOM      7  O   LIG    1        2.256   0.644  -0.930  0.00  0.00    -0.274 OA
ENDROOT
BRANCH   1  10
ATOM      8  C   LIG    1       -0.705   1.202   0.987  0.00  0.00    +0.204 C 
ATOM      9  N   LIG    1       -0.573   1.284  -0.362  0.00  0.00    -0.291 N 
ATOM     10  C   LIG    1       -0.059   0.169  -1.188  0.00  0.00    +0.162 C 
ATOM     11  C   LIG    1       -0.159   0.699  -2.633  0.00  0.00    +0.033 C 
ATOM     12  C   LIG    1       -1.216   1.785  -2.580  0.00  0.00    +0.021 C 
ATOM     13  C   LIG    1       -0.998   2.402  -1.207  0.00  0.00    +0.108 C 
ATOM     14  O   LIG    1       -0.556   0.136   1.595  0.00  0.00    -0.277 OA
BRANCH   8  15
ATOM     15  C   LIG    1       -1.021   2.524   1.766  0.00  0.00    +0.042 C 
BRANCH  15  16
ATOM     16  N   LIG    1       -1.972   2.147   2.876  0.00  0.00    +0.387 N 
ATOM     17  H   LIG    1       -1.531   1.453   3.463  0.00  0.00    -0.089 HD
ATOM     18  H   LIG    1       -2.175   2.972   3.423  0.00  0.00    -0.089 HD
ATOM     19  H   LIG    1       -2.825   1.781   2.478  0.00  0.00    -0.089 HD
ENDBRANCH  15  16
BRANCH  15  21
ATOM     20  C   LIG    1        1.317   3.584   1.198  0.00  0.00    +0.036 C 
ATOM     21  C   LIG    1        0.323   3.135   2.287  0.00  0.00    +0.106 C 
BRANCH  21  22
ATOM     22  O   LIG    1        0.064   4.295   3.060  0.00  0.00    -0.393 OA
ATOM     23  H   LIG    1       -0.148   5.021   2.468  0.00  0.00    +0.210 HD
ENDBRANCH  21  22
ENDBRANCH  15  21
ENDBRANCH   8  15
ENDBRANCH   1  10
BRANCH   3  24
ATOM     24  C   LIG    1        3.864  -1.942  -1.702  0.00  0.00    +0.238 C 
ATOM     25  N   LIG    1        5.111  -1.434  -1.689  0.00  0.00    -0.300 N 
ATOM     26  H   LIG    1        5.513  -1.142  -0.810  0.00  0.00    +0.150 HD
ATOM     27  O   LIG    1        3.332  -2.313  -2.752  0.00  0.00    -0.273 OA
BRANCH  25  28
ATOM     28  C   LIG    1        5.976  -1.257  -2.862  0.00  0.00    +0.187 C 
BRANCH  28  29
ATOM     29  C   LIG    1        6.477  -2.624  -3.393  0.00  0.00    +0.233 C 
ATOM     30  N   LIG    1        6.417  -2.815  -4.714  0.00  0.00    -0.328 N 
ATOM     31  H   LIG    1        6.737  -3.685  -5.113  0.00  0.00    +0.145 HD
ATOM     32  H   LIG    1        6.044  -2.098  -5.319  0.00  0.00    +0.145 HD
ATOM     33  O   LIG    1        6.924  -3.469  -2.617  0.00  0.00    -0.274 OA
ENDBRANCH  28  29
BRANCH  28  34
ATOM     34  C   LIG    1        7.223  -0.386  -2.505  0.00  0.00    +0.141 C 
ATOM     35  C   LIG    1        8.122  -0.017  -3.703  0.00  0.00    +0.040 C 
BRANCH  34  36
ATOM     36  O   LIG    1        6.807   0.843  -1.935  0.00  0.00    -0.390 OA
ATOM     37  H   LIG    1        6.379   1.368  -2.615  0.00  0.00    +0.210 HD
ENDBRANCH  34  36
ENDBRANCH  28  34
ENDBRANCH  25  28
ENDBRANCH   3  24
BRANCH   3  38
ATOM     38  C   LIG    1        3.883  -1.425   0.849  0.00  0.00    +0.070 C 
BRANCH  38  39
ATOM     39  C   LIG    1        3.205  -1.434   2.218  0.00  0.00    -0.045 A 
ATOM     40  C   LIG    1        3.401  -2.512   3.087  0.00  0.00    +0.004 A 
ATOM     41  C   LIG    1        2.789  -2.521   4.338  0.00  0.00    +0.000 A 
ATOM     42  C   LIG    1        1.991  -1.446   4.722  0.00  0.00    +0.000 A 
ATOM     43  C   LIG    1        1.805  -0.361   3.869  0.00  0.00    +0.000 A 
ATOM     44  C   LIG    1        2.415  -0.353   2.618  0.00  0.00    +0.004 A 
ENDBRANCH  38  39
ENDBRANCH   3  38
TORSDOF 12
