REMARK  Name = DB11648
REMARK                            x       y       z     vdW  Elec       q    Type
REMARK                         _______ _______ _______ _____ _____    ______ ____
ROOT
ATOM      1  C   LIG    1       -0.925   0.813  -0.851  0.00  0.00    +0.251 C 
ATOM      2  N   LIG    1       -0.065   0.040  -0.161  0.00  0.00    -0.310 N 
ATOM      3  H   LIG    1       -0.455  -0.661   0.452  0.00  0.00    +0.149 HD
ATOM      4  O   LIG    1       -0.578   1.754  -1.568  0.00  0.00    -0.270 OA
ENDROOT
BRANCH   1   9
ATOM      5  C   LIG    1       -4.280  -0.628   0.015  0.00  0.00    +0.028 A 
ATOM      6  C   LIG    1       -4.781   0.270  -0.928  0.00  0.00    +0.088 A 
ATOM      7 CL   LIG    1       -6.411   0.494  -1.431  0.00  0.00    -0.075 Cl
ATOM      8  S   LIG    1       -3.531   1.234  -1.648  0.00  0.00    -0.072 S 
ATOM      9  C   LIG    1       -2.309   0.431  -0.709  0.00  0.00    +0.076 A 
ATOM     10  C   LIG    1       -2.884  -0.525   0.134  0.00  0.00    +0.032 A 
BRANCH   5  17
ATOM     11  C   LIG    1       -3.873  -3.712   0.133  0.00  0.00    +0.173 C 
ATOM     12  N   LIG    1       -4.893  -2.928   0.817  0.00  0.00    -0.265 N 
ATOM     13  N   LIG    1       -5.742  -3.564   1.634  0.00  0.00    -0.178 NA
ATOM     14  C   LIG    1       -6.509  -2.618   2.117  0.00  0.00    +0.155 A 
ATOM     15  C   LIG    1       -6.163  -1.347   1.646  0.00  0.00    +0.086 A 
ATOM     16 CL   LIG    1       -6.905   0.147   2.062  0.00  0.00    -0.080 Cl
ATOM     17  C   LIG    1       -5.085  -1.561   0.794  0.00  0.00    +0.089 A 
ENDBRANCH   5  17
ENDBRANCH   1   9
BRANCH   2  18
ATOM     18  C   LIG    1        1.395   0.188  -0.104  0.00  0.00    +0.060 C 
BRANCH  18  19
ATOM     19  C   LIG    1        2.089  -0.295  -1.411  0.00  0.00    -0.064 C 
BRANCH  19  20
ATOM     20  N   LIG    1        2.381   0.872  -2.365  0.00  0.00    +0.379 N 
ATOM     21  H   LIG    1        1.518   1.336  -2.614  0.00  0.00    -0.090 HD
ATOM     22  H   LIG    1        2.991   1.543  -1.921  0.00  0.00    -0.090 HD
ATOM     23  H   LIG    1        2.824   0.534  -3.207  0.00  0.00    -0.090 HD
ENDBRANCH  19  20
ENDBRANCH  18  19
BRANCH  18  24
ATOM     24  C   LIG    1        1.954  -0.575   1.123  0.00  0.00    +0.055 C 
BRANCH  24  25
ATOM     25  C   LIG    1        1.394  -0.094   2.458  0.00  0.00    -0.043 A 
ATOM     26  C   LIG    1        0.298  -0.742   3.039  0.00  0.00    +0.042 A 
ATOM     27  C   LIG    1       -0.222  -0.292   4.253  0.00  0.00    +0.124 A 
ATOM     28  F   LIG    1       -1.285  -0.919   4.806  0.00  0.00    -0.205 F 
ATOM     29  C   LIG    1        0.354   0.804   4.895  0.00  0.00    +0.038 A 
ATOM     30  C   LIG    1        1.448   1.452   4.322  0.00  0.00    +0.003 A 
ATOM     31  C   LIG    1        1.967   1.005   3.107  0.00  0.00    +0.004 A 
ENDBRANCH  24  25
ENDBRANCH  18  24
ENDBRANCH   2  18
TORSDOF 7
