REMARK  Name = DB11951
REMARK                            x       y       z     vdW  Elec       q    Type
REMARK                         _______ _______ _______ _____ _____    ______ ____
ROOT
ATOM      1  C   LIG    1       -0.394  -0.742   0.697  0.00  0.00    +0.090 C 
ATOM      2  C   LIG    1       -0.700  -0.938  -0.786  0.00  0.00    +0.029 C 
ATOM      3  C   LIG    1       -0.046   0.350  -0.337  0.00  0.00    +0.042 C 
ENDROOT
BRANCH   3   4
ATOM      4  C   LIG    1       -0.842   1.650  -0.240  0.00  0.00    -0.035 A 
ATOM      5  C   LIG    1       -1.742   1.998  -1.253  0.00  0.00    +0.004 A 
ATOM      6  C   LIG    1       -2.472   3.184  -1.171  0.00  0.00    +0.003 A 
ATOM      7  C   LIG    1       -2.308   4.030  -0.074  0.00  0.00    +0.038 A 
ATOM      8  C   LIG    1       -1.414   3.689   0.941  0.00  0.00    +0.124 A 
ATOM      9  F   LIG    1       -1.256   4.507   2.006  0.00  0.00    -0.205 F 
ATOM     10  C   LIG    1       -0.684   2.503   0.858  0.00  0.00    +0.042 A 
ENDBRANCH   3   4
BRANCH   1  11
ATOM     11  C   LIG    1        0.680  -1.707   1.256  0.00  0.00    +0.222 C 
ATOM     12  N   LIG    1        0.868  -1.608   2.590  0.00  0.00    -0.270 N 
ATOM     13  H   LIG    1        0.242  -0.996   3.091  0.00  0.00    +0.156 HD
ATOM     14  O   LIG    1        1.336  -2.442   0.514  0.00  0.00    -0.275 OA
BRANCH  12  15
ATOM     15  C   LIG    1        1.880  -2.187   3.379  0.00  0.00    +0.125 A 
ATOM     16  N   LIG    1        2.879  -2.944   2.837  0.00  0.00    -0.237 NA
ATOM     17  C   LIG    1        3.851  -3.419   3.656  0.00  0.00    +0.151 A 
ATOM     18  C   LIG    1        3.871  -3.165   5.026  0.00  0.00    +0.142 A 
ATOM     19  F   LIG    1        4.863  -3.654   5.805  0.00  0.00    -0.204 F 
ATOM     20  C   LIG    1        2.847  -2.395   5.577  0.00  0.00    +0.043 A 
ATOM     21  C   LIG    1        1.839  -1.898   4.748  0.00  0.00    +0.046 A 
ENDBRANCH  12  15
ENDBRANCH   1  11
BRANCH   3  22
ATOM     22  C   LIG    1        1.487   0.563  -0.519  0.00  0.00    +0.241 C 
BRANCH  22  23
ATOM     23  O   LIG    1        2.037   1.096   0.688  0.00  0.00    -0.488 OA
BRANCH  23  24
ATOM     24  C   LIG    1        3.236   0.621   1.183  0.00  0.00    +0.159 A 
ATOM     25  C   LIG    1        4.193  -0.098   0.444  0.00  0.00    +0.160 A 
ATOM     26  N   LIG    1        5.340  -0.578   0.992  0.00  0.00    -0.237 NA
ATOM     27  C   LIG    1        5.524  -0.317   2.311  0.00  0.00    +0.126 A 
ATOM     28  C   LIG    1        6.782  -0.865   2.957  0.00  0.00    +0.088 C 
ATOM     29  N   LIG    1        4.683   0.380   3.117  0.00  0.00    -0.234 NA
ATOM     30  C   LIG    1        3.546   0.846   2.534  0.00  0.00    +0.083 A 
ATOM     31  C   LIG    1        2.600   1.609   3.446  0.00  0.00    +0.069 C 
ENDBRANCH  23  24
ENDBRANCH  22  23
ENDBRANCH   3  22
TORSDOF 6
