REMARK  Name = DB11757
REMARK                            x       y       z     vdW  Elec       q    Type
REMARK                         _______ _______ _______ _____ _____    ______ ____
ROOT
ATOM      1  N   LIG    1        4.719   0.854  -0.767  0.00  0.00    -0.277 N 
ATOM      2  C   LIG    1        5.956   0.363  -0.415  0.00  0.00    +0.334 A 
ATOM      3  O   LIG    1        6.993   0.772  -0.951  0.00  0.00    -0.246 OA
ATOM      4  N   LIG    1        5.939  -0.628   0.563  0.00  0.00    -0.259 N 
ATOM      5  C   LIG    1        4.863  -1.242   1.191  0.00  0.00    +0.282 A 
ATOM      6  O   LIG    1        4.973  -2.157   2.010  0.00  0.00    -0.265 OA
ATOM      7  C   LIG    1        3.619  -0.645   0.742  0.00  0.00    +0.152 A 
ATOM      8  N   LIG    1        2.305  -0.901   1.089  0.00  0.00    -0.322 N 
ATOM      9  C   LIG    1        1.551  -0.027   0.319  0.00  0.00    +0.136 A 
ATOM     10  N   LIG    1        2.305   0.727  -0.453  0.00  0.00    -0.210 NA
ATOM     11  C   LIG    1        1.810  -1.853   2.084  0.00  0.00    +0.151 C 
ATOM     12  C   LIG    1        3.549   0.360  -0.203  0.00  0.00    +0.169 A 
ENDROOT
BRANCH   1  14
ATOM     13  C   LIG    1        4.590   1.374  -3.223  0.00  0.00    +0.027 C 
ATOM     14  C   LIG    1        4.631   1.919  -1.786  0.00  0.00    +0.125 C 
ENDBRANCH   1  14
BRANCH   9  15
ATOM     15  C   LIG    1        0.093   0.010   0.395  0.00  0.00    +0.047 C 
ATOM     16  C   LIG    1       -0.714   0.895  -0.225  0.00  0.00    +0.011 C 
BRANCH  16  17
ATOM     17  C   LIG    1       -2.190   0.957  -0.154  0.00  0.00    -0.021 A 
ATOM     18  C   LIG    1       -2.863   1.893  -0.946  0.00  0.00    +0.057 A 
ATOM     19  C   LIG    1       -4.264   2.007  -0.918  0.00  0.00    +0.162 A 
ATOM     20  C   LIG    1       -5.006   1.166  -0.076  0.00  0.00    +0.162 A 
ATOM     21  C   LIG    1       -4.332   0.221   0.715  0.00  0.00    +0.050 A 
ATOM     22  C   LIG    1       -2.944   0.119   0.675  0.00  0.00    +0.012 A 
BRANCH  19  23
ATOM     23  O   LIG    1       -4.975   2.918  -1.681  0.00  0.00    -0.491 OA
ATOM     24  C   LIG    1       -4.279   3.794  -2.560  0.00  0.00    +0.277 C 
ENDBRANCH  19  23
BRANCH  20  25
ATOM     25  O   LIG    1       -6.381   1.323  -0.078  0.00  0.00    -0.491 OA
ATOM     26  C   LIG    1       -7.182   0.501   0.763  0.00  0.00    +0.277 C 
ENDBRANCH  20  25
ENDBRANCH  16  17
ENDBRANCH   9  15
BRANCH   4  27
ATOM     27  C   LIG    1        7.278  -1.138   0.966  0.00  0.00    +0.126 C 
ATOM     28  C   LIG    1        7.792  -2.289   0.082  0.00  0.00    +0.027 C 
ENDBRANCH   4  27
TORSDOF 6
