REMARK  Name = DB11132
REMARK                            x       y       z     vdW  Elec       q    Type
REMARK                         _______ _______ _______ _____ _____    ______ ____
ROOT
ATOM      1 SI   LIG    1       -0.036  -0.051   0.548  0.00  0.00    +0.000 Si
ATOM      2  O   LIG    1       -0.142  -1.252  -0.402  0.00  0.00    +0.000 OA
ATOM      3  O   LIG    1        0.178   1.303  -0.145  0.00  0.00    +0.000 OA
ENDROOT
TORSDOF 0
