REMARK  Name = DB11832
REMARK                            x       y       z     vdW  Elec       q    Type
REMARK                         _______ _______ _______ _____ _____    ______ ____
ROOT
ATOM      1  C   LIG    1        6.773  -0.612  -0.121  0.00  0.00    +0.140 A 
ATOM      2  N   LIG    1        6.690  -1.834  -0.706  0.00  0.00    -0.227 NA
ATOM      3  C   LIG    1        7.755  -2.693  -0.634  0.00  0.00    +0.094 A 
ATOM      4  C   LIG    1        7.691  -3.983  -1.276  0.00  0.00    +0.056 A 
ATOM      5  C   LIG    1        8.831  -4.800  -1.223  0.00  0.00    +0.025 A 
ATOM      6  C   LIG    1        9.988  -4.410  -0.560  0.00  0.00    +0.003 A 
ATOM      7  C   LIG    1       10.059  -3.178   0.074  0.00  0.00    +0.010 A 
ATOM      8  C   LIG    1        8.954  -2.300   0.043  0.00  0.00    +0.002 A 
ATOM      9  C   LIG    1        9.002  -1.023   0.656  0.00  0.00    +0.013 A 
ATOM     10  C   LIG    1        7.902  -0.176   0.569  0.00  0.00    +0.047 A 
ENDROOT
BRANCH   1  16
ATOM     11  C   LIG    1        1.525   0.002   0.019  0.00  0.00    +0.123 A 
ATOM     12  C   LIG    1        2.225   1.174  -0.315  0.00  0.00    +0.075 A 
ATOM     13  C   LIG    1        3.625   1.129  -0.372  0.00  0.00    +0.093 A 
ATOM     14  N   LIG    1        4.500   2.137  -0.665  0.00  0.00    -0.235 NA
ATOM     15  C   LIG    1        5.675   1.572  -0.582  0.00  0.00    +0.206 A 
ATOM     16  N   LIG    1        5.651   0.230  -0.258  0.00  0.00    -0.283 N 
ATOM     17  C   LIG    1        4.308  -0.085  -0.102  0.00  0.00    +0.075 A 
ATOM     18  C   LIG    1        3.620  -1.254   0.240  0.00  0.00    +0.032 A 
ATOM     19  C   LIG    1        2.227  -1.175   0.288  0.00  0.00    +0.048 A 
BRANCH  11  20
ATOM     20  O   LIG    1        0.149  -0.079   0.106  0.00  0.00    -0.491 OA
BRANCH  20  21
ATOM     21  C   LIG    1       -0.644   1.081  -0.152  0.00  0.00    +0.240 C 
BRANCH  21  23
ATOM     22  C   LIG    1       -3.010   2.017  -0.293  0.00  0.00    +0.019 C 
ATOM     23  C   LIG    1       -2.152   0.767  -0.009  0.00  0.00    +0.049 C 
ATOM     24  C   LIG    1       -2.624  -0.487  -0.766  0.00  0.00    +0.172 C 
ATOM     25  O   LIG    1       -2.974  -1.161   0.517  0.00  0.00    -0.378 OA
ATOM     26  C   LIG    1       -2.539   0.038   1.290  0.00  0.00    +0.172 C 
ENDBRANCH  21  23
ENDBRANCH  20  21
ENDBRANCH  11  20
ENDBRANCH   1  16
BRANCH   4  27
ATOM     27  N   LIG    1        6.530  -4.429  -1.918  0.00  0.00    -0.328 N 
ATOM     28  C   LIG    1        6.565  -5.513  -2.920  0.00  0.00    +0.103 C 
ATOM     29  C   LIG    1        5.323  -5.506  -3.840  0.00  0.00    +0.003 C 
ATOM     30  C   LIG    1        4.007  -5.559  -3.041  0.00  0.00    -0.072 C 
ATOM     31  C   LIG    1        4.027  -4.529  -1.897  0.00  0.00    +0.003 C 
ATOM     32  C   LIG    1        5.330  -4.624  -1.079  0.00  0.00    +0.103 C 
BRANCH  30  33
ATOM     33  N   LIG    1        2.820  -5.275  -3.973  0.00  0.00    +0.380 N 
ATOM     34  H   LIG    1        2.790  -5.957  -4.718  0.00  0.00    -0.090 HD
ATOM     35  H   LIG    1        1.953  -5.317  -3.456  0.00  0.00    -0.090 HD
ATOM     36  H   LIG    1        2.912  -4.354  -4.378  0.00  0.00    -0.090 HD
ENDBRANCH  30  33
ENDBRANCH   4  27
TORSDOF 6
