REMARK  Name = DB11736
REMARK                            x       y       z     vdW  Elec       q    Type
REMARK                         _______ _______ _______ _____ _____    ______ ____
ROOT
ATOM      1  C   LIG    1       -3.063  -2.146   0.236  0.00  0.00    +0.220 A 
ATOM      2  N   LIG    1       -1.898  -2.775   0.559  0.00  0.00    -0.197 NA
ATOM      3  C   LIG    1       -0.724  -2.095   0.522  0.00  0.00    +0.155 A 
ATOM      4  C   LIG    1       -0.762  -0.750   0.127  0.00  0.00    +0.128 A 
ATOM      5  N   LIG    1        0.171   0.254  -0.044  0.00  0.00    -0.256 N 
ATOM      6  N   LIG    1       -0.406   1.379  -0.507  0.00  0.00    -0.164 NA
ATOM      7  C   LIG    1       -1.712   1.213  -0.588  0.00  0.00    +0.175 A 
ATOM      8  C   LIG    1       -1.997  -0.149  -0.213  0.00  0.00    +0.128 A 
ATOM      9  N   LIG    1       -3.143  -0.840  -0.152  0.00  0.00    -0.210 NA
ENDROOT
BRANCH   7  10
ATOM     10  C   LIG    1       -2.636   2.241  -1.060  0.00  0.00    +0.285 C 
ATOM     11  N   LIG    1       -2.377   3.532  -1.099  0.00  0.00    -0.185 N 
ATOM     12  H   LIG    1       -2.839   4.076  -1.777  0.00  0.00    +0.176 HD
ATOM     13  O   LIG    1       -3.694   1.821  -1.526  0.00  0.00    -0.267 OA
BRANCH  11  14
ATOM     14  S   LIG    1       -1.376   4.259  -0.127  0.00  0.00    +0.043 S 
ATOM     15  C   LIG    1       -2.099   5.998  -0.029  0.00  0.00    +0.218 C 
ATOM     16  O   LIG    1       -0.047   4.444  -0.719  0.00  0.00    -0.155 OA
ATOM     17  O   LIG    1       -1.423   3.764   1.255  0.00  0.00    -0.155 OA
ENDBRANCH  11  14
ENDBRANCH   7  10
BRANCH   1  18
ATOM     18  N   LIG    1       -4.266  -2.903   0.300  0.00  0.00    -0.303 N 
ATOM     19  C   LIG    1       -5.562  -2.231   0.178  0.00  0.00    +0.132 C 
BRANCH  18  21
ATOM     20  C   LIG    1       -4.313  -4.297   2.392  0.00  0.00    +0.024 C 
ATOM     21  C   LIG    1       -4.273  -4.262   0.856  0.00  0.00    +0.104 C 
ENDBRANCH  18  21
ENDBRANCH   1  18
BRANCH   3  22
ATOM     22  N   LIG    1        0.477  -2.743   0.857  0.00  0.00    -0.283 N 
ATOM     23  H   LIG    1        1.292  -2.173   0.682  0.00  0.00    +0.155 HD
BRANCH  22  24
ATOM     24  C   LIG    1        0.802  -4.038   1.293  0.00  0.00    +0.124 A 
ATOM     25  N   LIG    1        2.127  -4.333   1.244  0.00  0.00    -0.240 NA
ATOM     26  C   LIG    1        2.538  -5.562   1.648  0.00  0.00    +0.113 A 
ATOM     27  C   LIG    1        1.658  -6.536   2.116  0.00  0.00    +0.023 A 
ATOM     28  C   LIG    1        0.296  -6.232   2.173  0.00  0.00    -0.046 A 
ATOM     29  C   LIG    1       -0.705  -7.250   2.690  0.00  0.00    +0.044 C 
ATOM     30  C   LIG    1       -0.140  -4.968   1.762  0.00  0.00    +0.047 A 
ENDBRANCH  22  24
ENDBRANCH   3  22
BRANCH   5  31
ATOM     31  C   LIG    1        1.625   0.207   0.091  0.00  0.00    +0.172 C 
BRANCH  31  32
ATOM     32  C   LIG    1        2.276  -0.428  -1.150  0.00  0.00    +0.183 C 
BRANCH  32  33
ATOM     33  O   LIG    1        1.986   0.355  -2.303  0.00  0.00    -0.378 OA
BRANCH  33  34
ATOM     34  C   LIG    1        2.486  -0.157  -3.533  0.00  0.00    +0.156 C 
ATOM     35  C   LIG    1        1.671  -1.359  -4.039  0.00  0.00    +0.034 C 
ENDBRANCH  33  34
ENDBRANCH  32  33
ENDBRANCH  31  32
ENDBRANCH   5  31
TORSDOF 10
