REMARK  Name = DB11637
REMARK                            x       y       z     vdW  Elec       q    Type
REMARK                         _______ _______ _______ _____ _____    ______ ____
ROOT
ATOM      1  C   LIG    1        4.081   0.543  -0.210  0.00  0.00    +0.030 A 
ATOM      2  C   LIG    1        3.413  -0.674  -0.391  0.00  0.00    +0.027 A 
ATOM      3  C   LIG    1        2.025  -0.741  -0.324  0.00  0.00    +0.047 A 
ATOM      4  C   LIG    1        1.271   0.406  -0.084  0.00  0.00    +0.121 A 
ATOM      5  C   LIG    1        1.930   1.630   0.096  0.00  0.00    +0.047 A 
ATOM      6  C   LIG    1        3.319   1.696   0.032  0.00  0.00    +0.027 A 
ENDROOT
BRANCH   1  10
ATOM      7  C   LIG    1        8.403   0.799  -0.730  0.00  0.00    +0.176 C 
ATOM      8  C   LIG    1        7.556  -0.288  -1.418  0.00  0.00    +0.063 C 
ATOM      9  C   LIG    1        6.088   0.160  -1.574  0.00  0.00    +0.108 C 
ATOM     10  N   LIG    1        5.471   0.579  -0.301  0.00  0.00    -0.330 N 
ATOM     11  C   LIG    1        6.244   1.694   0.278  0.00  0.00    +0.108 C 
ATOM     12  C   LIG    1        7.722   1.335   0.544  0.00  0.00    +0.063 C 
BRANCH   7  13
ATOM     13  O   LIG    1        9.799   0.503  -0.603  0.00  0.00    -0.489 OA
BRANCH  13  17
ATOM     14  C   LIG    1       11.524  -2.603   1.627  0.00  0.00    +0.130 A 
ATOM     15  C   LIG    1       12.292  -1.735   0.838  0.00  0.00    +0.049 A 
ATOM     16  C   LIG    1       11.677  -0.714   0.118  0.00  0.00    +0.049 A 
ATOM     17  C   LIG    1       10.293  -0.538   0.163  0.00  0.00    +0.121 A 
ATOM     18  C   LIG    1        9.528  -1.406   0.957  0.00  0.00    +0.049 A 
ATOM     19  C   LIG    1       10.142  -2.424   1.679  0.00  0.00    +0.049 A 
BRANCH  14  20
ATOM     20  O   LIG    1       12.036  -3.648   2.375  0.00  0.00    -0.406 OA
BRANCH  20  22
ATOM     21  F   LIG    1       13.626  -5.002   3.136  0.00  0.00    -0.133 F 
ATOM     22  C   LIG    1       13.432  -3.947   2.346  0.00  0.00    +0.575 C 
ATOM     23  F   LIG    1       13.839  -4.282   1.121  0.00  0.00    -0.133 F 
ATOM     24  F   LIG    1       14.164  -2.942   2.830  0.00  0.00    -0.133 F 
ENDBRANCH  20  22
ENDBRANCH  14  20
ENDBRANCH  13  17
ENDBRANCH   7  13
ENDBRANCH   1  10
BRANCH   4  25
ATOM     25  O   LIG    1       -0.100   0.242  -0.041  0.00  0.00    -0.488 OA
BRANCH  25  26
ATOM     26  C   LIG    1       -0.938   1.383   0.139  0.00  0.00    +0.278 C 
BRANCH  26  27
ATOM     27  C   LIG    1       -2.431   0.969   0.059  0.00  0.00    +0.162 C 
ATOM     28  C   LIG    1       -2.812  -0.071   1.131  0.00  0.00    +0.061 C 
ATOM     29  C   LIG    1       -3.389   2.196   0.063  0.00  0.00    +0.177 C 
ATOM     30  N   LIG    1       -3.450   2.458  -1.339  0.00  0.00    -0.295 N 
ATOM     31  C   LIG    1       -3.876   3.379  -2.252  0.00  0.00    +0.143 A 
ATOM     32  C   LIG    1       -3.721   2.734  -3.489  0.00  0.00    +0.231 A 
ATOM     33  N   LIG    1       -3.257   1.490  -3.328  0.00  0.00    -0.171 NA
ATOM     34  C   LIG    1       -3.112   1.355  -2.034  0.00  0.00    +0.301 A 
ATOM     35  O   LIG    1       -2.647   0.355  -1.229  0.00  0.00    -0.452 OA
BRANCH  32  36
ATOM     36  N   LIG    1       -4.022   3.276  -4.782  0.00  0.00    +0.027 N 
ATOM     37  O   LIG    1       -4.452   4.424  -4.825  0.00  0.00    -0.128 OA
BRANCH  36  38
ATOM     38  O   LIG    1       -3.835   2.571  -5.771  0.00  0.00    -0.395 OA
ATOM     39  H   LIG    1       -4.024   2.905  -6.626  0.00  0.00    +0.329 HD
ENDBRANCH  36  38
ENDBRANCH  32  36
ENDBRANCH  26  27
ENDBRANCH  25  26
ENDBRANCH   4  25
TORSDOF 10
