REMARK  Name = DB11739
REMARK                            x       y       z     vdW  Elec       q    Type
REMARK                         _______ _______ _______ _____ _____    ______ ____
ROOT
ATOM      1  C   LIG    1        1.540   0.087   0.036  0.00  0.00    -0.014 A 
ATOM      2  C   LIG    1        2.390   1.184   0.085  0.00  0.00    +0.117 A 
ATOM      3  N   LIG    1        3.704   0.787   0.170  0.00  0.00    -0.218 N 
ATOM      4  C   LIG    1        3.732  -0.593   0.068  0.00  0.00    +0.075 A 
ATOM      5  C   LIG    1        2.407  -1.011   0.020  0.00  0.00    +0.034 A 
ENDROOT
BRANCH   4   6
ATOM      6  C   LIG    1        4.959  -1.439   0.025  0.00  0.00    +0.035 A 
ATOM      7  C   LIG    1        5.161  -2.455   0.970  0.00  0.00    +0.133 A 
ATOM      8  F   LIG    1        4.256  -2.671   1.955  0.00  0.00    -0.205 F 
ATOM      9  C   LIG    1        6.305  -3.253   0.909  0.00  0.00    +0.039 A 
ATOM     10  C   LIG    1        7.249  -3.050  -0.096  0.00  0.00    +0.003 A 
ATOM     11  C   LIG    1        7.049  -2.049  -1.047  0.00  0.00    +0.001 A 
ATOM     12  C   LIG    1        5.907  -1.251  -0.989  0.00  0.00    +0.013 A 
ENDBRANCH   4   6
BRANCH   3  13
ATOM     13  S   LIG    1        5.036   1.882   0.066  0.00  0.00    +0.086 S 
ATOM     14  O   LIG    1        5.119   2.277  -1.346  0.00  0.00    -0.148 OA
ATOM     15  O   LIG    1        6.165   1.246   0.756  0.00  0.00    -0.148 OA
BRANCH  13  16
ATOM     16  C   LIG    1        4.549   3.305   1.035  0.00  0.00    +0.129 A 
ATOM     17  C   LIG    1        4.628   3.269   2.430  0.00  0.00    +0.139 A 
ATOM     18  N   LIG    1        4.257   4.313   3.216  0.00  0.00    -0.261 NA
ATOM     19  C   LIG    1        3.791   5.432   2.604  0.00  0.00    +0.111 A 
ATOM     20  C   LIG    1        3.679   5.548   1.217  0.00  0.00    +0.022 A 
ATOM     21  C   LIG    1        4.065   4.466   0.423  0.00  0.00    +0.032 A 
ENDBRANCH  13  16
ENDBRANCH   3  13
BRANCH   1  22
ATOM     22  C   LIG    1        0.025   0.053  -0.044  0.00  0.00    +0.117 C 
BRANCH  22  24
ATOM     23  C   LIG    1       -2.000   1.266  -0.450  0.00  0.00    +0.101 C 
ATOM     24  N   LIG    1       -0.547   1.325  -0.468  0.00  0.00    -0.315 NA
ATOM     25  H   LIG    1       -0.237   1.532  -1.407  0.00  0.00    +0.122 HD
ENDBRANCH  22  24
ENDBRANCH   1  22
TORSDOF 5
