REMARK  Name = DB11164
REMARK                            x       y       z     vdW  Elec       q    Type
REMARK                         _______ _______ _______ _____ _____    ______ ____
ROOT
ATOM      1  C   LIG    1        0.082   0.108   0.491  0.00  0.00    +0.097 C 
ENDROOT
BRANCH   1   2
ATOM      2  N   LIG    1       -0.525   1.152  -0.329  0.00  0.00    -0.302 NA
ATOM      3  H   LIG    1       -0.316   0.914  -1.288  0.00  0.00    +0.123 HD
BRANCH   2   4
ATOM      4  C   LIG    1       -1.995   1.221  -0.187  0.00  0.00    +0.173 C 
BRANCH   4   5
ATOM      5  C   LIG    1       -2.516   1.936  -1.425  0.00  0.00    +0.325 C 
ATOM      6  O   LIG    1       -2.814   1.323  -2.453  0.00  0.00    -0.249 OA
BRANCH   5   7
ATOM      7  O   LIG    1       -2.574   3.283  -1.279  0.00  0.00    -0.464 OA
BRANCH   7   9
ATOM      8  C   LIG    1       -3.035   5.570  -1.874  0.00  0.00    +0.048 C 
ATOM      9  C   LIG    1       -3.023   4.112  -2.342  0.00  0.00    +0.229 C 
ENDBRANCH   7   9
ENDBRANCH   5   7
ENDBRANCH   4   5
BRANCH   4  10
ATOM     10  C   LIG    1       -2.454   1.859   1.159  0.00  0.00    +0.095 C 
BRANCH  10  11
ATOM     11  S   LIG    1       -4.262   1.818   1.367  0.00  0.00    -0.176 S 
ATOM     12  H   LIG    1       -4.276   2.386   2.575  0.00  0.00    +0.102 HD
ENDBRANCH  10  11
ENDBRANCH   4  10
ENDBRANCH   2   4
ENDBRANCH   1   2
BRANCH   1  13
ATOM     13  C   LIG    1        1.610   0.091   0.308  0.00  0.00    +0.097 C 
BRANCH  13  14
ATOM     14  N   LIG    1        1.968  -0.387  -1.026  0.00  0.00    -0.302 NA
ATOM     15  H   LIG    1        1.500   0.154  -1.739  0.00  0.00    +0.123 HD
BRANCH  14  16
ATOM     16  C   LIG    1        3.419  -0.496  -1.308  0.00  0.00    +0.173 C 
BRANCH  16  17
ATOM     17  C   LIG    1        4.050   0.890  -1.365  0.00  0.00    +0.325 C 
ATOM     18  O   LIG    1        3.973   1.629  -2.351  0.00  0.00    -0.249 OA
BRANCH  17  19
ATOM     19  O   LIG    1        4.680   1.194  -0.208  0.00  0.00    -0.464 OA
BRANCH  19  20
ATOM     20  C   LIG    1        5.334   2.445  -0.045  0.00  0.00    +0.229 C 
ATOM     21  C   LIG    1        5.939   2.520   1.360  0.00  0.00    +0.048 C 
ENDBRANCH  19  20
ENDBRANCH  17  19
ENDBRANCH  16  17
BRANCH  16  22
ATOM     22  C   LIG    1        3.666  -1.298  -2.612  0.00  0.00    +0.095 C 
BRANCH  22  23
ATOM     23  S   LIG    1        5.427  -1.677  -2.878  0.00  0.00    -0.176 S 
ATOM     24  H   LIG    1        5.260  -2.305  -4.045  0.00  0.00    +0.102 HD
ENDBRANCH  22  23
ENDBRANCH  16  22
ENDBRANCH  14  16
ENDBRANCH  13  14
ENDBRANCH   1  13
TORSDOF 15
