REMARK  Name = DB11820
REMARK                            x       y       z     vdW  Elec       q    Type
REMARK                         _______ _______ _______ _____ _____    ______ ____
ROOT
ATOM      1  N   LIG    1        1.264  -1.220  -0.113  0.00  0.00    -0.188 NA
ATOM      2  C   LIG    1        2.045  -0.761   0.783  0.00  0.00    +0.176 C 
ENDROOT
BRANCH   1   5
ATOM      3  C   LIG    1       -0.378  -2.344  -2.287  0.00  0.00    +0.031 C 
ATOM      4  C   LIG    1       -0.579  -0.943  -1.672  0.00  0.00    +0.110 C 
ATOM      5  N   LIG    1       -0.096  -0.783  -0.288  0.00  0.00    -0.250 N 
ATOM      6  C   LIG    1       -0.587   0.417   0.426  0.00  0.00    +0.149 C 
ATOM      7  C   LIG    1       -0.092   1.743  -0.194  0.00  0.00    +0.186 C 
ATOM      8  S   LIG    1       -0.641   1.828  -1.996  0.00  0.00    -0.028 S 
ATOM      9  O   LIG    1       -2.107   1.821  -2.053  0.00  0.00    -0.174 OA
ATOM     10  O   LIG    1        0.095   2.899  -2.676  0.00  0.00    -0.174 OA
ATOM     11  C   LIG    1        0.008   0.160  -2.585  0.00  0.00    +0.189 C 
ENDBRANCH   1   5
BRANCH   2  12
ATOM     12  C   LIG    1        3.409  -1.250   0.895  0.00  0.00    +0.150 A 
ATOM     13  O   LIG    1        4.182  -0.706   1.874  0.00  0.00    -0.433 OA
ATOM     14  C   LIG    1        5.410  -1.291   1.816  0.00  0.00    +0.276 A 
ATOM     15  C   LIG    1        5.430  -2.222   0.787  0.00  0.00    +0.076 A 
ATOM     16  C   LIG    1        4.163  -2.195   0.204  0.00  0.00    +0.053 A 
BRANCH  14  17
ATOM     17  N   LIG    1        6.404  -0.882   2.752  0.00  0.00    +0.043 N 
ATOM     18  O   LIG    1        7.501  -1.427   2.682  0.00  0.00    -0.127 OA
BRANCH  17  19
ATOM     19  O   LIG    1        6.104  -0.014   3.566  0.00  0.00    -0.394 OA
ATOM     20  H   LIG    1        5.244   0.357   3.559  0.00  0.00    +0.329 HD
ENDBRANCH  17  19
ENDBRANCH  14  17
ENDBRANCH   2  12
TORSDOF 4
