REMARK  Name = DB11876
REMARK                            x       y       z     vdW  Elec       q    Type
REMARK                         _______ _______ _______ _____ _____    ______ ____
ROOT
ATOM      1  CA  GLN A  2        1.432  -0.119  -0.141  0.00  0.00    +0.182 C 
ENDROOT
BRANCH   1   4
ATOM      2  C   ALA A  1       -0.825   0.926   0.233  0.00  0.00    +0.199 C 
ATOM      3  O   ALA A  1       -0.394   1.933   0.804  0.00  0.00    -0.278 OA
ATOM      4  N   GLN A  2       -0.038  -0.061  -0.229  0.00  0.00    -0.304 N 
ATOM      5  H   GLN A  2       -0.458  -0.818  -0.750  0.00  0.00    +0.149 HD
BRANCH   2   6
ATOM      6  CA  ALA A  1       -2.337   0.732  -0.033  0.00  0.00    +0.010 C 
ATOM      7  CB  ALA A  1       -2.823   1.556  -1.242  0.00  0.00    -0.005 C 
BRANCH   6   8
ATOM      8  N   ALA A  1       -3.062   1.129   1.223  0.00  0.00    +0.385 N 
ATOM      9  H1  ALA A  1       -2.755   2.052   1.497  0.00  0.00    -0.089 HD
ATOM     10  H2  ALA A  1       -4.056   1.139   1.042  0.00  0.00    -0.089 HD
ATOM     11  H3  ALA A  1       -2.851   0.462   1.952  0.00  0.00    -0.089 HD
ENDBRANCH   6   8
ENDBRANCH   2   6
ENDBRANCH   1   4
BRANCH   1  12
ATOM     12  C   GLN A  2        2.003  -0.996  -1.319  0.00  0.00    +0.325 C 
ATOM     13  O   GLN A  2        3.068  -0.557  -1.813  0.00  0.00    -0.249 OA
BRANCH  12  14
ATOM     14  OXT GLN A  2        1.379  -2.048  -1.605  0.00  0.00    -0.479 OA
ATOM     15  HXT GLN A  2        0.586  -2.259  -1.154  0.00  0.00    +0.295 HD
ENDBRANCH  12  14
ENDBRANCH   1  12
BRANCH   1  16
ATOM     16  CB  GLN A  2        1.900  -0.769   1.197  0.00  0.00    +0.043 C 
BRANCH  16  17
ATOM     17  CG  GLN A  2        1.627   0.075   2.460  0.00  0.00    +0.098 C 
BRANCH  17  18
ATOM     18  CD  GLN A  2        2.253  -0.522   3.723  0.00  0.00    +0.211 C 
ATOM     19  NE2 GLN A  2        2.742   0.339   4.619  0.00  0.00    -0.329 N 
ATOM     20 HE21 GLN A  2        3.157  -0.002   5.475  0.00  0.00    +0.145 HD
ATOM     21 HE22 GLN A  2        2.708   1.333   4.447  0.00  0.00    +0.145 HD
ATOM     22  OE1 GLN A  2        2.270  -1.737   3.907  0.00  0.00    -0.276 OA
ENDBRANCH  17  18
ENDBRANCH  16  17
ENDBRANCH   1  16
TORSDOF 8
