REMARK  Name = DB11912
REMARK                            x       y       z     vdW  Elec       q    Type
REMARK                         _______ _______ _______ _____ _____    ______ ____
ROOT
ATOM      1  N   LIG    1       -0.636   3.502  -2.298  0.00  0.00    -0.246 N 
ATOM      2  H   LIG    1       -1.293   3.027  -2.902  0.00  0.00    +0.172 HD
ENDROOT
BRANCH   1   9
ATOM      3  C   LIG    1        0.010   6.542   1.374  0.00  0.00    +0.088 C 
ATOM      4  C   LIG    1       -0.921   5.831   0.410  0.00  0.00    +0.130 A 
ATOM      5  N   LIG    1       -2.249   6.053   0.567  0.00  0.00    -0.215 NA
ATOM      6  C   LIG    1       -3.099   5.431  -0.304  0.00  0.00    +0.162 A 
ATOM      7  C   LIG    1       -2.592   4.553  -1.287  0.00  0.00    +0.204 A 
ATOM      8  F   LIG    1       -3.402   3.836  -2.103  0.00  0.00    -0.198 F 
ATOM      9  C   LIG    1       -1.202   4.388  -1.367  0.00  0.00    +0.176 A 
ATOM     10  N   LIG    1       -0.350   5.031  -0.522  0.00  0.00    -0.213 NA
BRANCH   6  11
ATOM     11  N   LIG    1       -4.466   5.649  -0.109  0.00  0.00    -0.310 N 
ATOM     12  C   LIG    1       -5.009   6.265   1.121  0.00  0.00    +0.127 C 
ATOM     13  C   LIG    1       -6.485   5.891   1.412  0.00  0.00    +0.100 C 
ATOM     14  C   LIG    1       -7.001   6.580   2.701  0.00  0.00    +0.180 C 
ATOM     15  O   LIG    1       -8.384   6.309   2.903  0.00  0.00    -0.377 OA
ATOM     16  C   LIG    1       -9.195   6.729   1.813  0.00  0.00    +0.175 C 
ATOM     17  C   LIG    1       -8.755   6.002   0.527  0.00  0.00    +0.113 C 
ATOM     18  N   LIG    1       -7.332   6.233   0.258  0.00  0.00    -0.292 NA
ATOM     19  C   LIG    1       -6.867   5.471  -0.898  0.00  0.00    +0.104 C 
ATOM     20  C   LIG    1       -5.404   5.835  -1.234  0.00  0.00    +0.122 C 
ENDBRANCH   6  11
ENDBRANCH   1   9
BRANCH   1  21
ATOM     21  N   LIG    1        0.317   2.557  -1.865  0.00  0.00    -0.235 N 
ATOM     22  H   LIG    1        1.269   2.809  -2.086  0.00  0.00    +0.173 HD
ATOM     23  C   LIG    1       -0.021   1.534  -1.051  0.00  0.00    +0.234 C 
ATOM     24  O   LIG    1       -1.185   1.214  -0.798  0.00  0.00    -0.274 OA
BRANCH  23  25
ATOM     25  C   LIG    1        1.143   0.758  -0.395  0.00  0.00    +0.096 C 
BRANCH  25  26
ATOM     26  C   LIG    1        1.075   0.788   1.163  0.00  0.00    +0.152 C 
BRANCH  26  27
ATOM     27  N   LIG    1        1.017   2.121   1.780  0.00  0.00    -0.186 N 
ATOM     28  C   LIG    1       -0.073   2.785   2.209  0.00  0.00    +0.352 C 
ATOM     29  O   LIG    1       -1.208   2.312   2.238  0.00  0.00    -0.277 OA
BRANCH  27  30
ATOM     30  O   LIG    1        2.172   2.899   1.662  0.00  0.00    -0.293 OA
ATOM     31  H   LIG    1        2.753   2.527   2.329  0.00  0.00    +0.242 HD
ENDBRANCH  27  30
ENDBRANCH  26  27
ENDBRANCH  25  26
BRANCH  25  32
ATOM     32  C   LIG    1        1.218  -0.682  -0.975  0.00  0.00    +0.018 C 
BRANCH  32  33
ATOM     33  C   LIG    1        2.423  -1.551  -0.523  0.00  0.00    -0.010 C 
ATOM     34  C   LIG    1        2.391  -2.962  -1.142  0.00  0.00    +0.003 C 
ATOM     35  C   LIG    1        3.307  -2.932  -2.378  0.00  0.00    +0.000 C 
ATOM     36  C   LIG    1        4.004  -1.565  -2.369  0.00  0.00    +0.000 C 
ATOM     37  C   LIG    1        3.802  -1.022  -0.954  0.00  0.00    +0.003 C 
ENDBRANCH  32  33
ENDBRANCH  25  32
ENDBRANCH  23  25
ENDBRANCH   1  21
TORSDOF 9
