REMARK  Name = DB11451
REMARK                            x       y       z     vdW  Elec       q    Type
REMARK                         _______ _______ _______ _____ _____    ______ ____
ROOT
ATOM      1  O   LIG    1       -0.631   1.311  -0.095  0.00  0.00    -0.372 OA
ATOM      2  C   LIG    1       -0.762   0.457  -1.204  0.00  0.00    +0.191 C 
ATOM      3  C   LIG    1       -0.026   0.051   0.032  0.00  0.00    +0.141 C 
ATOM      4  C   LIG    1        1.506   0.011   0.003  0.00  0.00    +0.040 C 
ENDROOT
TORSDOF 0
