REMARK  Name = DB11818
REMARK                            x       y       z     vdW  Elec       q    Type
REMARK                         _______ _______ _______ _____ _____    ______ ____
ROOT
ATOM      1  CA  ILE A  1        1.592  -0.061   0.280  0.00  0.00    +0.166 C 
ATOM      2  N   ILE A  1        2.232   0.824   1.296  0.00  0.00    -0.271 N 
ATOM      3  C   UNK A  2        3.117   0.338   2.228  0.00  0.00    +0.238 C 
ATOM      4  O   UNK A  2        3.646   1.034   3.095  0.00  0.00    -0.274 OA
ATOM      5  C   UNK A  2        3.476  -1.172   2.095  0.00  0.00    +0.163 C 
ATOM      6  N   UNK A  2        3.263  -1.764   0.767  0.00  0.00    -0.302 N 
ATOM      7  H   UNK A  2        3.843  -2.549   0.507  0.00  0.00    +0.150 HD
ATOM      8  C   ILE A  1        2.422  -1.294  -0.168  0.00  0.00    +0.234 C 
ATOM      9  O   ILE A  1        2.378  -1.779  -1.297  0.00  0.00    -0.274 OA
ENDROOT
BRANCH   5  10
ATOM     10  C   UNK A  2        2.940  -1.998   3.304  0.00  0.00    +0.027 C 
ATOM     11  C   UNK A  2        3.172  -3.514   3.210  0.00  0.00    +0.041 C 
ATOM     12  C   UNK A  2        3.144  -3.970   4.652  0.00  0.00    -0.044 A 
ATOM     13  C   UNK A  2        3.112  -5.264   5.173  0.00  0.00    +0.004 A 
ATOM     14  C   UNK A  2        3.201  -5.458   6.553  0.00  0.00    +0.000 A 
ATOM     15  C   UNK A  2        3.362  -4.365   7.405  0.00  0.00    +0.000 A 
ATOM     16  C   UNK A  2        3.436  -3.073   6.881  0.00  0.00    +0.004 A 
ATOM     17  C   UNK A  2        3.305  -2.874   5.505  0.00  0.00    -0.044 A 
ATOM     18  C   UNK A  2        3.456  -1.604   4.699  0.00  0.00    +0.041 C 
ENDBRANCH   5  10
BRANCH   1  19
ATOM     19  CB  ILE A  1        0.066  -0.382   0.458  0.00  0.00    +0.015 C 
ATOM     20  CG2 ILE A  1       -0.593  -0.985  -0.806  0.00  0.00    +0.010 C 
BRANCH  19  22
ATOM     21  CD1 ILE A  1       -1.758  -1.319   2.058  0.00  0.00    +0.004 C 
ATOM     22  CG1 ILE A  1       -0.261  -1.184   1.740  0.00  0.00    +0.002 C 
ENDBRANCH  19  22
ENDBRANCH   1  19
BRANCH   2  23
ATOM     23  C   UNK A  0        1.760   2.246   1.296  0.00  0.00    +0.215 C 
BRANCH  23  24
ATOM     24  C   UNK A  0        0.736   2.539   2.444  0.00  0.00    +0.242 C 
ATOM     25  N   UNK A  0       -0.172   3.538   2.273  0.00  0.00    -0.295 N 
ATOM     26  C   UNK A  0       -1.169   3.834   3.318  0.00  0.00    +0.136 C 
ATOM     27  C   UNK A  0       -0.672   5.101   4.052  0.00  0.00    +0.179 C 
ATOM     28  O   UNK A  0       -0.488   6.171   3.123  0.00  0.00    -0.377 OA
ATOM     29  C   UNK A  0        0.449   5.872   2.088  0.00  0.00    +0.179 C 
ATOM     30  C   UNK A  0       -0.010   4.626   1.294  0.00  0.00    +0.136 C 
ATOM     31  O   UNK A  0        0.676   1.782   3.417  0.00  0.00    -0.273 OA
ENDBRANCH  23  24
BRANCH  23  32
ATOM     32  C   UNK A  0        2.895   3.269   1.161  0.00  0.00    +0.109 A 
ATOM     33  N   UNK A  0        3.499   3.827   2.203  0.00  0.00    -0.216 NA
ATOM     34  C   UNK A  0        4.392   4.640   1.692  0.00  0.00    +0.193 A 
ATOM     35  C   UNK A  0        5.366   5.520   2.436  0.00  0.00    +0.109 C 
ATOM     36  O   UNK A  0        4.412   4.669   0.338  0.00  0.00    -0.448 OA
ATOM     37  C   UNK A  0        3.444   3.789  -0.004  0.00  0.00    +0.223 A 
ENDBRANCH  23  32
ENDBRANCH   2  23
TORSDOF 6
