REMARK  Name = DB11649
REMARK                            x       y       z     vdW  Elec       q    Type
REMARK                         _______ _______ _______ _____ _____    ______ ____
ROOT
ATOM      1  C   LIG    1       -0.543   1.072  -0.474  0.00  0.00    +0.105 A 
ATOM      2  N   LIG    1       -1.846   0.921  -0.561  0.00  0.00    -0.172 NA
ATOM      3  N   LIG    1       -2.075  -0.391  -0.397  0.00  0.00    -0.262 N 
ATOM      4  C   LIG    1       -0.924  -1.115  -0.170  0.00  0.00    +0.081 A 
ATOM      5  C   LIG    1        0.080  -0.153  -0.204  0.00  0.00    +0.172 A 
ENDROOT
BRANCH   1   7
ATOM      6  C   LIG    1        0.040   2.934  -2.095  0.00  0.00    +0.010 C 
ATOM      7  C   LIG    1        0.082   2.442  -0.640  0.00  0.00    +0.058 C 
ENDBRANCH   1   7
BRANCH   4   8
ATOM      8  C   LIG    1       -0.889  -2.617   0.048  0.00  0.00    +0.055 C 
ATOM      9  C   LIG    1       -0.921  -3.397  -1.274  0.00  0.00    +0.010 C 
ENDBRANCH   4   8
BRANCH   3  10
ATOM     10  C   LIG    1       -3.461  -0.861  -0.395  0.00  0.00    +0.171 C 
BRANCH  10  11
ATOM     11  C   LIG    1       -4.068  -0.674   1.007  0.00  0.00    +0.179 C 
BRANCH  11  12
ATOM     12  O   LIG    1       -5.401  -1.137   1.039  0.00  0.00    -0.393 OA
ATOM     13  H   LIG    1       -5.396  -2.093   0.956  0.00  0.00    +0.209 HD
ENDBRANCH  11  12
ENDBRANCH  10  11
ENDBRANCH   3  10
BRANCH   5  14
ATOM     14  O   LIG    1        1.427  -0.352  -0.048  0.00  0.00    -0.452 OA
BRANCH  14  15
ATOM     15  C   LIG    1        1.954  -0.775   1.157  0.00  0.00    +0.131 A 
ATOM     16  C   LIG    1        3.316  -1.083   1.180  0.00  0.00    +0.065 A 
ATOM     17  C   LIG    1        3.934  -1.514   2.358  0.00  0.00    +0.056 A 
ATOM     18  C   LIG    1        3.184  -1.636   3.531  0.00  0.00    +0.038 A 
ATOM     19  C   LIG    1        1.822  -1.324   3.526  0.00  0.00    +0.056 A 
ATOM     20  C   LIG    1        1.212  -0.892   2.346  0.00  0.00    +0.065 A 
BRANCH  17  21
ATOM     21  C   LIG    1        5.354  -1.834   2.362  0.00  0.00    +0.099 C 
ATOM     22  N   LIG    1        6.482  -2.088   2.366  0.00  0.00    -0.191 NA
ENDBRANCH  17  21
BRANCH  19  23
ATOM     23  C   LIG    1        1.041  -1.446   4.748  0.00  0.00    +0.099 C 
ATOM     24  N   LIG    1        0.419  -1.544   5.719  0.00  0.00    -0.191 NA
ENDBRANCH  19  23
ENDBRANCH  14  15
ENDBRANCH   5  14
TORSDOF 9
