REMARK  Name = DB11872
REMARK                            x       y       z     vdW  Elec       q    Type
REMARK                         _______ _______ _______ _____ _____    ______ ____
ROOT
ATOM      1  C   LIG    1        1.333   0.188  -0.002  0.00  0.00    +0.104 C 
ATOM      2  C   LIG    1        1.758  -0.947  -0.941  0.00  0.00    -0.016 A 
ATOM      3  C   LIG    1        2.570  -0.666  -2.049  0.00  0.00    +0.052 A 
ATOM      4  C   LIG    1        2.928  -1.651  -2.965  0.00  0.00    +0.132 A 
ATOM      5  C   LIG    1        2.474  -2.954  -2.771  0.00  0.00    +0.047 A 
ATOM      6  C   LIG    1        1.670  -3.257  -1.676  0.00  0.00    +0.012 A 
ATOM      7  C   LIG    1        1.303  -2.275  -0.742  0.00  0.00    -0.009 A 
ATOM      8  C   LIG    1        0.431  -2.687   0.419  0.00  0.00    +0.031 A 
ATOM      9  C   LIG    1       -0.691  -3.515   0.197  0.00  0.00    +0.173 A 
ATOM     10  C   LIG    1       -1.501  -3.927   1.264  0.00  0.00    +0.204 A 
ATOM     11  C   LIG    1       -1.236  -3.500   2.566  0.00  0.00    +0.165 A 
ATOM     12  C   LIG    1       -0.129  -2.671   2.786  0.00  0.00    +0.054 A 
ATOM     13  C   LIG    1        0.708  -2.272   1.740  0.00  0.00    -0.032 A 
ATOM     14  C   LIG    1        1.921  -1.396   2.025  0.00  0.00    +0.038 C 
ATOM     15  C   LIG    1        1.843   0.029   1.456  0.00  0.00    +0.032 C 
ENDROOT
BRANCH   1  18
ATOM     16  C   LIG    1       -2.324   1.407   0.093  0.00  0.00    +0.109 C 
ATOM     17  C   LIG    1       -0.819   1.445   0.333  0.00  0.00    +0.210 C 
ATOM     18  N   LIG    1       -0.121   0.379  -0.096  0.00  0.00    -0.309 N 
ATOM     19  H   LIG    1       -0.608  -0.302  -0.660  0.00  0.00    +0.149 HD
ATOM     20  O   LIG    1       -0.314   2.421   0.888  0.00  0.00    -0.276 OA
ENDBRANCH   1  18
BRANCH   9  21
ATOM     21  O   LIG    1       -1.041  -3.912  -1.073  0.00  0.00    -0.491 OA
ATOM     22  C   LIG    1       -1.985  -3.059  -1.708  0.00  0.00    +0.277 C 
ENDBRANCH   9  21
BRANCH  10  23
ATOM     23  O   LIG    1       -2.591  -4.728   1.021  0.00  0.00    -0.488 OA
ATOM     24  C   LIG    1       -2.307  -6.119   1.067  0.00  0.00    +0.277 C 
ENDBRANCH  10  23
BRANCH  11  25
ATOM     25  O   LIG    1       -2.095  -3.928   3.563  0.00  0.00    -0.491 OA
ATOM     26  C   LIG    1       -1.866  -3.518   4.906  0.00  0.00    +0.277 C 
ENDBRANCH  11  25
BRANCH   4  27
ATOM     27  O   LIG    1        3.724  -1.302  -4.024  0.00  0.00    -0.404 OA
BRANCH  27  28
ATOM     28  P   LIG    1        4.130  -2.224  -5.470  0.00  0.00    +0.528 P 
ATOM     29  O   LIG    1        5.093  -3.331  -5.002  0.00  0.00    -0.216 OA
BRANCH  28  30
ATOM     30  O   LIG    1        4.793  -1.218  -6.428  0.00  0.00    -0.293 OA
ATOM     31  H   LIG    1        5.625  -0.904  -6.042  0.00  0.00    +0.223 HD
ENDBRANCH  28  30
BRANCH  28  32
ATOM     32  O   LIG    1        2.797  -2.776  -6.010  0.00  0.00    -0.293 OA
ATOM     33  H   LIG    1        2.423  -3.402  -5.371  0.00  0.00    +0.223 HD
ENDBRANCH  28  32
ENDBRANCH  27  28
ENDBRANCH   4  27
TORSDOF 8
