REMARK  Name = DB11730
REMARK                            x       y       z     vdW  Elec       q    Type
REMARK                         _______ _______ _______ _____ _____    ______ ____
ROOT
ATOM      1  C   LIG    1        1.083  -0.220  -0.337  0.00  0.00    +0.107 A 
ATOM      2  N   LIG    1        1.984   0.345  -1.250  0.00  0.00    -0.318 N 
ATOM      3  C   LIG    1        3.272  -0.070  -0.911  0.00  0.00    +0.147 A 
ATOM      4  N   LIG    1        4.425   0.253  -1.518  0.00  0.00    -0.196 NA
ATOM      5  C   LIG    1        5.539  -0.309  -0.977  0.00  0.00    +0.222 A 
ATOM      6  N   LIG    1        5.571  -1.139   0.100  0.00  0.00    -0.222 NA
ATOM      7  C   LIG    1        4.391  -1.439   0.699  0.00  0.00    +0.126 A 
ATOM      8  C   LIG    1        3.181  -0.917   0.220  0.00  0.00    +0.038 A 
ATOM      9  C   LIG    1        1.807  -0.982   0.579  0.00  0.00    +0.044 A 
ENDROOT
BRANCH   1  12
ATOM     10  C   LIG    1       -2.606  -0.615   0.403  0.00  0.00    +0.132 C 
ATOM     11  N   LIG    1       -1.202  -0.898   0.091  0.00  0.00    -0.302 N 
ATOM     12  C   LIG    1       -0.336   0.099  -0.248  0.00  0.00    +0.263 C 
ATOM     13  O   LIG    1       -0.701   1.264  -0.424  0.00  0.00    -0.268 OA
ATOM     14  C   LIG    1       -0.916  -2.337   0.064  0.00  0.00    +0.132 C 
ENDBRANCH   1  12
BRANCH   2  15
ATOM     15  C   LIG    1        1.653   1.237  -2.387  0.00  0.00    +0.089 C 
ATOM     16  C   LIG    1        2.106   2.694  -2.163  0.00  0.00    +0.025 C 
ATOM     17  C   LIG    1        2.530   3.190  -3.547  0.00  0.00    +0.002 C 
ATOM     18  C   LIG    1        3.145   1.957  -4.209  0.00  0.00    +0.002 C 
ATOM     19  C   LIG    1        2.265   0.793  -3.739  0.00  0.00    +0.025 C 
ENDBRANCH   2  15
BRANCH   5  20
ATOM     20  N   LIG    1        6.729   0.049  -1.629  0.00  0.00    -0.268 N 
ATOM     21  H   LIG    1        6.575   0.699  -2.386  0.00  0.00    +0.156 HD
BRANCH  20  22
ATOM     22  C   LIG    1        8.086  -0.281  -1.470  0.00  0.00    +0.125 A 
ATOM     23  N   LIG    1        8.922   0.379  -2.310  0.00  0.00    -0.238 NA
ATOM     24  C   LIG    1       10.254   0.131  -2.239  0.00  0.00    +0.136 A 
ATOM     25  C   LIG    1       10.829  -0.783  -1.345  0.00  0.00    +0.048 A 
ATOM     26  C   LIG    1        9.946  -1.455  -0.483  0.00  0.00    +0.028 A 
ATOM     27  C   LIG    1        8.573  -1.212  -0.541  0.00  0.00    +0.045 A 
BRANCH  25  28
ATOM     28  N   LIG    1       12.207  -0.989  -1.314  0.00  0.00    -0.326 N 
ATOM     29  C   LIG    1       12.861  -1.705  -0.202  0.00  0.00    +0.120 C 
ATOM     30  C   LIG    1       14.390  -1.489  -0.128  0.00  0.00    +0.100 C 
ATOM     31  N   LIG    1       15.036  -1.825  -1.388  0.00  0.00    -0.313 NA
ATOM     32  H   LIG    1       16.032  -1.668  -1.313  0.00  0.00    +0.122 HD
ATOM     33  C   LIG    1       14.480  -0.978  -2.432  0.00  0.00    +0.100 C 
ATOM     34  C   LIG    1       12.955  -1.183  -2.572  0.00  0.00    +0.120 C 
ENDBRANCH  25  28
ENDBRANCH  20  22
ENDBRANCH   5  20
TORSDOF 5
