REMARK  Name = DB11785
REMARK                            x       y       z     vdW  Elec       q    Type
REMARK                         _______ _______ _______ _____ _____    ______ ____
ROOT
ATOM      1  O   LIG    1        2.016  -1.442  -0.086  0.00  0.00    -0.461 OA
ENDROOT
BRANCH   1   2
ATOM      2  C   LIG    1        3.424  -1.661  -0.170  0.00  0.00    +0.174 C 
ATOM      3  C   LIG    1        3.680  -3.178   0.075  0.00  0.00    +0.029 C 
ATOM      4  C   LIG    1        3.612  -4.064  -1.198  0.00  0.00    -0.063 C 
ATOM      5  N   LIG    1        4.642  -3.486  -2.184  0.00  0.00    +0.383 N 
ATOM      6  H   LIG    1        5.454  -3.178  -1.668  0.00  0.00    -0.081 HD
ATOM      7  C   LIG    1        5.117  -4.465  -3.277  0.00  0.00    -0.095 C 
ATOM      8  C   LIG    1        3.874  -2.249  -2.686  0.00  0.00    -0.036 C 
ATOM      9  C   LIG    1        2.440  -2.774  -2.945  0.00  0.00    +0.100 C 
ATOM     10  C   LIG    1        2.280  -3.959  -1.970  0.00  0.00    +0.014 C 
ATOM     11  C   LIG    1        3.971  -1.189  -1.555  0.00  0.00    +0.032 C 
BRANCH   9  12
ATOM     12  O   LIG    1        2.253  -3.170  -4.291  0.00  0.00    -0.393 OA
ATOM     13  H   LIG    1        2.332  -2.396  -4.854  0.00  0.00    +0.210 HD
ENDBRANCH   9  12
ENDBRANCH   1   2
BRANCH   1  14
ATOM     14  C   LIG    1        1.500  -0.228   0.210  0.00  0.00    +0.317 C 
ATOM     15  O   LIG    1        2.150   0.791   0.457  0.00  0.00    -0.250 OA
BRANCH  14  16
ATOM     16  C   LIG    1       -0.041  -0.231   0.176  0.00  0.00    +0.153 C 
BRANCH  16  20
ATOM     17  C   LIG    1       -1.445  -1.260   4.129  0.00  0.00    +0.000 A 
ATOM     18  C   LIG    1       -1.172   0.072   3.830  0.00  0.00    +0.000 A 
ATOM     19  C   LIG    1       -0.720   0.417   2.559  0.00  0.00    +0.004 A 
ATOM     20  C   LIG    1       -0.544  -0.573   1.583  0.00  0.00    -0.032 A 
ATOM     21  C   LIG    1       -0.817  -1.909   1.897  0.00  0.00    +0.004 A 
ATOM     22  C   LIG    1       -1.268  -2.253   3.168  0.00  0.00    +0.000 A 
ENDBRANCH  16  20
BRANCH  16  23
ATOM     23  C   LIG    1       -0.650   1.071  -0.410  0.00  0.00    +0.175 C 
BRANCH  23  24
ATOM     24  O   LIG    1       -0.335   1.211  -1.782  0.00  0.00    -0.394 OA
ATOM     25  H   LIG    1       -0.733   2.024  -2.104  0.00  0.00    +0.209 HD
ENDBRANCH  23  24
ENDBRANCH  16  23
ENDBRANCH  14  16
ENDBRANCH   1  14
TORSDOF 7
