REMARK  Name = DB11666
REMARK                            x       y       z     vdW  Elec       q    Type
REMARK                         _______ _______ _______ _____ _____    ______ ____
ROOT
ATOM      1  C   LIG    1       -2.269  -1.288  -0.092  0.00  0.00    +0.220 A 
ATOM      2  N   LIG    1       -0.913  -1.281  -0.209  0.00  0.00    -0.214 NA
ATOM      3  C   LIG    1       -0.283  -0.078  -0.184  0.00  0.00    +0.080 A 
ATOM      4  C   LIG    1       -0.995   1.119  -0.059  0.00  0.00    +0.072 A 
ATOM      5  C   LIG    1       -2.395   1.054   0.045  0.00  0.00    +0.127 A 
ATOM      6  N   LIG    1       -3.019  -0.160   0.062  0.00  0.00    -0.199 NA
ENDROOT
BRANCH   1  11
ATOM      7  C   LIG    1       -4.989  -3.971   0.246  0.00  0.00    +0.179 C 
ATOM      8  O   LIG    1       -4.310  -5.046  -0.381  0.00  0.00    -0.377 OA
ATOM      9  C   LIG    1       -2.937  -5.064  -0.026  0.00  0.00    +0.179 C 
ATOM     10  C   LIG    1       -2.250  -3.765  -0.494  0.00  0.00    +0.136 C 
ATOM     11  N   LIG    1       -2.922  -2.525  -0.050  0.00  0.00    -0.295 N 
ATOM     12  C   LIG    1       -4.389  -2.625  -0.209  0.00  0.00    +0.136 C 
ENDBRANCH   1  11
BRANCH   3  13
ATOM     13  C   LIG    1        1.200  -0.118  -0.307  0.00  0.00    +0.030 A 
ATOM     14  C   LIG    1        1.767  -0.682  -1.458  0.00  0.00    +0.123 A 
ATOM     15  N   LIG    1        3.100  -0.747  -1.691  0.00  0.00    -0.240 NA
ATOM     16  C   LIG    1        3.931  -0.239  -0.752  0.00  0.00    +0.117 A 
ATOM     17  C   LIG    1        3.465   0.335   0.430  0.00  0.00    +0.056 A 
ATOM     18  C   LIG    1        2.083   0.401   0.671  0.00  0.00    +0.069 A 
BRANCH  18  19
ATOM     19  C   LIG    1        1.590   0.980   2.007  0.00  0.00    +0.418 C 
ATOM     20  F   LIG    1        0.585   0.263   2.511  0.00  0.00    -0.166 F 
ATOM     21  F   LIG    1        1.176   2.233   1.823  0.00  0.00    -0.166 F 
ATOM     22  F   LIG    1        2.555   1.001   2.929  0.00  0.00    -0.166 F 
ENDBRANCH  18  19
BRANCH  16  23
ATOM     23  N   LIG    1        5.299  -0.312  -1.002  0.00  0.00    -0.343 N 
ATOM     24  H   LIG    1        5.622  -0.734  -1.862  0.00  0.00    +0.144 HD
ATOM     25  H   LIG    1        5.952   0.052  -0.323  0.00  0.00    +0.144 HD
ENDBRANCH  16  23
ENDBRANCH   3  13
BRANCH   5  26
ATOM     26  N   LIG    1       -3.190   2.188   0.257  0.00  0.00    -0.311 N 
ATOM     27  C   LIG    1       -4.668   2.107   0.256  0.00  0.00    +0.134 C 
ATOM     28  C   LIG    1       -5.394   3.334   0.842  0.00  0.00    +0.178 C 
ATOM     29  O   LIG    1       -4.907   4.521   0.242  0.00  0.00    -0.377 OA
ATOM     30  C   LIG    1       -3.531   4.702   0.525  0.00  0.00    +0.178 C 
ATOM     31  C   LIG    1       -2.702   3.545  -0.069  0.00  0.00    +0.134 C 
ENDBRANCH   5  26
TORSDOF 5
