REMARK  Name = DB11885
REMARK                            x       y       z     vdW  Elec       q    Type
REMARK                         _______ _______ _______ _____ _____    ______ ____
ROOT
ATOM      1  C   LIG    1       -4.068   0.076  -0.769  0.00  0.00    +0.139 A 
ATOM      2  C   LIG    1       -2.664   0.042  -0.520  0.00  0.00    +0.046 A 
ATOM      3  C   LIG    1       -1.851   1.201  -0.533  0.00  0.00    +0.063 A 
ATOM      4  C   LIG    1       -0.470   1.121  -0.295  0.00  0.00    +0.162 A 
ATOM      5  C   LIG    1        0.124  -0.121  -0.042  0.00  0.00    +0.164 A 
ATOM      6  C   LIG    1       -0.664  -1.282  -0.018  0.00  0.00    +0.077 A 
ATOM      7  C   LIG    1       -2.055  -1.220  -0.254  0.00  0.00    +0.078 A 
ATOM      8  N   LIG    1       -2.772  -2.377  -0.219  0.00  0.00    -0.255 NA
ATOM      9  C   LIG    1       -4.106  -2.313  -0.444  0.00  0.00    +0.115 A 
ATOM     10  C   LIG    1       -4.782  -1.129  -0.714  0.00  0.00    +0.066 A 
ENDROOT
BRANCH   4  11
ATOM     11  O   LIG    1        0.368   2.223  -0.298  0.00  0.00    -0.491 OA
ATOM     12  C   LIG    1       -0.171   3.518  -0.543  0.00  0.00    +0.277 C 
ENDBRANCH   4  11
BRANCH   1  13
ATOM     13  O   LIG    1       -4.676   1.291  -1.018  0.00  0.00    -0.452 OA
BRANCH  13  21
ATOM     14  C   LIG    1      -11.636   2.237  -3.457  0.00  0.00    +0.063 C 
ATOM     15  C   LIG    1      -10.191   2.014  -3.081  0.00  0.00    +0.014 A 
ATOM     16  N   LIG    1       -9.270   1.633  -4.027  0.00  0.00    -0.358 N 
ATOM     17  H   LIG    1       -9.524   1.492  -4.994  0.00  0.00    +0.166 HD
ATOM     18  C   LIG    1       -8.017   1.488  -3.469  0.00  0.00    +0.050 A 
ATOM     19  C   LIG    1       -6.793   1.122  -4.037  0.00  0.00    +0.030 A 
ATOM     20  C   LIG    1       -5.691   1.067  -3.184  0.00  0.00    +0.051 A 
ATOM     21  C   LIG    1       -5.792   1.357  -1.821  0.00  0.00    +0.164 A 
ATOM     22  C   LIG    1       -7.018   1.724  -1.260  0.00  0.00    +0.174 A 
ATOM     23  F   LIG    1       -7.111   2.006   0.060  0.00  0.00    -0.201 F 
ATOM     24  C   LIG    1       -8.153   1.793  -2.084  0.00  0.00    +0.039 A 
ATOM     25  C   LIG    1       -9.533   2.122  -1.871  0.00  0.00    +0.033 A 
ENDBRANCH  13  21
ENDBRANCH   1  13
BRANCH   5  26
ATOM     26  O   LIG    1        1.490  -0.124   0.174  0.00  0.00    -0.490 OA
BRANCH  26  27
ATOM     27  C   LIG    1        2.176  -1.352   0.412  0.00  0.00    +0.216 C 
BRANCH  27  28
ATOM     28  C   LIG    1        3.699  -1.126   0.566  0.00  0.00    -0.036 C 
ATOM     29  C   LIG    1        4.187   0.142   1.235  0.00  0.00    -0.011 C 
ATOM     30  C   LIG    1        4.364  -0.044  -0.259  0.00  0.00    -0.011 C 
BRANCH  28  31
ATOM     31  N   LIG    1        4.476  -2.425   0.820  0.00  0.00    +0.384 N 
ATOM     32  H   LIG    1        4.154  -2.862   1.672  0.00  0.00    -0.089 HD
ATOM     33  H   LIG    1        4.338  -3.067   0.052  0.00  0.00    -0.089 HD
ATOM     34  H   LIG    1        5.463  -2.229   0.907  0.00  0.00    -0.089 HD
ENDBRANCH  28  31
ENDBRANCH  27  28
ENDBRANCH  26  27
ENDBRANCH   5  26
TORSDOF 7
