REMARK  Name = DB11226
REMARK                            x       y       z     vdW  Elec       q    Type
REMARK                         _______ _______ _______ _____ _____    ______ ____
ROOT
ATOM      1  C   LIG    1        3.994   1.069   2.303  0.00  0.00    +0.144 C 
ATOM      2  C   LIG    1        5.298   1.392   2.566  0.00  0.00    +0.014 C 
ENDROOT
BRANCH   2   3
ATOM      3  C   LIG    1        5.691   2.087   3.824  0.00  0.00    -0.016 A 
ATOM      4  C   LIG    1        5.335   1.563   5.072  0.00  0.00    +0.012 A 
ATOM      5  C   LIG    1        5.712   2.211   6.245  0.00  0.00    +0.046 A 
ATOM      6  C   LIG    1        6.458   3.398   6.189  0.00  0.00    +0.120 A 
ATOM      7  C   LIG    1        6.816   3.917   4.945  0.00  0.00    +0.046 A 
ATOM      8  C   LIG    1        6.439   3.269   3.772  0.00  0.00    +0.012 A 
BRANCH   6   9
ATOM      9  O   LIG    1        6.876   4.109   7.298  0.00  0.00    -0.495 OA
ATOM     10  C   LIG    1        6.546   3.628   8.597  0.00  0.00    +0.277 C 
ENDBRANCH   6   9
ENDBRANCH   2   3
BRANCH   2  11
ATOM     11  C   LIG    1        6.451   1.114   1.666  0.00  0.00    -0.016 A 
ATOM     12  C   LIG    1        7.497   0.292   2.101  0.00  0.00    +0.008 A 
ATOM     13  C   LIG    1        8.584   0.040   1.269  0.00  0.00    +0.001 A 
ATOM     14  C   LIG    1        8.631   0.615   0.002  0.00  0.00    +0.000 A 
ATOM     15  C   LIG    1        7.602   1.444  -0.439  0.00  0.00    +0.001 A 
ATOM     16  C   LIG    1        6.515   1.696   0.393  0.00  0.00    +0.008 A 
ENDBRANCH   2  11
BRANCH   1  17
ATOM     17  C   LIG    1        3.552   0.302   1.114  0.00  0.00    +0.350 C 
ATOM     18  O   LIG    1        4.300  -0.418   0.447  0.00  0.00    -0.244 OA
BRANCH  17  19
ATOM     19  O   LIG    1        2.229   0.447   0.848  0.00  0.00    -0.460 OA
BRANCH  19  20
ATOM     20  C   LIG    1        1.618  -0.220  -0.252  0.00  0.00    +0.236 C 
BRANCH  20  21
ATOM     21  C   LIG    1        0.099   0.069  -0.302  0.00  0.00    +0.026 C 
BRANCH  21  22
ATOM     22  C   LIG    1       -0.183   1.590  -0.435  0.00  0.00    +0.003 C 
ATOM     23  C   LIG    1       -1.658   1.996  -0.280  0.00  0.00    +0.004 C 
ENDBRANCH  21  22
BRANCH  21  24
ATOM     24  C   LIG    1       -0.604  -0.751  -1.415  0.00  0.00    +0.007 C 
BRANCH  24  25
ATOM     25  C   LIG    1       -0.465  -2.285  -1.284  0.00  0.00    +0.000 C 
BRANCH  25  27
ATOM     26  C   LIG    1       -1.027  -2.876  -3.737  0.00  0.00    +0.004 C 
ATOM     27  C   LIG    1       -1.359  -3.085  -2.251  0.00  0.00    -0.003 C 
ENDBRANCH  25  27
ENDBRANCH  24  25
ENDBRANCH  21  24
ENDBRANCH  20  21
ENDBRANCH  19  20
ENDBRANCH  17  19
ENDBRANCH   1  17
BRANCH   1  28
ATOM     28  C   LIG    1        2.940   1.456   3.197  0.00  0.00    +0.107 C 
ATOM     29  N   LIG    1        2.079   1.774   3.903  0.00  0.00    -0.191 NA
ENDBRANCH   1  28
TORSDOF 12
