REMARK  Name = DB11688
REMARK                            x       y       z     vdW  Elec       q    Type
REMARK                         _______ _______ _______ _____ _____    ______ ____
ROOT
ATOM      1  C   LIG    1       -0.795  -1.109  -0.208  0.00  0.00    +0.134 C 
ATOM      2  N   LIG    1       -0.012   0.069   0.190  0.00  0.00    -0.278 N 
ATOM      3  C   LIG    1        1.243  -0.092   0.711  0.00  0.00    +0.327 C 
ATOM      4  N   LIG    1        1.916   1.029   1.050  0.00  0.00    -0.140 N 
ATOM      5  O   LIG    1        1.776  -1.194   0.858  0.00  0.00    -0.251 OA
ENDROOT
BRANCH   4   6
ATOM      6  N   LIG    1        1.612   1.570   2.282  0.00  0.00    +0.053 NA
ATOM      7  O   LIG    1        2.237   2.565   2.588  0.00  0.00    -0.126 OA
ENDBRANCH   4   6
BRANCH   4   8
ATOM      8  C   LIG    1        2.977   1.541   0.161  0.00  0.00    +0.155 C 
BRANCH   8   9
ATOM      9  C   LIG    1        4.392   1.175   0.643  0.00  0.00    +0.130 C 
ATOM     10 CL   LIG    1        5.615   1.836  -0.471  0.00  0.00    -0.124 Cl
ENDBRANCH   8   9
ENDBRANCH   4   8
BRANCH   2  11
ATOM     11  C   LIG    1       -0.605   1.382  -0.154  0.00  0.00    +0.204 C 
BRANCH  11  12
ATOM     12  C   LIG    1       -0.299   1.824  -1.599  0.00  0.00    +0.228 C 
ATOM     13  N   LIG    1       -0.772   3.018  -1.958  0.00  0.00    -0.328 N 
ATOM     14  H   LIG    1       -0.603   3.367  -2.891  0.00  0.00    +0.145 HD
ATOM     15  H   LIG    1       -1.299   3.580  -1.306  0.00  0.00    +0.145 HD
ATOM     16  O   LIG    1        0.347   1.125  -2.378  0.00  0.00    -0.274 OA
ENDBRANCH  11  12
ENDBRANCH   2  11
TORSDOF 5
