REMARK  Name = DB11940
REMARK                            x       y       z     vdW  Elec       q    Type
REMARK                         _______ _______ _______ _____ _____    ______ ____
ROOT
ATOM      1  C   LIG    1       -2.745   0.021   0.000  0.00  0.00    +0.022 A 
ATOM      2  C   LIG    1       -1.985   1.187   0.000  0.00  0.00    +0.111 A 
ATOM      3  N   LIG    1       -0.629   1.180   0.000  0.00  0.00    -0.252 NA
ATOM      4  C   LIG    1        0.029  -0.018   0.000  0.00  0.00    +0.104 A 
ATOM      5  C   LIG    1       -0.681  -1.240   0.000  0.00  0.00    +0.052 A 
ATOM      6  C   LIG    1       -2.079  -1.204   0.000  0.00  0.00    +0.026 A 
ENDROOT
BRANCH   5   7
ATOM      7  N   LIG    1       -0.056  -2.492   0.000  0.00  0.00    -0.356 N 
ATOM      8  H   LIG    1       -0.620  -3.329   0.000  0.00  0.00    +0.142 HD
ATOM      9  H   LIG    1        0.953  -2.545   0.000  0.00  0.00    +0.142 HD
ENDBRANCH   5   7
BRANCH   4  10
ATOM     10  C   LIG    1        1.508   0.068   0.000  0.00  0.00    +0.160 C 
ATOM     11  N   LIG    1        2.170   1.158   0.000  0.00  0.00    -0.187 NA
BRANCH  11  12
ATOM     12  N   LIG    1        3.506   0.962   0.000  0.00  0.00    -0.219 N 
ATOM     13  H   LIG    1        3.807  -0.002   0.000  0.00  0.00    +0.176 HD
BRANCH  12  14
ATOM     14  C   LIG    1        4.429   1.966   0.000  0.00  0.00    +0.147 C 
ATOM     15  S   LIG    1        6.048   1.621   0.000  0.00  0.00    -0.017 S 
BRANCH  14  16
ATOM     16  N   LIG    1        4.003   3.254   0.000  0.00  0.00    -0.339 N 
ATOM     17  H   LIG    1        4.678   4.004   0.000  0.00  0.00    +0.144 HD
ATOM     18  H   LIG    1        3.013   3.454   0.000  0.00  0.00    +0.144 HD
ENDBRANCH  14  16
ENDBRANCH  12  14
ENDBRANCH  11  12
ENDBRANCH   4  10
TORSDOF 5
