REMARK  Name = DB11874
REMARK                            x       y       z     vdW  Elec       q    Type
REMARK                         _______ _______ _______ _____ _____    ______ ____
ROOT
ATOM      1  C   LIG    1        1.932  -1.263   0.132  0.00  0.00    +0.000 C 
ATOM      2  C   LIG    1        1.222  -0.248  -0.393  0.00  0.00    +0.000 C 
ENDROOT
BRANCH   2   3
ATOM      3  C   LIG    1       -0.229  -0.175  -0.308  0.00  0.00    +0.003 C 
ATOM      4  C   LIG    1       -1.026   0.767  -0.870  0.00  0.00    -0.050 C 
ATOM      5  C   LIG    1       -0.489   1.890  -1.750  0.00  0.00    +0.044 C 
BRANCH   4   6
ATOM      6  C   LIG    1       -2.473   0.703  -0.688  0.00  0.00    +0.003 C 
ATOM      7  C   LIG    1       -3.212  -0.424  -0.671  0.00  0.00    +0.001 C 
BRANCH   7   8
ATOM      8  C   LIG    1       -4.655  -0.413  -0.486  0.00  0.00    +0.010 C 
ATOM      9  C   LIG    1       -5.454  -1.504  -0.362  0.00  0.00    +0.034 C 
ATOM     10  C   LIG    1       -4.953  -2.952  -0.355  0.00  0.00    +0.051 C 
BRANCH   9  11
ATOM     11  C   LIG    1       -6.918  -1.365  -0.171  0.00  0.00    +0.337 C 
ATOM     12  O   LIG    1       -7.690  -2.316  -0.329  0.00  0.00    -0.245 OA
BRANCH  11  13
ATOM     13  O   LIG    1       -7.311  -0.102   0.228  0.00  0.00    -0.429 OA
BRANCH  13  14
ATOM     14  C   LIG    1       -8.680   0.192   0.415  0.00  0.00    +0.343 C 
ATOM     15  C   LIG    1       -9.454   0.234  -0.927  0.00  0.00    +0.214 C 
ATOM     16  C   LIG    1      -10.931   0.612  -0.659  0.00  0.00    +0.180 C 
ATOM     17  C   LIG    1      -11.542  -0.240   0.475  0.00  0.00    +0.177 C 
ATOM     18  C   LIG    1      -10.607  -0.262   1.713  0.00  0.00    +0.179 C 
ATOM     19  O   LIG    1       -9.296  -0.683   1.328  0.00  0.00    -0.331 OA
BRANCH  17  20
ATOM     20  O   LIG    1      -12.842   0.214   0.816  0.00  0.00    -0.386 OA
ATOM     21  H   LIG    1      -12.788   1.138   1.071  0.00  0.00    +0.210 HD
ENDBRANCH  17  20
BRANCH  16  22
ATOM     22  O   LIG    1      -11.706   0.524  -1.844  0.00  0.00    -0.386 OA
ATOM     23  H   LIG    1      -12.632   0.463  -1.598  0.00  0.00    +0.210 HD
ENDBRANCH  16  22
BRANCH  15  24
ATOM     24  O   LIG    1       -8.847   1.128  -1.845  0.00  0.00    -0.383 OA
ATOM     25  H   LIG    1       -9.176   2.013  -1.674  0.00  0.00    +0.210 HD
ENDBRANCH  15  24
BRANCH  18  26
ATOM     26  C   LIG    1      -11.088  -1.200   2.838  0.00  0.00    +0.197 C 
BRANCH  26  27
ATOM     27  O   LIG    1      -11.236  -2.523   2.334  0.00  0.00    -0.346 OA
BRANCH  27  28
ATOM     28  C   LIG    1      -11.578  -3.486   3.282  0.00  0.00    +0.282 C 
ATOM     29  C   LIG    1      -11.916  -4.775   2.516  0.00  0.00    +0.201 C 
ATOM     30  C   LIG    1      -12.196  -5.926   3.513  0.00  0.00    +0.179 C 
ATOM     31  C   LIG    1      -11.095  -6.038   4.594  0.00  0.00    +0.177 C 
ATOM     32  C   LIG    1      -10.767  -4.643   5.192  0.00  0.00    +0.178 C 
ATOM     33  O   LIG    1      -10.482  -3.730   4.127  0.00  0.00    -0.341 OA
BRANCH  31  34
ATOM     34  O   LIG    1      -11.475  -6.964   5.599  0.00  0.00    -0.386 OA
ATOM     35  H   LIG    1      -10.724  -7.107   6.181  0.00  0.00    +0.210 HD
ENDBRANCH  31  34
BRANCH  30  36
ATOM     36  O   LIG    1      -12.386  -7.156   2.833  0.00  0.00    -0.386 OA
ATOM     37  H   LIG    1      -11.574  -7.378   2.371  0.00  0.00    +0.210 HD
ENDBRANCH  30  36
BRANCH  29  38
ATOM     38  O   LIG    1      -13.009  -4.575   1.635  0.00  0.00    -0.384 OA
ATOM     39  H   LIG    1      -13.824  -4.689   2.130  0.00  0.00    +0.210 HD
ENDBRANCH  29  38
BRANCH  32  40
ATOM     40  C   LIG    1       -9.533  -4.626   6.122  0.00  0.00    +0.190 C 
BRANCH  40  41
ATOM     41  O   LIG    1       -9.785  -5.263   7.359  0.00  0.00    -0.392 OA
ATOM     42  H   LIG    1       -8.999  -5.189   7.906  0.00  0.00    +0.210 HD
ENDBRANCH  40  41
ENDBRANCH  32  40
ENDBRANCH  27  28
ENDBRANCH  26  27
ENDBRANCH  18  26
ENDBRANCH  13  14
ENDBRANCH  11  13
ENDBRANCH   9  11
ENDBRANCH   7   8
ENDBRANCH   4   6
ENDBRANCH   2   3
BRANCH   1  44
ATOM     43  C   LIG    1        4.182  -2.294   0.572  0.00  0.00    -0.050 C 
ATOM     44  C   LIG    1        3.384  -1.327   0.057  0.00  0.00    +0.003 C 
ATOM     45  C   LIG    1        3.648  -3.482   1.363  0.00  0.00    +0.044 C 
BRANCH  43  47
ATOM     46  C   LIG    1        6.348  -1.061   0.561  0.00  0.00    +0.001 C 
ATOM     47  C   LIG    1        5.630  -2.193   0.423  0.00  0.00    +0.003 C 
BRANCH  46  49
ATOM     48  C   LIG    1        8.589   0.072   0.530  0.00  0.00    +0.034 C 
ATOM     49  C   LIG    1        7.793  -1.021   0.401  0.00  0.00    +0.010 C 
ATOM     50  C   LIG    1        8.085   1.480   0.878  0.00  0.00    +0.051 C 
BRANCH  48  51
ATOM     51  C   LIG    1       10.054  -0.071   0.331  0.00  0.00    +0.337 C 
ATOM     52  O   LIG    1       10.591  -1.158   0.083  0.00  0.00    -0.245 OA
BRANCH  51  53
ATOM     53  O   LIG    1       10.741   1.112   0.454  0.00  0.00    -0.429 OA
BRANCH  53  58
ATOM     54  C   LIG    1       14.160   0.291   1.179  0.00  0.00    +0.179 C 
ATOM     55  C   LIG    1       14.839   1.681   1.123  0.00  0.00    +0.177 C 
ATOM     56  C   LIG    1       14.169   2.563   0.044  0.00  0.00    +0.180 C 
ATOM     57  C   LIG    1       12.623   2.537   0.153  0.00  0.00    +0.214 C 
ATOM     58  C   LIG    1       12.132   1.082   0.268  0.00  0.00    +0.343 C 
ATOM     59  O   LIG    1       12.756   0.479   1.373  0.00  0.00    -0.331 OA
BRANCH  57  60
ATOM     60  O   LIG    1       12.025   3.204  -0.946  0.00  0.00    -0.383 OA
ATOM     61  H   LIG    1       12.537   3.995  -1.131  0.00  0.00    +0.210 HD
ENDBRANCH  57  60
BRANCH  56  62
ATOM     62  O   LIG    1       14.661   3.893   0.082  0.00  0.00    -0.386 OA
ATOM     63  H   LIG    1       15.604   3.860   0.264  0.00  0.00    +0.210 HD
ENDBRANCH  56  62
BRANCH  55  64
ATOM     64  O   LIG    1       16.235   1.570   0.896  0.00  0.00    -0.386 OA
ATOM     65  H   LIG    1       16.644   1.188   1.676  0.00  0.00    +0.210 HD
ENDBRANCH  55  64
BRANCH  54  66
ATOM     66  C   LIG    1       14.671  -0.596   2.329  0.00  0.00    +0.197 C 
BRANCH  66  67
ATOM     67  O   LIG    1       14.006  -1.852   2.255  0.00  0.00    -0.346 OA
BRANCH  67  73
ATOM     68  O   LIG    1       15.586  -3.174   3.263  0.00  0.00    -0.341 OA
ATOM     69  C   LIG    1       15.948  -4.002   4.375  0.00  0.00    +0.178 C 
ATOM     70  C   LIG    1       15.115  -5.308   4.315  0.00  0.00    +0.177 C 
ATOM     71  C   LIG    1       13.606  -4.984   4.231  0.00  0.00    +0.179 C 
ATOM     72  C   LIG    1       13.311  -3.922   3.143  0.00  0.00    +0.201 C 
ATOM     73  C   LIG    1       14.256  -2.723   3.315  0.00  0.00    +0.282 C 
BRANCH  72  74
ATOM     74  O   LIG    1       11.954  -3.513   3.179  0.00  0.00    -0.384 OA
ATOM     75  H   LIG    1       11.794  -2.929   2.433  0.00  0.00    +0.210 HD
ENDBRANCH  72  74
BRANCH  71  76
ATOM     76  O   LIG    1       12.841  -6.160   4.023  0.00  0.00    -0.386 OA
ATOM     77  H   LIG    1       11.965  -5.900   3.726  0.00  0.00    +0.210 HD
ENDBRANCH  71  76
BRANCH  70  78
ATOM     78  O   LIG    1       15.394  -6.156   5.417  0.00  0.00    -0.386 OA
ATOM     79  H   LIG    1       14.918  -6.980   5.290  0.00  0.00    +0.210 HD
ENDBRANCH  70  78
BRANCH  69  80
ATOM     80  C   LIG    1       17.469  -4.259   4.308  0.00  0.00    +0.190 C 
BRANCH  80  81
ATOM     81  O   LIG    1       18.192  -3.058   4.492  0.00  0.00    -0.392 OA
ATOM     82  H   LIG    1       19.131  -3.258   4.449  0.00  0.00    +0.210 HD
ENDBRANCH  80  81
ENDBRANCH  69  80
ENDBRANCH  67  73
ENDBRANCH  66  67
ENDBRANCH  54  66
ENDBRANCH  53  58
ENDBRANCH  51  53
ENDBRANCH  48  51
ENDBRANCH  46  49
ENDBRANCH  43  47
ENDBRANCH   1  44
TORSDOF 34
