REMARK  Name = DB11978
REMARK                            x       y       z     vdW  Elec       q    Type
REMARK                         _______ _______ _______ _____ _____    ______ ____
ROOT
ATOM      1  C   LIG    1        1.319  -0.069   0.033  0.00  0.00    +0.078 C 
ATOM      2  C   LIG    1        1.798  -1.467  -0.390  0.00  0.00    +0.038 C 
ATOM      3  C   LIG    1        3.330  -1.585  -0.452  0.00  0.00    +0.086 C 
ATOM      4  N   LIG    1        3.957  -1.177   0.808  0.00  0.00    -0.296 NA
ATOM      5  C   LIG    1        5.385  -1.491   0.819  0.00  0.00    +0.105 C 
ATOM      6  C   LIG    1        3.618   0.181   1.286  0.00  0.00    +0.124 C 
ATOM      7  C   LIG    1        2.087   0.451   1.272  0.00  0.00    +0.049 C 
ENDROOT
BRANCH   6   8
ATOM      8  C   LIG    1        4.418   1.257   0.546  0.00  0.00    +0.126 A 
ATOM      9  N   LIG    1        4.222   1.631  -0.697  0.00  0.00    -0.231 NA
ATOM     10  C   LIG    1        5.161   2.602  -0.925  0.00  0.00    +0.089 A 
ATOM     11  C   LIG    1        5.401   3.347  -2.088  0.00  0.00    +0.030 A 
ATOM     12  C   LIG    1        6.431   4.289  -2.065  0.00  0.00    +0.002 A 
ATOM     13  C   LIG    1        7.205   4.489  -0.920  0.00  0.00    +0.002 A 
ATOM     14  C   LIG    1        6.992   3.762   0.254  0.00  0.00    +0.028 A 
ATOM     15  C   LIG    1        5.959   2.821   0.227  0.00  0.00    +0.066 A 
ATOM     16  N   LIG    1        5.450   1.938   1.150  0.00  0.00    -0.341 N 
ATOM     17  H   LIG    1        5.741   1.778   2.104  0.00  0.00    +0.167 HD
ENDBRANCH   6   8
BRANCH   1  18
ATOM     18  N   LIG    1       -0.139   0.058   0.097  0.00  0.00    -0.296 N 
ATOM     19  H   LIG    1       -0.645  -0.791   0.301  0.00  0.00    +0.151 HD
ATOM     20  C   LIG    1       -0.827   1.211   0.049  0.00  0.00    +0.304 C 
ATOM     21  N   LIG    1       -2.150   0.980   0.172  0.00  0.00    -0.269 N 
ATOM     22  H   LIG    1       -2.419   0.028   0.370  0.00  0.00    +0.156 HD
ATOM     23  O   LIG    1       -0.297   2.313  -0.096  0.00  0.00    -0.253 OA
BRANCH  21  24
ATOM     24  C   LIG    1       -3.229   1.882   0.104  0.00  0.00    +0.035 A 
ATOM     25  C   LIG    1       -3.127   3.223  -0.302  0.00  0.00    +0.024 A 
ATOM     26  C   LIG    1       -4.263   4.028  -0.345  0.00  0.00    +0.020 A 
ATOM     27  C   LIG    1       -5.505   3.501   0.015  0.00  0.00    +0.052 A 
ATOM     28  C   LIG    1       -5.614   2.168   0.413  0.00  0.00    +0.020 A 
ATOM     29  C   LIG    1       -4.479   1.363   0.454  0.00  0.00    +0.024 A 
BRANCH  27  30
ATOM     30  C   LIG    1       -6.690   4.345  -0.028  0.00  0.00    +0.099 C 
ATOM     31  N   LIG    1       -7.633   5.016  -0.062  0.00  0.00    -0.191 NA
ENDBRANCH  27  30
ENDBRANCH  21  24
ENDBRANCH   1  18
TORSDOF 4
