REMARK  Name = DB11622
REMARK                            x       y       z     vdW  Elec       q    Type
REMARK                         _______ _______ _______ _____ _____    ______ ____
ROOT
ATOM      1  C   LIG    1        8.758  -3.055  -0.299  0.00  0.00    +0.015 C 
ATOM      2  C   LIG    1        8.443  -4.503   0.116  0.00  0.00    +0.075 C 
ATOM      3  C   LIG    1        8.659  -5.447  -1.073  0.00  0.00    +0.134 C 
ATOM      4  O   LIG    1        9.343  -6.465  -0.992  0.00  0.00    -0.297 OA
ATOM      5  C   LIG    1        7.995  -5.002  -2.386  0.00  0.00    +0.078 C 
ATOM      6  C   LIG    1        8.152  -3.483  -2.709  0.00  0.00    +0.009 C 
ATOM      7  C   LIG    1        7.295  -3.107  -3.950  0.00  0.00    +0.079 C 
ATOM      8  C   LIG    1        5.799  -2.927  -3.638  0.00  0.00    +0.137 C 
ATOM      9  O   LIG    1        4.934  -3.475  -4.320  0.00  0.00    -0.297 OA
ATOM     10  C   LIG    1        5.495  -2.046  -2.398  0.00  0.00    +0.063 C 
ATOM     11  C   LIG    1        3.985  -1.972  -2.014  0.00  0.00    +0.013 C 
ATOM     12  C   LIG    1        3.717  -1.044  -0.793  0.00  0.00    +0.033 C 
ATOM     13  C   LIG    1        4.289   0.401  -0.991  0.00  0.00    +0.019 C 
ATOM     14  C   LIG    1        4.460  -1.701   0.401  0.00  0.00    +0.140 C 
ATOM     15  O   LIG    1        3.897  -2.113   1.414  0.00  0.00    -0.297 OA
ATOM     16  C   LIG    1        5.974  -1.883   0.188  0.00  0.00    +0.079 C 
ATOM     17  C   LIG    1        2.148  -1.029  -0.754  0.00  0.00    +0.005 C 
ATOM     18  C   LIG    1        1.758  -1.021  -2.258  0.00  0.00    +0.005 C 
ATOM     19  C   LIG    1        2.974  -1.497  -3.066  0.00  0.00    +0.005 C 
ATOM     20  C   LIG    1        6.343  -2.545  -1.177  0.00  0.00    +0.013 C 
ATOM     21  C   LIG    1        7.884  -2.542  -1.483  0.00  0.00    -0.024 C 
ATOM     22  C   LIG    1        8.384  -1.106  -1.817  0.00  0.00    +0.012 C 
ENDROOT
BRANCH  17  23
ATOM     23  C   LIG    1        1.416   0.093   0.067  0.00  0.00    -0.010 C 
ATOM     24  C   LIG    1        1.854   0.168   1.549  0.00  0.00    +0.008 C 
BRANCH  23  25
ATOM     25  C   LIG    1       -0.130  -0.050  -0.031  0.00  0.00    +0.015 C 
BRANCH  25  26
ATOM     26  C   LIG    1       -0.935   1.136   0.556  0.00  0.00    +0.121 C 
BRANCH  26  27
ATOM     27  C   LIG    1       -2.438   1.088   0.249  0.00  0.00    +0.305 C 
ATOM     28  O   LIG    1       -2.995   0.170  -0.352  0.00  0.00    -0.251 OA
BRANCH  27  29
ATOM     29  O   LIG    1       -3.073   2.193   0.735  0.00  0.00    -0.481 OA
ATOM     30  H   LIG    1       -4.015   2.180   0.554  0.00  0.00    +0.295 HD
ENDBRANCH  27  29
ENDBRANCH  26  27
ENDBRANCH  25  26
ENDBRANCH  23  25
ENDBRANCH  17  23
TORSDOF 5
