REMARK  Name = DB11181
REMARK                            x       y       z     vdW  Elec       q    Type
REMARK                         _______ _______ _______ _____ _____    ______ ____
ROOT
ATOM      1  C   LIG    1       -0.081   0.040  -0.318  0.00  0.00    +0.341 C 
ATOM      2  O   LIG    1       -0.720   0.873  -0.964  0.00  0.00    -0.248 OA
ENDROOT
BRANCH   1   3
ATOM      3  O   LIG    1       -0.610  -1.050   0.299  0.00  0.00    -0.459 OA
BRANCH   3   9
ATOM      4  C   LIG    1       -2.409  -3.533  -1.040  0.00  0.00    +0.060 C 
ATOM      5  C   LIG    1       -0.989  -4.083  -0.798  0.00  0.00    +0.020 C 
ATOM      6  C   LIG    1       -0.899  -4.210   0.727  0.00  0.00    +0.020 C 
ATOM      7  C   LIG    1       -2.283  -3.739   1.222  0.00  0.00    +0.060 C 
ATOM      8  C   LIG    1       -2.333  -2.214   1.519  0.00  0.00    +0.063 C 
ATOM      9  C   LIG    1       -2.014  -1.310   0.292  0.00  0.00    +0.179 C 
ATOM     10  C   LIG    1       -2.459  -1.979  -1.047  0.00  0.00    +0.063 C 
ATOM     11  N   LIG    1       -3.202  -3.978   0.107  0.00  0.00    -0.299 NA
ATOM     12  C   LIG    1       -3.627  -5.374   0.005  0.00  0.00    +0.105 C 
ENDBRANCH   3   9
ENDBRANCH   1   3
BRANCH   1  13
ATOM     13  C   LIG    1        1.451   0.158  -0.189  0.00  0.00    +0.253 C 
BRANCH  13  14
ATOM     14  C   LIG    1        2.114  -0.602  -1.338  0.00  0.00    -0.008 A 
ATOM     15  C   LIG    1        2.284  -1.991  -1.282  0.00  0.00    +0.007 A 
ATOM     16  C   LIG    1        2.889  -2.665  -2.339  0.00  0.00    +0.000 A 
ATOM     17  C   LIG    1        3.326  -1.950  -3.452  0.00  0.00    +0.000 A 
ATOM     18  C   LIG    1        3.163  -0.568  -3.517  0.00  0.00    +0.000 A 
ATOM     19  C   LIG    1        2.558   0.106  -2.459  0.00  0.00    +0.007 A 
ENDBRANCH  13  14
BRANCH  13  20
ATOM     20  O   LIG    1        1.870  -0.275   1.097  0.00  0.00    -0.376 OA
ATOM     21  H   LIG    1        2.747   0.076   1.266  0.00  0.00    +0.211 HD
ENDBRANCH  13  20
ENDBRANCH   1  13
TORSDOF 5
