REMARK  Name = DB11774
REMARK                            x       y       z     vdW  Elec       q    Type
REMARK                         _______ _______ _______ _____ _____    ______ ____
ROOT
ATOM      1  C   LIG    1       -1.952  -3.912  -1.768  0.00  0.00    +0.034 C 
ATOM      2  C   LIG    1       -2.072  -3.616  -0.259  0.00  0.00    +0.122 C 
ATOM      3  N   LIG    1       -2.845  -2.376  -0.061  0.00  0.00    -0.337 N 
ATOM      4  C   LIG    1       -2.104  -1.171  -0.027  0.00  0.00    +0.096 A 
ATOM      5  C   LIG    1       -0.698  -1.187  -0.019  0.00  0.00    +0.152 A 
ATOM      6  O   LIG    1        0.020  -2.366  -0.072  0.00  0.00    -0.487 OA
ATOM      7  C   LIG    1        0.024   0.013   0.011  0.00  0.00    +0.051 A 
ATOM      8  C   LIG    1       -0.678   1.222   0.074  0.00  0.00    +0.133 A 
ATOM      9  F   LIG    1       -0.011   2.398   0.135  0.00  0.00    -0.205 F 
ATOM     10  C   LIG    1       -2.073   1.234   0.077  0.00  0.00    +0.052 A 
ATOM     11  C   LIG    1       -2.814   0.043   0.021  0.00  0.00    +0.052 A 
ATOM     12  C   LIG    1       -4.328   0.087   0.007  0.00  0.00    +0.204 A 
ATOM     13  O   LIG    1       -4.914   1.171   0.048  0.00  0.00    -0.286 OA
ATOM     14  C   LIG    1       -5.016  -1.247  -0.063  0.00  0.00    +0.122 A 
ATOM     15  C   LIG    1       -4.225  -2.362  -0.087  0.00  0.00    +0.105 A 
ATOM     16  C   LIG    1       -0.694  -3.492   0.435  0.00  0.00    +0.254 C 
ENDROOT
BRANCH   7  17
ATOM     17  C   LIG    1        1.551   0.014   0.001  0.00  0.00    +0.048 C 
ATOM     18  C   LIG    1        2.277   0.838  -1.051  0.00  0.00    +0.029 C 
ATOM     19  C   LIG    1        2.275  -0.659  -1.154  0.00  0.00    +0.029 C 
BRANCH  17  20
ATOM     20  N   LIG    1        2.205  -0.076   1.291  0.00  0.00    -0.321 NA
ATOM     21  H   LIG    1        1.934  -0.928   1.761  0.00  0.00    +0.119 HD
ATOM     22  H   LIG    1        1.931   0.700   1.876  0.00  0.00    +0.119 HD
ENDBRANCH  17  20
ENDBRANCH   7  17
BRANCH  14  23
ATOM     23  C   LIG    1       -6.598  -1.481  -0.105  0.00  0.00    +0.342 C 
ATOM     24  O   LIG    1       -7.303  -0.447  -0.066  0.00  0.00    -0.245 OA
BRANCH  23  25
ATOM     25  O   LIG    1       -7.014  -2.663  -0.175  0.00  0.00    -0.477 OA
ATOM     26  H   LIG    1       -6.404  -3.374  -0.199  0.00  0.00    +0.295 HD
ENDBRANCH  23  25
ENDBRANCH  14  23
TORSDOF 4
