REMARK  Name = DB11677
REMARK                            x       y       z     vdW  Elec       q    Type
REMARK                         _______ _______ _______ _____ _____    ______ ____
ROOT
ATOM      1  C   LIG    1        1.312  -0.085  -0.339  0.00  0.00    +0.251 C 
ENDROOT
BRANCH   1   2
ATOM      2  C   LIG    1       -0.157  -0.291   0.072  0.00  0.00    +0.280 C 
BRANCH   2   3
ATOM      3  O   LIG    1       -0.809   0.971   0.087  0.00  0.00    -0.461 OA
BRANCH   3   4
ATOM      4  C   LIG    1       -2.151   1.071   0.067  0.00  0.00    +0.307 C 
ATOM      5  O   LIG    1       -2.953   0.136   0.032  0.00  0.00    -0.251 OA
BRANCH   4   6
ATOM      6  C   LIG    1       -2.624   2.528   0.091  0.00  0.00    +0.120 C 
BRANCH   6   7
ATOM      7  C   LIG    1       -2.534   3.252  -1.274  0.00  0.00    +0.011 C 
BRANCH   7   8
ATOM      8  C   LIG    1       -1.126   3.376  -1.902  0.00  0.00    +0.001 C 
BRANCH   8   9
ATOM      9  C   LIG    1       -0.100   4.119  -1.023  0.00  0.00    -0.000 C 
BRANCH   9  11
ATOM     10  C   LIG    1        2.314   4.945  -0.800  0.00  0.00    +0.004 C 
ATOM     11  C   LIG    1        1.291   4.209  -1.675  0.00  0.00    -0.003 C 
ENDBRANCH   9  11
ENDBRANCH   8   9
ENDBRANCH   7   8
ENDBRANCH   6   7
ENDBRANCH   4   6
ENDBRANCH   3   4
ENDBRANCH   2   3
ENDBRANCH   1   2
BRANCH   1  12
ATOM     12  O   LIG    1        1.981   0.636   0.697  0.00  0.00    -0.454 OA
BRANCH  12  13
ATOM     13  C   LIG    1        3.122   1.331   0.464  0.00  0.00    +0.308 C 
ATOM     14  O   LIG    1        3.673   1.468  -0.629  0.00  0.00    -0.251 OA
BRANCH  13  15
ATOM     15  C   LIG    1        3.714   1.968   1.728  0.00  0.00    +0.120 C 
BRANCH  15  16
ATOM     16  C   LIG    1        3.673   1.086   3.000  0.00  0.00    +0.011 C 
BRANCH  16  17
ATOM     17  C   LIG    1        4.373  -0.287   2.891  0.00  0.00    +0.001 C 
BRANCH  17  18
ATOM     18  C   LIG    1        5.884  -0.212   2.606  0.00  0.00    -0.000 C 
BRANCH  18  19
ATOM     19  C   LIG    1        6.537  -1.602   2.506  0.00  0.00    -0.003 C 
ATOM     20  C   LIG    1        8.044  -1.536   2.225  0.00  0.00    +0.004 C 
ENDBRANCH  18  19
ENDBRANCH  17  18
ENDBRANCH  16  17
ENDBRANCH  15  16
ENDBRANCH  13  15
ENDBRANCH  12  13
ENDBRANCH   1  12
BRANCH   1  21
ATOM     21  C   LIG    1        2.041  -1.416  -0.632  0.00  0.00    +0.280 C 
BRANCH  21  22
ATOM     22  O   LIG    1        1.940  -2.310   0.472  0.00  0.00    -0.461 OA
BRANCH  22  23
ATOM     23  C   LIG    1        2.616  -3.478   0.475  0.00  0.00    +0.307 C 
ATOM     24  O   LIG    1        3.349  -3.896  -0.423  0.00  0.00    -0.251 OA
BRANCH  23  25
ATOM     25  C   LIG    1        2.394  -4.285   1.756  0.00  0.00    +0.120 C 
BRANCH  25  26
ATOM     26  C   LIG    1        2.996  -3.607   3.001  0.00  0.00    +0.011 C 
BRANCH  26  27
ATOM     27  C   LIG    1        2.846  -4.452   4.276  0.00  0.00    +0.001 C 
BRANCH  27  28
ATOM     28  C   LIG    1        3.464  -3.775   5.512  0.00  0.00    -0.000 C 
BRANCH  28  29
ATOM     29  C   LIG    1        3.322  -4.617   6.792  0.00  0.00    -0.003 C 
ATOM     30  C   LIG    1        3.939  -3.942   8.024  0.00  0.00    +0.004 C 
ENDBRANCH  28  29
ENDBRANCH  27  28
ENDBRANCH  26  27
ENDBRANCH  25  26
ENDBRANCH  23  25
ENDBRANCH  22  23
ENDBRANCH  21  22
ENDBRANCH   1  21
TORSDOF 23
