REMARK  Name = DB11699
REMARK                            x       y       z     vdW  Elec       q    Type
REMARK                         _______ _______ _______ _____ _____    ______ ____
ROOT
ATOM      1  C   LIG    1        1.811   1.466  -0.000  0.00  0.00    +0.341 C 
ATOM      2  O   LIG    1        1.162   2.513   0.002  0.00  0.00    -0.245 OA
ENDROOT
BRANCH   1   3
ATOM      3  C   LIG    1        3.273   1.414  -0.001  0.00  0.00    +0.084 A 
ATOM      4  C   LIG    1        4.179   2.540  -0.001  0.00  0.00    +0.014 A 
ATOM      5  C   LIG    1        5.510   2.012  -0.001  0.00  0.00    +0.047 A 
ATOM      6  N   LIG    1        5.396   0.639  -0.001  0.00  0.00    -0.360 N 
ATOM      7  H   LIG    1        6.143  -0.040  -0.001  0.00  0.00    +0.165 HD
ATOM      8  C   LIG    1        6.644   2.832  -0.000  0.00  0.00    +0.026 A 
ATOM      9  C   LIG    1        6.431   4.210   0.000  0.00  0.00    +0.002 A 
ATOM     10  C   LIG    1        5.150   4.754   0.000  0.00  0.00    +0.001 A 
ATOM     11  C   LIG    1        4.020   3.938  -0.000  0.00  0.00    +0.011 A 
ATOM     12  C   LIG    1        4.074   0.280  -0.001  0.00  0.00    +0.098 A 
ENDBRANCH   1   3
BRANCH   1  13
ATOM     13  O   LIG    1        1.286   0.218  -0.002  0.00  0.00    -0.458 OA
BRANCH  13  18
ATOM     14  C   LIG    1       -1.590  -4.147   0.003  0.00  0.00    +0.105 C 
ATOM     15  N   LIG    1       -1.221  -2.731   0.003  0.00  0.00    -0.299 NA
ATOM     16  C   LIG    1       -0.383  -2.356  -1.138  0.00  0.00    +0.060 C 
ATOM     17  C   LIG    1       -0.491  -0.811  -1.287  0.00  0.00    +0.063 C 
ATOM     18  C   LIG    1       -0.122  -0.018   0.002  0.00  0.00    +0.180 C 
ATOM     19  C   LIG    1       -0.484  -0.813   1.291  0.00  0.00    +0.063 C 
ATOM     20  C   LIG    1        1.041  -2.826  -0.771  0.00  0.00    +0.020 C 
ATOM     21  C   LIG    1        1.046  -2.828   0.763  0.00  0.00    +0.020 C 
ATOM     22  C   LIG    1       -0.376  -2.357   1.139  0.00  0.00    +0.060 C 
ENDBRANCH  13  18
ENDBRANCH   1  13
TORSDOF 3
