REMARK  Name = DB11671
REMARK                            x       y       z     vdW  Elec       q    Type
REMARK                         _______ _______ _______ _____ _____    ______ ____
ROOT
ATOM      1  C   LIG    1        1.627  -0.274  -0.214  0.00  0.00    +0.145 C 
ENDROOT
BRANCH   1   2
ATOM      2  C   LIG    1        2.231  -0.938  -1.490  0.00  0.00    +0.135 A 
ATOM      3  N   LIG    1        3.360  -0.393  -2.135  0.00  0.00    -0.290 N 
ATOM      4  C   LIG    1        3.921  -0.873  -3.326  0.00  0.00    +0.264 A 
ATOM      5  O   LIG    1        4.899  -0.361  -3.878  0.00  0.00    -0.267 OA
ATOM      6  C   LIG    1        3.201  -2.052  -3.814  0.00  0.00    +0.095 A 
ATOM      7  C   LIG    1        3.404  -2.852  -4.957  0.00  0.00    +0.062 A 
ATOM      8  C   LIG    1        4.455  -2.717  -6.043  0.00  0.00    +0.067 C 
ATOM      9  N   LIG    1        2.577  -3.865  -5.135  0.00  0.00    -0.213 NA
ATOM     10  S   LIG    1        1.447  -3.919  -3.852  0.00  0.00    +0.032 S 
ATOM     11  C   LIG    1        2.129  -2.533  -3.087  0.00  0.00    +0.135 A 
ATOM     12  N   LIG    1        1.646  -1.998  -1.940  0.00  0.00    -0.223 NA
BRANCH   3  13
ATOM     13  C   LIG    1        4.115   0.742  -1.534  0.00  0.00    +0.161 C 
BRANCH  13  14
ATOM     14  C   LIG    1        3.939   2.131  -2.157  0.00  0.00    -0.028 A 
ATOM     15  C   LIG    1        4.787   3.154  -1.726  0.00  0.00    +0.005 A 
ATOM     16  C   LIG    1        4.673   4.434  -2.261  0.00  0.00    +0.000 A 
ATOM     17  C   LIG    1        3.706   4.692  -3.230  0.00  0.00    +0.000 A 
ATOM     18  C   LIG    1        2.856   3.680  -3.669  0.00  0.00    +0.000 A 
ATOM     19  C   LIG    1        2.972   2.400  -3.135  0.00  0.00    +0.005 A 
ENDBRANCH  13  14
ENDBRANCH   3  13
ENDBRANCH   1   2
BRANCH   1  21
ATOM     20  C   LIG    1       -0.859  -0.778  -0.091  0.00  0.00    +0.247 C 
ATOM     21  N   LIG    1        0.178   0.047  -0.442  0.00  0.00    -0.287 N 
ATOM     22  O   LIG    1       -0.716  -1.989   0.083  0.00  0.00    -0.270 OA
BRANCH  20  27
ATOM     23  C   LIG    1       -6.189   1.415   0.774  0.00  0.00    +0.044 C 
ATOM     24  C   LIG    1       -4.798   0.854   0.542  0.00  0.00    -0.050 A 
ATOM     25  C   LIG    1       -3.681   1.540   1.020  0.00  0.00    +0.004 A 
ATOM     26  C   LIG    1       -2.406   1.019   0.817  0.00  0.00    +0.013 A 
ATOM     27  C   LIG    1       -2.235  -0.188   0.126  0.00  0.00    +0.037 A 
ATOM     28  C   LIG    1       -3.364  -0.884  -0.324  0.00  0.00    +0.013 A 
ATOM     29  C   LIG    1       -4.639  -0.362  -0.123  0.00  0.00    +0.004 A 
ENDBRANCH  20  27
BRANCH  21  30
ATOM     30  C   LIG    1       -0.030   1.300  -1.213  0.00  0.00    +0.107 C 
BRANCH  30  31
ATOM     31  C   LIG    1       -0.900   1.214  -2.494  0.00  0.00    -0.001 C 
BRANCH  31  32
ATOM     32  C   LIG    1       -0.493   0.105  -3.481  0.00  0.00    -0.085 C 
BRANCH  32  33
ATOM     33  N   LIG    1       -1.387   0.154  -4.723  0.00  0.00    +0.378 N 
ATOM     34  H   LIG    1       -2.353   0.021  -4.462  0.00  0.00    -0.090 HD
ATOM     35  H   LIG    1       -1.293   1.047  -5.186  0.00  0.00    -0.090 HD
ATOM     36  H   LIG    1       -1.122  -0.576  -5.369  0.00  0.00    -0.090 HD
ENDBRANCH  32  33
ENDBRANCH  31  32
ENDBRANCH  30  31
ENDBRANCH  21  30
ENDBRANCH   1  21
BRANCH   1  37
ATOM     37  C   LIG    1        1.992  -1.053   1.107  0.00  0.00    +0.011 C 
ATOM     38  C   LIG    1        3.510  -1.274   1.309  0.00  0.00    +0.009 C 
ATOM     39  C   LIG    1        1.423  -0.364   2.368  0.00  0.00    +0.009 C 
ENDBRANCH   1  37
TORSDOF 10
