REMARK  Name = DB11758
REMARK                            x       y       z     vdW  Elec       q    Type
REMARK                         _______ _______ _______ _____ _____    ______ ____
ROOT
ATOM      1  C   LIG    1       -3.807  -2.905   0.577  0.00  0.00    +0.015 C 
ATOM      2  C   LIG    1       -4.650  -2.293   1.729  0.00  0.00    +0.042 C 
ATOM      3  C   LIG    1       -4.371  -0.869   2.248  0.00  0.00    +0.024 C 
ATOM      4  C   LIG    1       -4.846   0.256   1.301  0.00  0.00    +0.105 C 
ATOM      5  N   LIG    1       -4.277   0.203  -0.047  0.00  0.00    -0.329 N 
ATOM      6  C   LIG    1       -2.865   0.224   0.012  0.00  0.00    +0.037 A 
ATOM      7  C   LIG    1       -2.168   1.440   0.072  0.00  0.00    +0.024 A 
ATOM      8  C   LIG    1       -0.778   1.463   0.142  0.00  0.00    +0.010 A 
ATOM      9  C   LIG    1       -0.042   0.275   0.154  0.00  0.00    -0.017 A 
ATOM     10  C   LIG    1       -0.743  -0.936   0.103  0.00  0.00    +0.018 A 
ATOM     11  C   LIG    1       -2.140  -0.983   0.041  0.00  0.00    -0.003 A 
ATOM     12  C   LIG    1       -2.749  -2.329  -0.065  0.00  0.00    +0.018 C 
ENDROOT
BRANCH   9  13
ATOM     13  C   LIG    1        1.447   0.296   0.212  0.00  0.00    -0.018 A 
ATOM     14  C   LIG    1        2.118   1.194   1.050  0.00  0.00    +0.012 A 
ATOM     15  C   LIG    1        3.510   1.217   1.101  0.00  0.00    +0.046 A 
ATOM     16  C   LIG    1        4.260   0.336   0.309  0.00  0.00    +0.121 A 
ATOM     17  C   LIG    1        3.593  -0.560  -0.526  0.00  0.00    +0.046 A 
ATOM     18  C   LIG    1        2.203  -0.581  -0.575  0.00  0.00    +0.012 A 
BRANCH  16  19
ATOM     19  O   LIG    1        5.640   0.284   0.288  0.00  0.00    -0.490 OA
BRANCH  19  20
ATOM     20  C   LIG    1        6.388   1.180   1.108  0.00  0.00    +0.257 C 
BRANCH  20  21
ATOM     21  C   LIG    1        7.886   0.947   0.874  0.00  0.00    +0.200 C 
BRANCH  21  22
ATOM     22  O   LIG    1        8.197   1.203  -0.490  0.00  0.00    -0.376 OA
BRANCH  22  23
ATOM     23  C   LIG    1        9.563   0.990  -0.816  0.00  0.00    +0.160 C 
BRANCH  23  24
ATOM     24  C   LIG    1        9.769   1.308  -2.306  0.00  0.00    +0.028 C 
BRANCH  24  25
ATOM     25  C   LIG    1       11.195   1.036  -2.823  0.00  0.00    -0.001 C 
ATOM     26  C   LIG    1       12.277   1.932  -2.198  0.00  0.00    +0.004 C 
ENDBRANCH  24  25
ENDBRANCH  23  24
ENDBRANCH  22  23
ENDBRANCH  21  22
ENDBRANCH  20  21
ENDBRANCH  19  20
ENDBRANCH  16  19
ENDBRANCH   9  13
BRANCH   1  29
ATOM     27  N   LIG    1       -5.270  -4.798   0.790  0.00  0.00    -0.282 N 
ATOM     28  H   LIG    1       -5.666  -4.244   1.535  0.00  0.00    +0.155 HD
ATOM     29  C   LIG    1       -4.187  -4.270   0.168  0.00  0.00    +0.244 C 
ATOM     30  O   LIG    1       -3.552  -4.899  -0.684  0.00  0.00    -0.270 OA
BRANCH  27  34
ATOM     31  C   LIG    1       -7.177  -8.509   0.440  0.00  0.00    +0.039 A 
ATOM     32  C   LIG    1       -6.409  -8.062  -0.633  0.00  0.00    +0.019 A 
ATOM     33  C   LIG    1       -5.763  -6.831  -0.552  0.00  0.00    +0.024 A 
ATOM     34  C   LIG    1       -5.885  -6.051   0.610  0.00  0.00    +0.034 A 
ATOM     35  C   LIG    1       -6.687  -6.496   1.664  0.00  0.00    +0.024 A 
ATOM     36  C   LIG    1       -7.335  -7.725   1.581  0.00  0.00    +0.019 A 
BRANCH  31  37
ATOM     37  S   LIG    1       -7.990 -10.138   0.364  0.00  0.00    +0.060 S 
ATOM     38  O   LIG    1       -8.113 -10.491  -1.120  0.00  0.00    -0.252 OA
BRANCH  37  39
ATOM     39  C   LIG    1       -6.566 -11.127   1.035  0.00  0.00    +0.163 C 
BRANCH  39  40
ATOM     40  C   LIG    1       -6.219 -10.772   2.470  0.00  0.00    +0.051 A 
ATOM     41  C   LIG    1       -6.853 -11.084   3.668  0.00  0.00    +0.134 A 
ATOM     42  N   LIG    1       -6.251 -10.570   4.723  0.00  0.00    -0.244 NA
ATOM     43  C   LIG    1       -5.224  -9.931   4.226  0.00  0.00    +0.199 A 
ATOM     44  N   LIG    1       -5.137 -10.005   2.857  0.00  0.00    -0.333 N 
BRANCH  44  45
ATOM     45  C   LIG    1       -4.080  -9.416   2.036  0.00  0.00    +0.123 C 
BRANCH  45  46
ATOM     46  C   LIG    1       -2.803 -10.282   2.034  0.00  0.00    +0.018 C 
ATOM     47  C   LIG    1       -2.981 -11.694   1.451  0.00  0.00    +0.005 C 
ENDBRANCH  45  46
ENDBRANCH  44  45
ENDBRANCH  39  40
ENDBRANCH  37  39
ENDBRANCH  31  37
ENDBRANCH  27  34
ENDBRANCH   1  29
BRANCH   5  48
ATOM     48  C   LIG    1       -4.911   1.106  -1.018  0.00  0.00    +0.108 C 
BRANCH  48  49
ATOM     49  C   LIG    1       -4.475   0.904  -2.492  0.00  0.00    +0.000 C 
ATOM     50  C   LIG    1       -4.742  -0.527  -3.001  0.00  0.00    +0.009 C 
ATOM     51  C   LIG    1       -5.148   1.944  -3.405  0.00  0.00    +0.009 C 
ENDBRANCH  48  49
ENDBRANCH   5  48
TORSDOF 17
