REMARK  Name = DB11712
REMARK                            x       y       z     vdW  Elec       q    Type
REMARK                         _______ _______ _______ _____ _____    ______ ____
ROOT
ATOM      1  C   LIG    1        1.625   0.385  -0.180  0.00  0.00    +0.028 A 
ATOM      2  N   LIG    1        2.364   0.778  -1.306  0.00  0.00    -0.341 N 
ATOM      3  C   LIG    1        3.728   0.633  -1.058  0.00  0.00    +0.052 A 
ATOM      4  C   LIG    1        4.851   0.928  -1.849  0.00  0.00    +0.066 A 
ATOM      5  C   LIG    1        6.112   0.655  -1.318  0.00  0.00    +0.146 A 
ATOM      6  F   LIG    1        7.204   0.921  -2.074  0.00  0.00    -0.203 F 
ATOM      7  C   LIG    1        6.259   0.120  -0.034  0.00  0.00    +0.070 A 
ATOM      8  C   LIG    1        5.146  -0.181   0.750  0.00  0.00    +0.036 A 
ATOM      9  C   LIG    1        3.866   0.086   0.243  0.00  0.00    +0.002 A 
ATOM     10  C   LIG    1        2.552  -0.062   0.757  0.00  0.00    +0.032 A 
ENDROOT
BRANCH   7  11
ATOM     11  N   LIG    1        7.525  -0.169   0.482  0.00  0.00    -0.282 N 
ATOM     12  H   LIG    1        7.784  -1.143   0.544  0.00  0.00    +0.155 HD
ATOM     13  C   LIG    1        8.371   0.761   0.971  0.00  0.00    +0.228 C 
ATOM     14  O   LIG    1        8.123   1.969   1.004  0.00  0.00    -0.274 OA
BRANCH  13  15
ATOM     15  C   LIG    1        9.684   0.218   1.584  0.00  0.00    +0.072 C 
ATOM     16  C   LIG    1       10.901   1.088   1.268  0.00  0.00    +0.022 C 
ATOM     17  C   LIG    1       10.669  -0.164   0.475  0.00  0.00    +0.022 C 
BRANCH  15  18
ATOM     18  C   LIG    1        9.622  -0.635   2.872  0.00  0.00    -0.029 A 
ATOM     19  C   LIG    1        8.418  -0.783   3.596  0.00  0.00    +0.054 A 
ATOM     20  C   LIG    1        8.427  -1.555   4.752  0.00  0.00    +0.173 A 
ATOM     21  O   LIG    1        7.398  -1.834   5.592  0.00  0.00    -0.395 OA
ATOM     22  C   LIG    1        7.920  -2.654   6.607  0.00  0.00    +0.589 C 
ATOM     23  F   LIG    1        7.290  -3.829   6.608  0.00  0.00    -0.125 F 
ATOM     24  F   LIG    1        7.765  -2.062   7.792  0.00  0.00    -0.125 F 
ATOM     25  O   LIG    1        9.287  -2.844   6.343  0.00  0.00    -0.395 OA
ATOM     26  C   LIG    1        9.561  -2.160   5.203  0.00  0.00    +0.173 A 
ATOM     27  C   LIG    1       10.772  -2.034   4.535  0.00  0.00    +0.050 A 
ATOM     28  C   LIG    1       10.790  -1.260   3.366  0.00  0.00    +0.008 A 
ENDBRANCH  15  18
ENDBRANCH  13  15
ENDBRANCH   7  11
BRANCH   1  30
ATOM     29  C   LIG    1       -0.391   1.943  -0.048  0.00  0.00    +0.019 C 
ATOM     30  C   LIG    1        0.081   0.465  -0.016  0.00  0.00    +0.028 C 
ATOM     31  C   LIG    1       -0.327  -0.070   1.388  0.00  0.00    +0.019 C 
BRANCH  30  32
ATOM     32  C   LIG    1       -0.697  -0.379  -1.071  0.00  0.00    +0.168 C 
BRANCH  32  33
ATOM     33  O   LIG    1       -0.284  -1.732  -1.101  0.00  0.00    -0.394 OA
ATOM     34  H   LIG    1       -0.838  -2.211  -1.722  0.00  0.00    +0.209 HD
ENDBRANCH  32  33
ENDBRANCH  30  32
ENDBRANCH   1  30
BRANCH   2  35
ATOM     35  C   LIG    1        1.853   1.275  -2.595  0.00  0.00    +0.155 C 
BRANCH  35  36
ATOM     36  C   LIG    1        2.103   0.297  -3.775  0.00  0.00    +0.159 C 
BRANCH  36  37
ATOM     37  O   LIG    1        1.546  -0.976  -3.497  0.00  0.00    -0.388 OA
ATOM     38  H   LIG    1        0.618  -0.865  -3.279  0.00  0.00    +0.210 HD
ENDBRANCH  36  37
BRANCH  36  39
ATOM     39  C   LIG    1        1.506   0.833  -5.094  0.00  0.00    +0.188 C 
BRANCH  39  40
ATOM     40  O   LIG    1        1.944   0.073  -6.203  0.00  0.00    -0.392 OA
ATOM     41  H   LIG    1        1.600  -0.819  -6.115  0.00  0.00    +0.210 HD
ENDBRANCH  39  40
ENDBRANCH  36  39
ENDBRANCH  35  36
ENDBRANCH   2  35
TORSDOF 11
