REMARK  Name = DB11716
REMARK                            x       y       z     vdW  Elec       q    Type
REMARK                         _______ _______ _______ _____ _____    ______ ____
ROOT
ATOM      1  N   LIG    1        3.511  -1.453  -0.013  0.00  0.00    -0.309 N 
ATOM      2  C   LIG    1        4.327  -1.292  -1.129  0.00  0.00    +0.286 A 
ATOM      3  N   LIG    1        5.610  -1.330  -0.824  0.00  0.00    -0.215 NA
ATOM      4  C   LIG    1        5.658  -1.512   0.480  0.00  0.00    +0.132 A 
ATOM      5  C   LIG    1        4.393  -1.592   1.031  0.00  0.00    +0.109 A 
ENDROOT
BRANCH   2   6
ATOM      6  N   LIG    1        3.833  -1.105  -2.472  0.00  0.00    +0.043 N 
ATOM      7  O   LIG    1        4.662  -0.877  -3.349  0.00  0.00    -0.127 OA
BRANCH   6   8
ATOM      8  O   LIG    1        2.631  -1.186  -2.696  0.00  0.00    -0.394 OA
ATOM      9  H   LIG    1        2.034  -1.362  -1.995  0.00  0.00    +0.329 HD
ENDBRANCH   6   8
ENDBRANCH   2   6
BRANCH   1  10
ATOM     10  C   LIG    1        2.052  -1.452   0.118  0.00  0.00    +0.158 C 
BRANCH  10  11
ATOM     11  C   LIG    1        1.465  -0.021   0.063  0.00  0.00    +0.160 C 
BRANCH  11  12
ATOM     12  O   LIG    1        1.949   0.737   1.158  0.00  0.00    -0.388 OA
ATOM     13  H   LIG    1        1.613   0.352   1.971  0.00  0.00    +0.210 HD
ENDBRANCH  11  12
BRANCH  11  14
ATOM     14  C   LIG    1       -0.076  -0.028   0.106  0.00  0.00    +0.192 C 
BRANCH  14  16
ATOM     15  C   LIG    1       -1.990   1.362  -0.118  0.00  0.00    +0.194 C 
ATOM     16  O   LIG    1       -0.574   1.281  -0.146  0.00  0.00    -0.380 OA
ENDBRANCH  14  16
ENDBRANCH  11  14
ENDBRANCH  10  11
ENDBRANCH   1  10
TORSDOF 7
