REMARK  Name = DB11769
REMARK                            x       y       z     vdW  Elec       q    Type
REMARK                         _______ _______ _______ _____ _____    ______ ____
ROOT
ATOM      1  C   LIG    1       -1.192   3.797   3.237  0.00  0.00    +0.000 A 
ATOM      2  C   LIG    1       -1.364   4.236   1.922  0.00  0.00    +0.007 A 
ATOM      3  C   LIG    1       -1.145   3.348   0.865  0.00  0.00    -0.003 A 
ATOM      4  C   LIG    1       -1.252   3.529  -0.621  0.00  0.00    +0.136 C 
ATOM      5  C   LIG    1       -0.844   2.142  -1.161  0.00  0.00    +0.239 C 
ATOM      6  N   LIG    1       -0.602   1.355  -0.081  0.00  0.00    -0.263 N 
ATOM      7  O   LIG    1       -0.761   1.835  -2.353  0.00  0.00    -0.274 OA
ATOM      8  C   LIG    1       -0.354   4.605  -1.173  0.00  0.00    +0.021 A 
ATOM      9  C   LIG    1        1.004   4.896  -0.962  0.00  0.00    +0.058 A 
ATOM     10  C   LIG    1        1.542   5.966  -1.676  0.00  0.00    +0.167 A 
ATOM     11  O   LIG    1        2.820   6.426  -1.679  0.00  0.00    -0.453 OA
ATOM     12  C   LIG    1        2.797   7.608  -2.433  0.00  0.00    +0.466 C 
ATOM     13  O   LIG    1        1.583   7.646  -3.135  0.00  0.00    -0.452 OA
ATOM     14  C   LIG    1        0.794   6.704  -2.557  0.00  0.00    +0.170 A 
ATOM     15  C   LIG    1       -0.553   6.434  -2.792  0.00  0.00    +0.095 A 
ATOM     16  C   LIG    1       -1.103   5.375  -2.063  0.00  0.00    +0.129 A 
ATOM     17  O   LIG    1       -2.405   4.963  -2.175  0.00  0.00    -0.490 OA
ATOM     18  C   LIG    1       -2.630   3.963  -1.179  0.00  0.00    +0.254 C 
ATOM     19  C   LIG    1       -0.757   2.046   1.121  0.00  0.00    +0.041 A 
ATOM     20  C   LIG    1       -0.592   1.593   2.433  0.00  0.00    +0.024 A 
ATOM     21  C   LIG    1       -0.807   2.478   3.491  0.00  0.00    +0.002 A 
ENDROOT
BRANCH   6  22
ATOM     22  C   LIG    1       -0.075  -0.006  -0.232  0.00  0.00    +0.188 C 
BRANCH  22  23
ATOM     23  C   LIG    1        1.436  -0.039  -0.129  0.00  0.00    +0.123 A 
ATOM     24  O   LIG    1        1.973   0.268   1.081  0.00  0.00    -0.454 OA
ATOM     25  C   LIG    1        3.326   0.208   0.968  0.00  0.00    +0.208 A 
ATOM     26  C   LIG    1        3.656  -0.139  -0.334  0.00  0.00    +0.054 A 
ATOM     27  C   LIG    1        2.457  -0.292  -1.030  0.00  0.00    +0.047 A 
BRANCH  25  28
ATOM     28  C   LIG    1        4.123   0.518   2.216  0.00  0.00    +0.450 C 
ATOM     29  F   LIG    1        3.834  -0.341   3.193  0.00  0.00    -0.163 F 
ATOM     30  F   LIG    1        3.858   1.747   2.660  0.00  0.00    -0.163 F 
ATOM     31  F   LIG    1        5.433   0.445   1.985  0.00  0.00    -0.163 F 
ENDBRANCH  25  28
ENDBRANCH  22  23
ENDBRANCH   6  22
TORSDOF 3
