REMARK  Name = DB11642
REMARK                            x       y       z     vdW  Elec       q    Type
REMARK                         _______ _______ _______ _____ _____    ______ ____
ROOT
ATOM      1  C   LIG    1        0.008  -0.072  -0.237  0.00  0.00    +0.160 C 
ENDROOT
BRANCH   1   2
ATOM      2  C   LIG    1       -0.494   1.376  -0.131  0.00  0.00    +0.033 C 
BRANCH   2   3
ATOM      3  C   LIG    1        0.035   2.295  -1.249  0.00  0.00    +0.037 C 
BRANCH   3   5
ATOM      4  C   LIG    1       -1.748   4.027  -1.700  0.00  0.00    +0.005 A 
ATOM      5  C   LIG    1       -0.503   3.714  -1.146  0.00  0.00    -0.047 A 
ATOM      6  C   LIG    1        0.242   4.700  -0.494  0.00  0.00    +0.005 A 
ATOM      7  C   LIG    1       -0.256   5.997  -0.398  0.00  0.00    +0.020 A 
ATOM      8  C   LIG    1       -1.498   6.305  -0.952  0.00  0.00    +0.041 A 
ATOM      9 CL   LIG    1       -2.115   7.912  -0.833  0.00  0.00    -0.084 Cl
ATOM     10  C   LIG    1       -2.245   5.324  -1.602  0.00  0.00    +0.020 A 
ENDBRANCH   3   5
ENDBRANCH   2   3
ENDBRANCH   1   2
BRANCH   1  11
ATOM     11  O   LIG    1        1.423  -0.097  -0.107  0.00  0.00    -0.380 OA
BRANCH  11  12
ATOM     12  C   LIG    1        1.984  -1.400  -0.188  0.00  0.00    +0.161 C 
BRANCH  12  13
ATOM     13  C   LIG    1        3.510  -1.303  -0.051  0.00  0.00    +0.043 C 
BRANCH  13  14
ATOM     14  C   LIG    1        3.961  -0.797   1.338  0.00  0.00    +0.086 C 
BRANCH  14  15
ATOM     15  N   LIG    1        5.400  -0.525   1.418  0.00  0.00    -0.302 NA
ATOM     16  C   LIG    1        5.774   0.706   0.699  0.00  0.00    +0.084 C 
ATOM     17  C   LIG    1        7.290   0.987   0.777  0.00  0.00    +0.015 C 
ATOM     18  C   LIG    1        7.798   1.018   2.224  0.00  0.00    +0.002 C 
ATOM     19  C   LIG    1        7.351  -0.252   2.962  0.00  0.00    +0.015 C 
ATOM     20  C   LIG    1        5.835  -0.499   2.823  0.00  0.00    +0.084 C 
ENDBRANCH  14  15
ENDBRANCH  13  14
ENDBRANCH  12  13
ENDBRANCH  11  12
ENDBRANCH   1  11
TORSDOF 8
