REMARK  Name = DB11909
REMARK                            x       y       z     vdW  Elec       q    Type
REMARK                         _______ _______ _______ _____ _____    ______ ____
ROOT
ATOM      1  C   LIG    1       -1.329   3.557   0.260  0.00  0.00    +0.031 A 
ATOM      2  N   LIG    1       -2.456   2.770   0.083  0.00  0.00    -0.339 N 
ATOM      3  C   LIG    1       -2.094   1.440  -0.040  0.00  0.00    +0.054 A 
ATOM      4  C   LIG    1       -2.896   0.310  -0.257  0.00  0.00    +0.026 A 
ATOM      5  C   LIG    1       -2.261  -0.922  -0.341  0.00  0.00    +0.006 A 
ATOM      6  C   LIG    1       -0.883  -1.039  -0.241  0.00  0.00    +0.046 A 
ATOM      7  C   LIG    1       -0.068   0.084  -0.042  0.00  0.00    +0.131 A 
ATOM      8  C   LIG    1       -0.673   1.361   0.093  0.00  0.00    +0.053 A 
ATOM      9  C   LIG    1       -0.204   2.717   0.329  0.00  0.00    +0.059 A 
ENDROOT
BRANCH   1  11
ATOM     10  C   LIG    1       -1.553   5.469   1.921  0.00  0.00    +0.010 C 
ATOM     11  C   LIG    1       -1.480   5.070   0.440  0.00  0.00    +0.051 C 
ENDBRANCH   1  11
BRANCH   9  12
ATOM     12  C   LIG    1        1.183   3.100   0.671  0.00  0.00    +0.249 C 
ATOM     13  O   LIG    1        2.002   2.327   1.163  0.00  0.00    -0.282 OA
BRANCH  12  14
ATOM     14  C   LIG    1        1.725   4.522   0.292  0.00  0.00    +0.282 C 
ATOM     15  N   LIG    1        1.670   4.747  -1.025  0.00  0.00    -0.323 N 
ATOM     16  H   LIG    1        1.997   5.622  -1.405  0.00  0.00    +0.145 HD
ATOM     17  H   LIG    1        1.309   4.037  -1.646  0.00  0.00    +0.145 HD
ATOM     18  O   LIG    1        2.154   5.303   1.141  0.00  0.00    -0.267 OA
ENDBRANCH  12  14
ENDBRANCH   9  12
BRANCH   2  19
ATOM     19  C   LIG    1       -3.839   3.262  -0.023  0.00  0.00    +0.157 C 
BRANCH  19  20
ATOM     20  C   LIG    1       -4.271   3.742  -1.409  0.00  0.00    -0.028 A 
ATOM     21  C   LIG    1       -3.658   3.272  -2.578  0.00  0.00    +0.005 A 
ATOM     22  C   LIG    1       -4.088   3.723  -3.823  0.00  0.00    +0.000 A 
ATOM     23  C   LIG    1       -5.135   4.638  -3.902  0.00  0.00    +0.000 A 
ATOM     24  C   LIG    1       -5.756   5.106  -2.747  0.00  0.00    +0.000 A 
ATOM     25  C   LIG    1       -5.325   4.656  -1.502  0.00  0.00    +0.005 A 
ENDBRANCH  19  20
ENDBRANCH   2  19
BRANCH   7  26
ATOM     26  O   LIG    1        1.312   0.041  -0.010  0.00  0.00    -0.480 OA
BRANCH  26  27
ATOM     27  C   LIG    1        1.984  -1.215  -0.163  0.00  0.00    +0.349 C 
BRANCH  27  28
ATOM     28  C   LIG    1        3.515  -1.006  -0.192  0.00  0.00    +0.343 C 
ATOM     29  O   LIG    1        4.210  -2.047  -0.201  0.00  0.00    -0.247 OA
BRANCH  28  30
ATOM     30  O   LIG    1        3.990   0.153  -0.226  0.00  0.00    -0.478 OA
ATOM     31  H   LIG    1        3.417   0.895  -0.217  0.00  0.00    +0.295 HD
ENDBRANCH  28  30
ENDBRANCH  27  28
ENDBRANCH  26  27
ENDBRANCH   7  26
TORSDOF 9
