REMARK  Name = DB11825
REMARK                            x       y       z     vdW  Elec       q    Type
REMARK                         _______ _______ _______ _____ _____    ______ ____
ROOT
ATOM      1  C   LIG    1        1.463   0.040  -0.078  0.00  0.00    -0.073 C 
ATOM      2  C   LIG    1        2.201   0.224   1.237  0.00  0.00    +0.034 C 
ATOM      3  C   LIG    1        3.687   0.277   0.864  0.00  0.00    +0.001 C 
ATOM      4  C   LIG    1        4.304   1.664   0.600  0.00  0.00    +0.010 C 
ATOM      5  C   LIG    1        4.611   1.258  -0.864  0.00  0.00    -0.028 C 
ATOM      6  C   LIG    1        3.800  -0.047  -0.621  0.00  0.00    +0.020 C 
ATOM      7  C   LIG    1        2.353  -0.096  -1.077  0.00  0.00    -0.023 C 
ENDROOT
BRANCH   1   9
ATOM      8  C   LIG    1       -0.712   1.350   0.240  0.00  0.00    +0.008 C 
ATOM      9  C   LIG    1       -0.053   0.016  -0.136  0.00  0.00    +0.027 C 
ENDBRANCH   1   9
BRANCH   5  10
ATOM     10  C   LIG    1        6.133   0.975  -1.090  0.00  0.00    -0.078 C 
BRANCH  10  11
ATOM     11  N   LIG    1        6.418   0.363  -2.470  0.00  0.00    +0.379 N 
ATOM     12  H   LIG    1        5.922  -0.510  -2.574  0.00  0.00    -0.090 HD
ATOM     13  H   LIG    1        6.114   0.999  -3.194  0.00  0.00    -0.090 HD
ATOM     14  H   LIG    1        7.408   0.196  -2.579  0.00  0.00    -0.090 HD
ENDBRANCH  10  11
ENDBRANCH   5  10
BRANCH   5  15
ATOM     15  C   LIG    1        3.998   2.233  -1.938  0.00  0.00    +0.126 C 
BRANCH  15  16
ATOM     16  C   LIG    1        4.738   3.580  -2.133  0.00  0.00    +0.305 C 
ATOM     17  O   LIG    1        4.867   3.988  -3.309  0.00  0.00    -0.251 OA
BRANCH  16  18
ATOM     18  O   LIG    1        5.148   4.198  -1.124  0.00  0.00    -0.481 OA
ATOM     19  H   LIG    1        5.020   3.837  -0.269  0.00  0.00    +0.295 HD
ENDBRANCH  16  18
ENDBRANCH  15  16
ENDBRANCH   5  15
TORSDOF 6
