REMARK  Name = DB11221
REMARK                            x       y       z     vdW  Elec       q    Type
REMARK                         _______ _______ _______ _____ _____    ______ ____
ROOT
ATOM      1  C   LIG    1       -2.875   0.167   0.093  0.00  0.00    +0.124 A 
ATOM      2  C   LIG    1       -2.069   1.303  -0.081  0.00  0.00    +0.091 A 
ATOM      3  C   LIG    1       -0.677   1.195  -0.132  0.00  0.00    +0.131 A 
ATOM      4  C   LIG    1       -0.057  -0.064   0.005  0.00  0.00    +0.064 A 
ATOM      5  C   LIG    1       -0.871  -1.195   0.158  0.00  0.00    +0.019 A 
ATOM      6  C   LIG    1       -2.258  -1.077   0.210  0.00  0.00    +0.046 A 
ENDROOT
BRANCH   1   8
ATOM      7  C   LIG    1       -4.937   1.431   0.039  0.00  0.00    +0.277 C 
ATOM      8  O   LIG    1       -4.255   0.187   0.155  0.00  0.00    -0.495 OA
ENDBRANCH   1   8
BRANCH   3   9
ATOM      9  O   LIG    1        0.044   2.353  -0.294  0.00  0.00    -0.506 OA
ATOM     10  H   LIG    1       -0.512   3.132  -0.373  0.00  0.00    +0.292 HD
ENDBRANCH   3   9
BRANCH   4  11
ATOM     11  C   LIG    1        1.433  -0.244  -0.101  0.00  0.00    +0.200 C 
ATOM     12  O   LIG    1        2.046   0.385  -0.965  0.00  0.00    -0.286 OA
BRANCH  11  13
ATOM     13  C   LIG    1        2.170  -1.156   0.857  0.00  0.00    +0.064 A 
ATOM     14  C   LIG    1        3.470  -1.649   0.591  0.00  0.00    +0.128 A 
ATOM     15  C   LIG    1        4.125  -2.455   1.524  0.00  0.00    +0.046 A 
ATOM     16  C   LIG    1        3.517  -2.777   2.733  0.00  0.00    +0.004 A 
ATOM     17  C   LIG    1        2.248  -2.287   3.020  0.00  0.00    +0.001 A 
ATOM     18  C   LIG    1        1.585  -1.481   2.095  0.00  0.00    +0.015 A 
BRANCH  14  19
ATOM     19  O   LIG    1        4.138  -1.391  -0.581  0.00  0.00    -0.506 OA
ATOM     20  H   LIG    1        5.007  -1.797  -0.613  0.00  0.00    +0.292 HD
ENDBRANCH  14  19
ENDBRANCH  11  13
ENDBRANCH   4  11
TORSDOF 5
