REMARK  Name = DB11663
REMARK                            x       y       z     vdW  Elec       q    Type
REMARK                         _______ _______ _______ _____ _____    ______ ____
ROOT
ATOM      1  C   LIG    1        1.617   0.102  -0.407  0.00  0.00    +0.007 A 
ATOM      2  S   LIG    1        2.423   0.216   1.154  0.00  0.00    -0.087 S 
ATOM      3  C   LIG    1        4.024   0.137   0.422  0.00  0.00    +0.078 A 
ATOM      4  C   LIG    1        5.327   0.193   0.974  0.00  0.00    +0.140 A 
ATOM      5  N   LIG    1        6.396   0.203   0.131  0.00  0.00    -0.211 NA
ATOM      6  C   LIG    1        6.179   0.111  -1.207  0.00  0.00    +0.163 A 
ATOM      7  N   LIG    1        4.958   0.019  -1.800  0.00  0.00    -0.227 NA
ATOM      8  C   LIG    1        3.896   0.050  -0.990  0.00  0.00    +0.084 A 
ATOM      9  C   LIG    1        2.547   0.009  -1.427  0.00  0.00    +0.041 A 
ENDROOT
BRANCH   6  10
ATOM     10  C   LIG    1        7.390   0.098  -2.097  0.00  0.00    +0.030 A 
ATOM     11  C   LIG    1        7.343   0.474  -3.465  0.00  0.00    +0.030 A 
ATOM     12  C   LIG    1        8.524   0.435  -4.254  0.00  0.00    +0.066 A 
ATOM     13  N   LIG    1        8.148   0.851  -5.516  0.00  0.00    -0.277 N 
ATOM     14  H   LIG    1        8.730   0.944  -6.335  0.00  0.00    +0.189 HD
ATOM     15  N   LIG    1        6.841   1.151  -5.578  0.00  0.00    -0.181 NA
ATOM     16  C   LIG    1        9.760   0.038  -3.740  0.00  0.00    +0.028 A 
ATOM     17  C   LIG    1        9.789  -0.321  -2.396  0.00  0.00    +0.003 A 
ATOM     18  C   LIG    1        6.349   0.942  -4.386  0.00  0.00    +0.143 A 
ATOM     19  C   LIG    1        8.646  -0.292  -1.602  0.00  0.00    +0.012 A 
ENDBRANCH   6  10
BRANCH   4  20
ATOM     20  N   LIG    1        5.579   0.267   2.348  0.00  0.00    -0.310 N 
ATOM     21  C   LIG    1        6.931   0.581   2.857  0.00  0.00    +0.134 C 
ATOM     22  C   LIG    1        6.933   1.001   4.343  0.00  0.00    +0.178 C 
ATOM     23  O   LIG    1        6.326  -0.009   5.135  0.00  0.00    -0.377 OA
ATOM     24  C   LIG    1        4.988  -0.262   4.734  0.00  0.00    +0.178 C 
ATOM     25  C   LIG    1        4.964  -0.718   3.259  0.00  0.00    +0.134 C 
ENDBRANCH   4  20
BRANCH   1  26
ATOM     26  C   LIG    1        0.103   0.092  -0.534  0.00  0.00    +0.127 C 
BRANCH  26  30
ATOM     27  N   LIG    1       -2.546   3.304   0.367  0.00  0.00    -0.179 NA
ATOM     28  C   LIG    1       -2.292   2.979  -1.055  0.00  0.00    +0.124 C 
ATOM     29  C   LIG    1       -1.730   1.541  -1.160  0.00  0.00    +0.102 C 
ATOM     30  N   LIG    1       -0.490   1.426  -0.366  0.00  0.00    -0.295 NA
ATOM     31  C   LIG    1       -0.778   1.725   1.052  0.00  0.00    +0.102 C 
ATOM     32  C   LIG    1       -1.316   3.168   1.180  0.00  0.00    +0.124 C 
BRANCH  27  34
ATOM     33  C   LIG    1       -4.322   4.399   2.341  0.00  0.00    +0.215 C 
ATOM     34  S   LIG    1       -3.516   4.753   0.671  0.00  0.00    +0.029 S 
ATOM     35  O   LIG    1       -2.595   5.883   0.839  0.00  0.00    -0.158 OA
ATOM     36  O   LIG    1       -4.579   4.811  -0.338  0.00  0.00    -0.158 OA
ENDBRANCH  27  34
ENDBRANCH  26  30
ENDBRANCH   1  26
TORSDOF 5
