REMARK  Name = DB11197
REMARK                            x       y       z     vdW  Elec       q    Type
REMARK                         _______ _______ _______ _____ _____    ______ ____
ROOT
ATOM      1  CA  CYS A  1        1.516   0.014  -0.049  0.00  0.00    +0.170 C 
ENDROOT
BRANCH   1   2
ATOM      2  N   CYS A  1        2.081   0.668  -1.245  0.00  0.00    -0.318 NA
ATOM      3  H1  CYS A  1        1.630   0.350  -2.091  0.00  0.00    +0.119 HD
ATOM      4  H2  CYS A  1        3.071   0.486  -1.337  0.00  0.00    +0.119 HD
ENDBRANCH   1   2
BRANCH   1   5
ATOM      5  C   CYS A  1        2.084  -1.419   0.040  0.00  0.00    +0.323 C 
ATOM      6  O   CYS A  1        2.469  -2.070  -0.933  0.00  0.00    -0.249 OA
BRANCH   5   7
ATOM      7  OXT CYS A  1        2.078  -1.866   1.330  0.00  0.00    -0.480 OA
ATOM      8  HXT CYS A  1        2.422  -2.758   1.409  0.00  0.00    +0.295 HD
ENDBRANCH   5   7
ENDBRANCH   1   5
BRANCH   1   9
ATOM      9  CB  CYS A  1       -0.030   0.002  -0.035  0.00  0.00    +0.095 C 
BRANCH   9  10
ATOM     10  SG  CYS A  1       -0.693   1.682   0.160  0.00  0.00    -0.176 S 
ATOM     11  HG  CYS A  1       -1.981   1.328   0.141  0.00  0.00    +0.102 HD
ENDBRANCH   9  10
ENDBRANCH   1   9
TORSDOF 5
