REMARK  Name = DB11617
REMARK                            x       y       z     vdW  Elec       q    Type
REMARK                         _______ _______ _______ _____ _____    ______ ____
ROOT
ATOM      1  C   LIG    1        1.971  -1.216   0.178  0.00  0.00    +0.158 C 
ATOM      2  C   LIG    1        1.618  -2.089  -1.049  0.00  0.00    +0.072 C 
ATOM      3  C   LIG    1        2.352  -1.619  -2.326  0.00  0.00    +0.085 C 
ATOM      4  C   LIG    1        3.887  -1.838  -2.105  0.00  0.00    +0.160 C 
ATOM      5  C   LIG    1        4.377  -1.314  -0.734  0.00  0.00    -0.021 A 
ATOM      6  C   LIG    1        5.740  -1.076  -0.553  0.00  0.00    +0.017 A 
ATOM      7  C   LIG    1        6.279  -0.615   0.650  0.00  0.00    +0.037 A 
ATOM      8  C   LIG    1        5.419  -0.361   1.739  0.00  0.00    +0.075 A 
ATOM      9  C   LIG    1        4.034  -0.600   1.566  0.00  0.00    +0.134 A 
ATOM     10  C   LIG    1        5.997   0.159   3.045  0.00  0.00    +0.202 C 
ATOM     11  O   LIG    1        5.271   0.574   3.950  0.00  0.00    -0.286 OA
ATOM     12  C   LIG    1        7.495   0.037   3.235  0.00  0.00    +0.075 A 
ATOM     13  C   LIG    1        8.105   0.180   4.508  0.00  0.00    +0.128 A 
ATOM     14  C   LIG    1        9.487   0.070   4.652  0.00  0.00    +0.046 A 
ATOM     15  C   LIG    1       10.292  -0.187   3.552  0.00  0.00    +0.004 A 
ATOM     16  C   LIG    1        9.716  -0.339   2.298  0.00  0.00    +0.012 A 
ATOM     17  C   LIG    1        8.328  -0.231   2.119  0.00  0.00    +0.037 A 
ATOM     18  C   LIG    1        7.766  -0.422   0.742  0.00  0.00    +0.195 C 
ATOM     19  O   LIG    1        8.496  -0.527  -0.249  0.00  0.00    -0.287 OA
ATOM     20  C   LIG    1        3.499  -1.079   0.352  0.00  0.00    +0.028 A 
ENDROOT
BRANCH   3  21
ATOM     21  O   LIG    1        2.138  -0.235  -2.565  0.00  0.00    -0.387 OA
ATOM     22  H   LIG    1        2.753   0.059  -3.241  0.00  0.00    +0.210 HD
ENDBRANCH   3  21
BRANCH   3  23
ATOM     23  C   LIG    1        1.808  -2.313  -3.618  0.00  0.00    +0.032 C 
ATOM     24  C   LIG    1        0.351  -2.000  -4.021  0.00  0.00    +0.007 C 
ENDBRANCH   3  23
BRANCH   4  25
ATOM     25  C   LIG    1        4.347  -3.312  -2.261  0.00  0.00    +0.317 C 
ATOM     26  O   LIG    1        4.250  -4.135  -1.346  0.00  0.00    -0.250 OA
BRANCH  25  27
ATOM     27  O   LIG    1        4.856  -3.557  -3.487  0.00  0.00    -0.467 OA
ATOM     28  C   LIG    1        5.326  -4.853  -3.828  0.00  0.00    +0.280 C 
ENDBRANCH  25  27
ENDBRANCH   4  25
BRANCH   9  29
ATOM     29  O   LIG    1        3.143  -0.373   2.591  0.00  0.00    -0.506 OA
ATOM     30  H   LIG    1        2.238  -0.562   2.338  0.00  0.00    +0.292 HD
ENDBRANCH   9  29
BRANCH  13  31
ATOM     31  O   LIG    1        7.394   0.424   5.657  0.00  0.00    -0.506 OA
ATOM     32  H   LIG    1        7.951   0.496   6.435  0.00  0.00    +0.292 HD
ENDBRANCH  13  31
BRANCH   1  33
ATOM     33  O   LIG    1        1.412   0.103   0.168  0.00  0.00    -0.343 OA
BRANCH  33  37
ATOM     34  C   LIG    1       -0.760   2.098   2.160  0.00  0.00    +0.137 C 
ATOM     35  C   LIG    1       -0.468   0.607   2.472  0.00  0.00    -0.033 C 
ATOM     36  C   LIG    1       -0.760  -0.248   1.216  0.00  0.00    +0.049 C 
ATOM     37  C   LIG    1        0.030   0.288   0.006  0.00  0.00    +0.250 C 
ATOM     38  O   LIG    1       -0.259   1.648  -0.206  0.00  0.00    -0.346 OA
ATOM     39  C   LIG    1        0.052   2.501   0.906  0.00  0.00    +0.145 C 
ATOM     40  C   LIG    1       -0.170   3.963   0.488  0.00  0.00    +0.040 C 
BRANCH  35  41
ATOM     41  N   LIG    1       -1.316   0.128   3.687  0.00  0.00    +0.380 N 
ATOM     42  H   LIG    1       -2.263   0.439   3.515  0.00  0.00    -0.082 HD
ATOM     43  C   LIG    1       -0.877   0.793   5.011  0.00  0.00    -0.096 C 
ATOM     44  C   LIG    1       -1.370  -1.404   3.881  0.00  0.00    -0.096 C 
ENDBRANCH  35  41
BRANCH  34  45
ATOM     45  O   LIG    1       -2.147   2.349   1.887  0.00  0.00    -0.347 OA
BRANCH  45  46
ATOM     46  C   LIG    1       -2.914   3.009   2.856  0.00  0.00    +0.253 C 
ATOM     47  O   LIG    1       -3.530   2.089   3.736  0.00  0.00    -0.346 OA
ATOM     48  C   LIG    1       -4.531   1.249   3.146  0.00  0.00    +0.150 C 
ATOM     49  C   LIG    1       -4.955   0.134   4.119  0.00  0.00    +0.041 C 
ATOM     50  C   LIG    1       -5.712   2.103   2.644  0.00  0.00    +0.178 C 
ATOM     51  C   LIG    1       -5.154   3.097   1.600  0.00  0.00    +0.151 C 
ATOM     52  C   LIG    1       -3.939   3.892   2.114  0.00  0.00    +0.095 C 
BRANCH  51  53
ATOM     53  O   LIG    1       -6.145   3.910   1.005  0.00  0.00    -0.389 OA
ATOM     54  H   LIG    1       -6.179   3.716   0.066  0.00  0.00    +0.210 HD
ENDBRANCH  51  53
BRANCH  50  55
ATOM     55  O   LIG    1       -6.532   2.560   3.738  0.00  0.00    -0.343 OA
BRANCH  55  56
ATOM     56  C   LIG    1       -6.476   3.874   4.222  0.00  0.00    +0.252 C 
ATOM     57  O   LIG    1       -5.290   4.147   4.933  0.00  0.00    -0.341 OA
ATOM     58  C   LIG    1       -5.107   3.432   6.164  0.00  0.00    +0.184 C 
ATOM     59  C   LIG    1       -3.781   3.880   6.806  0.00  0.00    +0.046 C 
ATOM     60  C   LIG    1       -6.295   3.529   7.138  0.00  0.00    +0.162 C 
ATOM     61  O   LIG    1       -6.204   3.779   8.340  0.00  0.00    -0.295 OA
ATOM     62  C   LIG    1       -7.628   3.292   6.436  0.00  0.00    +0.082 C 
ATOM     63  C   LIG    1       -7.699   4.100   5.126  0.00  0.00    +0.069 C 
ENDBRANCH  55  56
ENDBRANCH  50  55
ENDBRANCH  45  46
ENDBRANCH  34  45
ENDBRANCH  33  37
ENDBRANCH   1  33
TORSDOF 14
