REMARK  Name = DB11871
REMARK                            x       y       z     vdW  Elec       q    Type
REMARK                         _______ _______ _______ _____ _____    ______ ____
ROOT
ATOM      1  C   LIG    1        1.969  -0.656  -3.439  0.00  0.00    -0.048 A 
ATOM      2  C   LIG    1        1.017  -0.024  -4.245  0.00  0.00    +0.007 A 
ATOM      3  C   LIG    1        1.370   1.067  -5.047  0.00  0.00    -0.038 A 
ATOM      4  C   LIG    1        2.696   1.512  -5.053  0.00  0.00    +0.004 A 
ATOM      5  C   LIG    1        3.652   0.882  -4.257  0.00  0.00    +0.001 A 
ATOM      6  C   LIG    1        3.291  -0.199  -3.454  0.00  0.00    +0.003 A 
ENDROOT
BRANCH   1   7
ATOM      7  C   LIG    1        1.568  -1.849  -2.569  0.00  0.00    +0.022 C 
BRANCH   7   9
ATOM      8  C   LIG    1       -0.137  -0.561  -1.135  0.00  0.00    -0.010 C 
ATOM      9  C   LIG    1        1.080  -1.515  -1.125  0.00  0.00    -0.070 C 
ATOM     10  C   LIG    1        0.706  -2.808  -0.362  0.00  0.00    -0.010 C 
BRANCH   9  11
ATOM     11  N   LIG    1        2.195  -0.773  -0.345  0.00  0.00    +0.385 N 
ATOM     12  H   LIG    1        1.792  -0.429   0.515  0.00  0.00    -0.085 HD
ATOM     13  H   LIG    1        2.462   0.032  -0.894  0.00  0.00    -0.085 HD
BRANCH  11  14
ATOM     14  C   LIG    1        3.479  -1.550   0.025  0.00  0.00    -0.045 C 
BRANCH  14  15
ATOM     15  C   LIG    1        4.530  -0.602   0.648  0.00  0.00    +0.128 C 
BRANCH  15  16
ATOM     16  C   LIG    1        4.018   0.204   1.843  0.00  0.00    -0.019 A 
ATOM     17  C   LIG    1        3.932   1.598   1.767  0.00  0.00    +0.034 A 
ATOM     18  C   LIG    1        3.471   2.347   2.853  0.00  0.00    +0.089 A 
ATOM     19  C   LIG    1        3.070   1.690   4.027  0.00  0.00    +0.139 A 
ATOM     20  C   LIG    1        3.153   0.299   4.105  0.00  0.00    +0.048 A 
ATOM     21  C   LIG    1        3.627  -0.440   3.023  0.00  0.00    +0.010 A 
BRANCH  18  22
ATOM     22  N   LIG    1        3.419   3.741   2.730  0.00  0.00    -0.217 N 
ATOM     23  H   LIG    1        2.850   4.127   1.991  0.00  0.00    +0.173 HD
BRANCH  22  24
ATOM     24  S   LIG    1        4.784   4.747   3.252  0.00  0.00    +0.040 S 
ATOM     25  C   LIG    1        4.438   5.030   5.083  0.00  0.00    +0.218 C 
ATOM     26  O   LIG    1        4.649   6.025   2.548  0.00  0.00    -0.155 OA
ATOM     27  O   LIG    1        6.001   3.938   3.116  0.00  0.00    -0.155 OA
ENDBRANCH  22  24
ENDBRANCH  18  22
BRANCH  19  28
ATOM     28  O   LIG    1        2.574   2.381   5.104  0.00  0.00    -0.505 OA
ATOM     29  H   LIG    1        2.336   1.811   5.839  0.00  0.00    +0.292 HD
ENDBRANCH  19  28
ENDBRANCH  15  16
BRANCH  15  30
ATOM     30  O   LIG    1        5.658  -1.382   0.989  0.00  0.00    -0.389 OA
ATOM     31  H   LIG    1        5.898  -1.928   0.236  0.00  0.00    +0.210 HD
ENDBRANCH  15  30
ENDBRANCH  14  15
ENDBRANCH  11  14
ENDBRANCH   9  11
ENDBRANCH   7   9
ENDBRANCH   1   7
BRANCH   3  32
ATOM     32  C   LIG    1        0.328   1.729  -5.941  0.00  0.00    +0.130 C 
BRANCH  32  33
ATOM     33  C   LIG    1        0.200   1.002  -7.287  0.00  0.00    +0.218 C 
ATOM     34  N   LIG    1       -0.971   0.384  -7.526  0.00  0.00    -0.311 N 
ATOM     35  H   LIG    1       -1.687   0.420  -6.815  0.00  0.00    +0.149 HD
ATOM     36  O   LIG    1        1.146   1.002  -8.076  0.00  0.00    -0.275 OA
BRANCH  34  37
ATOM     37  C   LIG    1       -1.303  -0.378  -8.729  0.00  0.00    +0.139 C 
BRANCH  37  38
ATOM     38  C   LIG    1       -2.470   0.229  -9.491  0.00  0.00    -0.030 A 
ATOM     39  C   LIG    1       -3.778  -0.185  -9.220  0.00  0.00    +0.013 A 
ATOM     40  C   LIG    1       -4.871   0.325  -9.939  0.00  0.00    -0.018 A 
ATOM     41  C   LIG    1       -4.611   1.260 -10.953  0.00  0.00    +0.008 A 
ATOM     42  C   LIG    1       -3.309   1.667 -11.242  0.00  0.00    +0.001 A 
ATOM     43  C   LIG    1       -2.239   1.148 -10.517  0.00  0.00    +0.005 A 
BRANCH  40  44
ATOM     44  C   LIG    1       -6.267  -0.116  -9.634  0.00  0.00    -0.018 A 
ATOM     45  C   LIG    1       -7.229  -0.207 -10.651  0.00  0.00    +0.012 A 
ATOM     46  C   LIG    1       -8.529  -0.620 -10.370  0.00  0.00    +0.046 A 
ATOM     47  C   LIG    1       -8.883  -0.945  -9.063  0.00  0.00    +0.117 A 
ATOM     48  C   LIG    1       -7.944  -0.860  -8.039  0.00  0.00    +0.046 A 
ATOM     49  C   LIG    1       -6.645  -0.448  -8.325  0.00  0.00    +0.012 A 
BRANCH  47  50
ATOM     50  O   LIG    1      -10.160  -1.351  -8.784  0.00  0.00    -0.507 OA
ATOM     51  H   LIG    1      -10.724  -1.374  -9.560  0.00  0.00    +0.292 HD
ENDBRANCH  47  50
ENDBRANCH  40  44
ENDBRANCH  37  38
ENDBRANCH  34  37
ENDBRANCH  32  33
ENDBRANCH   3  32
TORSDOF 16
