REMARK  Name = DB11808
REMARK                            x       y       z     vdW  Elec       q    Type
REMARK                         _______ _______ _______ _____ _____    ______ ____
ROOT
ATOM      1  C   LIG    1       -1.157  -2.842   1.054  0.00  0.00    +0.166 C 
ATOM      2  N   LIG    1       -1.191  -2.767  -0.420  0.00  0.00    -0.285 N 
ATOM      3  C   LIG    1       -0.699  -3.764  -1.204  0.00  0.00    +0.237 C 
ATOM      4  O   LIG    1       -0.261  -4.818  -0.738  0.00  0.00    -0.274 OA
ATOM      5  C   LIG    1       -1.395  -1.381  -0.849  0.00  0.00    +0.153 C 
ATOM      6  C   LIG    1       -0.747  -0.545   0.250  0.00  0.00    +0.193 C 
ATOM      7  C   LIG    1       -0.841  -1.404   1.518  0.00  0.00    +0.078 C 
ENDROOT
BRANCH   1  10
ATOM      8  N   LIG    1       -2.441  -4.344   2.506  0.00  0.00    -0.298 N 
ATOM      9  H   LIG    1       -1.530  -4.652   2.812  0.00  0.00    +0.150 HD
ATOM     10  C   LIG    1       -2.509  -3.362   1.587  0.00  0.00    +0.235 C 
ATOM     11  O   LIG    1       -3.566  -2.832   1.239  0.00  0.00    -0.274 OA
BRANCH   8  12
ATOM     12  C   LIG    1       -3.592  -4.962   3.190  0.00  0.00    +0.138 C 
ATOM     13  C   LIG    1       -4.635  -5.632   2.273  0.00  0.00    +0.048 C 
ATOM     14  C   LIG    1       -3.709  -6.487   3.081  0.00  0.00    +0.048 C 
BRANCH  12  15
ATOM     15  C   LIG    1       -3.993  -4.267   4.546  0.00  0.00    +0.329 C 
ATOM     16  O   LIG    1       -4.839  -4.820   5.287  0.00  0.00    -0.249 OA
BRANCH  15  17
ATOM     17  O   LIG    1       -3.437  -3.189   4.867  0.00  0.00    -0.479 OA
ATOM     18  H   LIG    1       -3.458  -2.898   5.758  0.00  0.00    +0.295 HD
ENDBRANCH  15  17
ENDBRANCH  12  15
BRANCH  13  19
ATOM     19  C   LIG    1       -6.126  -5.715   2.559  0.00  0.00    -0.028 C 
ATOM     20  C   LIG    1       -7.080  -5.526   1.635  0.00  0.00    +0.004 C 
ENDBRANCH  13  19
ENDBRANCH   8  12
ENDBRANCH   1  10
BRANCH   3  21
ATOM     21  C   LIG    1       -0.799  -3.655  -2.757  0.00  0.00    +0.168 C 
BRANCH  21  22
ATOM     22  C   LIG    1       -1.750  -4.705  -3.454  0.00  0.00    -0.011 C 
ATOM     23  C   LIG    1       -1.206  -6.158  -3.388  0.00  0.00    +0.013 C 
ATOM     24  C   LIG    1       -3.166  -4.681  -2.816  0.00  0.00    +0.013 C 
ATOM     25  C   LIG    1       -1.917  -4.340  -4.953  0.00  0.00    +0.013 C 
ENDBRANCH  21  22
BRANCH  21  26
ATOM     26  N   LIG    1        0.557  -3.664  -3.337  0.00  0.00    -0.269 N 
ATOM     27  H   LIG    1        1.004  -4.553  -3.505  0.00  0.00    +0.153 HD
ATOM     28  C   LIG    1        1.256  -2.487  -3.584  0.00  0.00    +0.401 C 
ATOM     29  O   LIG    1        0.853  -1.338  -3.390  0.00  0.00    -0.226 OA
BRANCH  28  30
ATOM     30  O   LIG    1        2.472  -2.800  -4.085  0.00  0.00    -0.447 OA
BRANCH  30  31
ATOM     31  C   LIG    1        3.394  -1.788  -4.495  0.00  0.00    +0.178 C 
ATOM     32  C   LIG    1        4.768  -2.446  -4.724  0.00  0.00    +0.045 C 
ATOM     33  C   LIG    1        5.354  -1.734  -5.943  0.00  0.00    +0.004 C 
ATOM     34  C   LIG    1        4.138  -1.474  -6.827  0.00  0.00    +0.004 C 
ATOM     35  C   LIG    1        3.012  -1.132  -5.844  0.00  0.00    +0.045 C 
ENDBRANCH  30  31
ENDBRANCH  28  30
ENDBRANCH  21  26
ENDBRANCH   3  21
BRANCH   6  36
ATOM     36  O   LIG    1        0.606  -0.334  -0.166  0.00  0.00    -0.486 OA
BRANCH  36  37
ATOM     37  C   LIG    1        1.440   0.511   0.547  0.00  0.00    +0.132 A 
ATOM     38  C   LIG    1        2.807   0.599   0.155  0.00  0.00    +0.043 A 
ATOM     39  C   LIG    1        3.342  -0.158  -0.915  0.00  0.00    +0.017 A 
ATOM     40  C   LIG    1        4.682  -0.040  -1.263  0.00  0.00    +0.047 A 
ATOM     41  C   LIG    1        5.542   0.825  -0.575  0.00  0.00    +0.136 A 
ATOM     42  C   LIG    1        5.043   1.581   0.492  0.00  0.00    +0.085 A 
ATOM     43 BR   LIG    1        6.224   2.756   1.435  0.00  0.00    -0.044 Br
ATOM     44  C   LIG    1        3.674   1.477   0.874  0.00  0.00    +0.093 A 
ATOM     45  N   LIG    1        3.219   2.218   1.923  0.00  0.00    -0.244 NA
ATOM     46  C   LIG    1        1.919   2.123   2.296  0.00  0.00    +0.094 A 
ATOM     47  C   LIG    1        1.015   1.292   1.631  0.00  0.00    +0.076 A 
BRANCH  46  48
ATOM     48  C   LIG    1        1.523   2.964   3.477  0.00  0.00    +0.098 A 
ATOM     49  N   LIG    1        0.281   2.921   3.936  0.00  0.00    -0.223 NA
ATOM     50  C   LIG    1        0.084   3.695   4.979  0.00  0.00    +0.165 A 
ATOM     51  S   LIG    1        1.475   4.577   5.501  0.00  0.00    -0.060 S 
ATOM     52  C   LIG    1        2.354   3.830   4.200  0.00  0.00    +0.078 A 
BRANCH  50  53
ATOM     53  N   LIG    1       -1.091   3.857   5.700  0.00  0.00    -0.264 N 
ATOM     54  H   LIG    1       -1.018   4.395   6.551  0.00  0.00    +0.157 HD
ATOM     55  C   LIG    1       -2.316   3.401   5.351  0.00  0.00    +0.221 C 
ATOM     56  O   LIG    1       -2.565   2.793   4.307  0.00  0.00    -0.275 OA
BRANCH  55  57
ATOM     57  C   LIG    1       -3.455   3.694   6.348  0.00  0.00    +0.069 C 
ATOM     58  C   LIG    1       -4.462   4.701   5.756  0.00  0.00    +0.017 C 
ATOM     59  C   LIG    1       -4.155   2.394   6.797  0.00  0.00    +0.017 C 
ENDBRANCH  55  57
ENDBRANCH  50  53
ENDBRANCH  46  48
BRANCH  41  60
ATOM     60  O   LIG    1        6.880   0.981  -0.891  0.00  0.00    -0.494 OA
ATOM     61  C   LIG    1        7.435   0.253  -1.982  0.00  0.00    +0.277 C 
ENDBRANCH  41  60
ENDBRANCH  36  37
ENDBRANCH   6  36
TORSDOF 16
