REMARK  Name = DB11974
REMARK                            x       y       z     vdW  Elec       q    Type
REMARK                         _______ _______ _______ _____ _____    ______ ____
ROOT
ATOM      1  C   LIG    1       -2.162  -1.239  -0.036  0.00  0.00    +0.049 A 
ATOM      2  C   LIG    1       -0.690  -1.329   0.024  0.00  0.00    +0.261 A 
ATOM      3  O   LIG    1       -0.121  -2.422   0.101  0.00  0.00    -0.267 OA
ATOM      4  N   LIG    1       -0.010  -0.126   0.010  0.00  0.00    -0.289 N 
ATOM      5  C   LIG    1       -0.654   1.160   0.037  0.00  0.00    +0.149 A 
ATOM      6  N   LIG    1        0.097   2.301   0.063  0.00  0.00    -0.197 NA
ATOM      7  C   LIG    1       -0.565   3.483   0.102  0.00  0.00    +0.215 A 
ATOM      8  N   LIG    1       -1.911   3.635   0.121  0.00  0.00    -0.219 NA
ATOM      9  C   LIG    1       -2.653   2.496   0.098  0.00  0.00    +0.052 A 
ATOM     10  C   LIG    1       -4.161   2.692   0.122  0.00  0.00    +0.066 C 
ATOM     11  C   LIG    1       -2.057   1.226   0.053  0.00  0.00    +0.039 A 
ATOM     12  C   LIG    1       -2.791  -0.041   0.014  0.00  0.00    +0.027 A 
ENDROOT
BRANCH   1  16
ATOM     13  C   LIG    1       -4.615  -4.744  -0.155  0.00  0.00    +0.214 A 
ATOM     14  N   LIG    1       -4.954  -3.711   0.657  0.00  0.00    -0.221 NA
ATOM     15  C   LIG    1       -4.155  -2.616   0.678  0.00  0.00    +0.123 A 
ATOM     16  C   LIG    1       -2.986  -2.486  -0.087  0.00  0.00    +0.006 A 
ATOM     17  C   LIG    1       -2.663  -3.564  -0.928  0.00  0.00    +0.015 A 
ATOM     18  C   LIG    1       -3.470  -4.702  -0.965  0.00  0.00    +0.068 A 
BRANCH  13  20
ATOM     19  C   LIG    1       -5.263  -6.947  -0.898  0.00  0.00    +0.279 C 
ATOM     20  O   LIG    1       -5.501  -5.801  -0.090  0.00  0.00    -0.480 OA
ENDBRANCH  13  20
ENDBRANCH   1  16
BRANCH   4  21
ATOM     21  C   LIG    1        1.488  -0.177   0.027  0.00  0.00    +0.092 C 
ATOM     22  C   LIG    1        2.128  -0.642   1.369  0.00  0.00    +0.028 C 
ATOM     23  C   LIG    1        3.668  -0.686   1.337  0.00  0.00    +0.033 C 
ATOM     24  C   LIG    1        4.187  -1.490   0.133  0.00  0.00    +0.119 C 
ATOM     25  C   LIG    1        3.704  -0.812  -1.168  0.00  0.00    +0.033 C 
ATOM     26  C   LIG    1        2.164  -0.777  -1.243  0.00  0.00    +0.028 C 
BRANCH  24  27
ATOM     27  O   LIG    1        5.608  -1.563   0.221  0.00  0.00    -0.374 OA
BRANCH  27  28
ATOM     28  C   LIG    1        6.235  -2.534  -0.612  0.00  0.00    +0.188 C 
BRANCH  28  29
ATOM     29  C   LIG    1        7.745  -2.564  -0.327  0.00  0.00    +0.184 C 
BRANCH  29  30
ATOM     30  O   LIG    1        8.370  -1.379  -0.778  0.00  0.00    -0.393 OA
ATOM     31  H   LIG    1        9.301  -1.418  -0.550  0.00  0.00    +0.209 HD
ENDBRANCH  29  30
ENDBRANCH  28  29
ENDBRANCH  27  28
ENDBRANCH  24  27
ENDBRANCH   4  21
BRANCH   7  32
ATOM     32  N   LIG    1        0.206   4.641   0.123  0.00  0.00    -0.327 N 
ATOM     33  H   LIG    1       -0.254   5.540   0.150  0.00  0.00    +0.145 HD
ATOM     34  H   LIG    1        1.212   4.565   0.108  0.00  0.00    +0.145 HD
ENDBRANCH   7  32
TORSDOF 8
