REMARK  Name = DB11673
REMARK                            x       y       z     vdW  Elec       q    Type
REMARK                         _______ _______ _______ _____ _____    ______ ____
ROOT
ATOM      1  C   LIG    1        0.003   0.038   0.035  0.00  0.00    +0.006 C 
ATOM      2  C   LIG    1       -0.688  -1.209   0.067  0.00  0.00    +0.121 C 
ATOM      3  C   LIG    1       -2.102  -1.217   0.029  0.00  0.00    +0.070 C 
ATOM      4  N   LIG    1       -2.757  -0.045  -0.044  0.00  0.00    -0.302 NA
ATOM      5  H   LIG    1       -3.767  -0.068  -0.072  0.00  0.00    +0.123 HD
ATOM      6  C   LIG    1       -2.152   1.150  -0.086  0.00  0.00    +0.081 C 
ATOM      7  C   LIG    1       -3.005  -2.454   0.060  0.00  0.00    +0.033 C 
ATOM      8  C   LIG    1       -0.758   1.230  -0.052  0.00  0.00    +0.028 C 
ENDROOT
BRANCH   2   9
ATOM      9  O   LIG    1       -0.049  -2.317   0.123  0.00  0.00    -0.383 OA
ATOM     10  H   LIG    1        0.904  -2.140   0.142  0.00  0.00    +0.210 HD
ENDBRANCH   2   9
BRANCH   1  11
ATOM     11  C   LIG    1        1.546   0.116   0.044  0.00  0.00    -0.075 C 
BRANCH  11  12
ATOM     12  N   LIG    1        2.195  -0.222   1.393  0.00  0.00    +0.379 N 
ATOM     13  H   LIG    1        1.893   0.432   2.101  0.00  0.00    -0.090 HD
ATOM     14  H   LIG    1        1.937  -1.158   1.673  0.00  0.00    -0.090 HD
ATOM     15  H   LIG    1        3.201  -0.175   1.315  0.00  0.00    -0.090 HD
ENDBRANCH  11  12
ENDBRANCH   1  11
BRANCH   8  16
ATOM     16  C   LIG    1       -0.130   2.621  -0.100  0.00  0.00    +0.165 C 
BRANCH  16  17
ATOM     17  O   LIG    1        0.440   2.918  -1.358  0.00  0.00    -0.394 OA
ATOM     18  H   LIG    1        0.732   3.833  -1.355  0.00  0.00    +0.209 HD
ENDBRANCH  16  17
ENDBRANCH   8  16
TORSDOF 5
