REMARK  Name = DB11647
REMARK                            x       y       z     vdW  Elec       q    Type
REMARK                         _______ _______ _______ _____ _____    ______ ____
ROOT
ATOM      1  C   LIG    1        0.180   0.146   0.047  0.00  0.00    +0.188 C 
ATOM      2  C   LIG    1       -0.404   1.586   0.001  0.00  0.00    +0.044 C 
ATOM      3  C   LIG    1       -0.214   2.200  -1.408  0.00  0.00    +0.016 C 
ATOM      4  C   LIG    1       -0.793   1.363  -2.586  0.00  0.00    +0.031 C 
ATOM      5  C   LIG    1       -2.149   1.864  -3.114  0.00  0.00    +0.044 C 
ATOM      6  C   LIG    1       -2.537   1.085  -4.360  0.00  0.00    -0.032 A 
ATOM      7  C   LIG    1       -3.232   1.732  -5.386  0.00  0.00    +0.004 A 
ATOM      8  C   LIG    1       -3.628   1.051  -6.528  0.00  0.00    +0.004 A 
ATOM      9  C   LIG    1       -3.327  -0.296  -6.660  0.00  0.00    +0.046 A 
ATOM     10  C   LIG    1       -2.624  -0.965  -5.658  0.00  0.00    +0.128 A 
ATOM     11  C   LIG    1       -2.203  -0.287  -4.483  0.00  0.00    +0.067 A 
ATOM     12  C   LIG    1       -1.418  -1.007  -3.389  0.00  0.00    +0.196 C 
ATOM     13  O   LIG    1       -1.214  -2.221  -3.448  0.00  0.00    -0.287 OA
ATOM     14  C   LIG    1       -0.888  -0.149  -2.283  0.00  0.00    +0.044 C 
ATOM     15  C   LIG    1       -1.869   1.681   0.494  0.00  0.00    +0.081 C 
ATOM     16  C   LIG    1       -2.183   0.729   1.661  0.00  0.00    +0.110 C 
ATOM     17  C   LIG    1       -1.367  -0.279   2.127  0.00  0.00    +0.119 C 
ATOM     18  C   LIG    1       -0.030  -0.449   1.480  0.00  0.00    +0.210 C 
ATOM     19  O   LIG    1        0.883  -1.055   2.054  0.00  0.00    -0.288 OA
ATOM     20  C   LIG    1       -0.454  -0.684  -1.102  0.00  0.00    +0.141 C 
ENDROOT
BRANCH  17  21
ATOM     21  C   LIG    1       -1.760  -1.172   3.237  0.00  0.00    +0.248 C 
ATOM     22  N   LIG    1       -1.409  -2.460   3.126  0.00  0.00    -0.325 N 
ATOM     23  H   LIG    1       -1.659  -3.115   3.852  0.00  0.00    +0.145 HD
ATOM     24  H   LIG    1       -0.886  -2.778   2.324  0.00  0.00    +0.145 HD
ATOM     25  O   LIG    1       -2.392  -0.793   4.223  0.00  0.00    -0.270 OA
ENDBRANCH  17  21
BRANCH   1  26
ATOM     26  O   LIG    1        1.583   0.201  -0.198  0.00  0.00    -0.373 OA
ATOM     27  H   LIG    1        1.936  -0.690  -0.140  0.00  0.00    +0.211 HD
ENDBRANCH   1  26
BRANCH  10  28
ATOM     28  O   LIG    1       -2.365  -2.293  -5.899  0.00  0.00    -0.506 OA
ATOM     29  H   LIG    1       -2.712  -2.593  -6.742  0.00  0.00    +0.292 HD
ENDBRANCH  10  28
BRANCH  16  30
ATOM     30  O   LIG    1       -3.385   0.991   2.072  0.00  0.00    -0.510 OA
ATOM     31  H   LIG    1       -3.752   0.505   2.785  0.00  0.00    +0.292 HD
ENDBRANCH  16  30
BRANCH  20  32
ATOM     32  O   LIG    1       -0.436  -2.022  -0.815  0.00  0.00    -0.507 OA
ATOM     33  H   LIG    1       -0.071  -2.157   0.063  0.00  0.00    +0.292 HD
ENDBRANCH  20  32
TORSDOF 5
