REMARK  Name = DB11989
REMARK                            x       y       z     vdW  Elec       q    Type
REMARK                         _______ _______ _______ _____ _____    ______ ____
ROOT
ATOM      1  C   LIG    1        1.524  -0.080   0.184  0.00  0.00    +0.233 C 
ATOM      2  O   LIG    1        2.303   0.822  -0.133  0.00  0.00    -0.274 OA
ATOM      3  N   LIG    1        1.928  -1.277   0.647  0.00  0.00    -0.310 N 
ATOM      4  H   LIG    1        1.226  -1.960   0.891  0.00  0.00    +0.149 HD
ENDROOT
BRANCH   1   5
ATOM      5  C   LIG    1        0.007   0.101   0.032  0.00  0.00    +0.220 C 
BRANCH   5   6
ATOM      6  N   LIG    1       -0.439   1.497   0.019  0.00  0.00    -0.303 N 
ATOM      7  C   LIG    1       -0.808   2.195  -1.104  0.00  0.00    +0.109 A 
ATOM      8  C   LIG    1       -1.162   3.459  -0.673  0.00  0.00    +0.132 A 
ATOM      9  N   LIG    1       -1.039   3.580   0.634  0.00  0.00    -0.215 NA
ATOM     10  C   LIG    1       -0.607   2.408   1.058  0.00  0.00    +0.287 A 
BRANCH  10  11
ATOM     11  N   LIG    1       -0.333   2.112   2.445  0.00  0.00    +0.043 N 
ATOM     12  O   LIG    1       -0.511   3.016   3.257  0.00  0.00    -0.127 OA
BRANCH  11  13
ATOM     13  O   LIG    1        0.058   0.996   2.765  0.00  0.00    -0.394 OA
ATOM     14  H   LIG    1        0.180   0.336   2.111  0.00  0.00    +0.329 HD
ENDBRANCH  11  13
ENDBRANCH  10  11
ENDBRANCH   5   6
ENDBRANCH   1   5
BRANCH   3  15
ATOM     15  C   LIG    1        3.315  -1.653   0.919  0.00  0.00    +0.139 C 
BRANCH  15  16
ATOM     16  C   LIG    1        3.940  -0.906   2.093  0.00  0.00    -0.030 A 
ATOM     17  C   LIG    1        3.600  -1.258   3.402  0.00  0.00    +0.005 A 
ATOM     18  C   LIG    1        4.183  -0.590   4.476  0.00  0.00    +0.000 A 
ATOM     19  C   LIG    1        5.113   0.420   4.237  0.00  0.00    +0.000 A 
ATOM     20  C   LIG    1        5.468   0.766   2.935  0.00  0.00    +0.000 A 
ATOM     21  C   LIG    1        4.885   0.098   1.861  0.00  0.00    +0.005 A 
ENDBRANCH  15  16
ENDBRANCH   3  15
TORSDOF 6
