REMARK  Name = DB11697
REMARK                            x       y       z     vdW  Elec       q    Type
REMARK                         _______ _______ _______ _____ _____    ______ ____
ROOT
ATOM      1  C   LIG    1       -1.852   1.588  -0.269  0.00  0.00    +0.021 A 
ATOM      2  C   LIG    1       -0.464   1.537  -0.068  0.00  0.00    +0.126 A 
ATOM      3  C   LIG    1        0.250   2.743   0.011  0.00  0.00    +0.048 A 
ATOM      4  C   LIG    1       -0.407   3.968  -0.102  0.00  0.00    +0.027 A 
ATOM      5  C   LIG    1       -1.788   4.025  -0.297  0.00  0.00    +0.034 A 
ATOM      6  N   LIG    1       -2.374   5.301  -0.399  0.00  0.00    -0.284 N 
ATOM      7  H   LIG    1       -1.696   6.045  -0.478  0.00  0.00    +0.155 HD
ATOM      8  C   LIG    1       -3.698   5.772  -0.403  0.00  0.00    +0.220 A 
ATOM      9  N   LIG    1       -3.833   7.114  -0.558  0.00  0.00    -0.223 NA
ATOM     10  C   LIG    1       -5.097   7.607  -0.556  0.00  0.00    +0.116 A 
ATOM     11  C   LIG    1       -6.220   6.792  -0.400  0.00  0.00    +0.048 A 
ATOM     12  C   LIG    1       -6.003   5.415  -0.239  0.00  0.00    +0.076 A 
ATOM     13  C   LIG    1       -7.121   4.428  -0.087  0.00  0.00    +0.001 A 
ATOM     14  C   LIG    1       -8.377   4.826   0.399  0.00  0.00    +0.010 A 
ATOM     15  C   LIG    1       -9.419   3.911   0.543  0.00  0.00    +0.001 A 
ATOM     16  C   LIG    1       -9.229   2.574   0.201  0.00  0.00    +0.006 A 
ATOM     17  C   LIG    1       -7.992   2.149  -0.288  0.00  0.00    -0.021 A 
ATOM     18  C   LIG    1       -7.769   0.694  -0.671  0.00  0.00    +0.195 C 
ATOM     19  O   LIG    1       -7.312   0.632  -2.018  0.00  0.00    -0.371 OA
ATOM     20  C   LIG    1       -6.935  -0.657  -2.490  0.00  0.00    +0.187 C 
ATOM     21  C   LIG    1       -5.650  -1.150  -1.847  0.00  0.00    -0.001 C 
ATOM     22  C   LIG    1       -4.438  -1.090  -2.425  0.00  0.00    -0.001 C 
ATOM     23  C   LIG    1       -3.145  -1.550  -1.775  0.00  0.00    +0.187 C 
ATOM     24  O   LIG    1       -2.292  -0.448  -1.486  0.00  0.00    -0.371 OA
ATOM     25  C   LIG    1       -6.952   3.073  -0.423  0.00  0.00    +0.016 A 
ATOM     26  N   LIG    1       -4.736   4.909  -0.241  0.00  0.00    -0.214 NA
ATOM     27  C   LIG    1       -2.500   2.822  -0.390  0.00  0.00    +0.032 A 
ATOM     28  C   LIG    1       -2.676   0.309  -0.342  0.00  0.00    +0.199 C 
ENDROOT
BRANCH   2  29
ATOM     29  O   LIG    1        0.121   0.288   0.046  0.00  0.00    -0.490 OA
BRANCH  29  30
ATOM     30  C   LIG    1        1.541   0.175   0.077  0.00  0.00    +0.244 C 
BRANCH  30  31
ATOM     31  C   LIG    1        1.898  -1.322   0.050  0.00  0.00    +0.125 C 
BRANCH  31  32
ATOM     32  N   LIG    1        3.343  -1.557   0.075  0.00  0.00    -0.299 NA
ATOM     33  C   LIG    1        4.040  -1.135  -1.135  0.00  0.00    +0.084 C 
ATOM     34  C   LIG    1        5.394  -1.849  -1.100  0.00  0.00    +0.017 C 
ATOM     35  C   LIG    1        5.154  -3.064  -0.199  0.00  0.00    +0.017 C 
ATOM     36  C   LIG    1        3.671  -2.973   0.162  0.00  0.00    +0.084 C 
ENDBRANCH  31  32
ENDBRANCH  30  31
ENDBRANCH  29  30
ENDBRANCH   2  29
TORSDOF 4
