REMARK  Name = DB11810
REMARK                            x       y       z     vdW  Elec       q    Type
REMARK                         _______ _______ _______ _____ _____    ______ ____
ROOT
ATOM      1  C   UNK A  1       -3.984   2.669  -1.071  0.00  0.00    +0.098 C 
ENDROOT
BRANCH   1   2
ATOM      2  C   UNK A  1       -2.806   1.682  -1.028  0.00  0.00    +0.213 C 
ATOM      3  N   UNK A  1       -1.938   1.835  -0.012  0.00  0.00    -0.316 N 
ATOM      4  H   UNK A  1       -2.175   2.494   0.715  0.00  0.00    +0.149 HD
ATOM      5  O   UNK A  1       -2.696   0.805  -1.886  0.00  0.00    -0.276 OA
BRANCH   3   6
ATOM      6  C   UNK A  1       -0.771   0.987   0.244  0.00  0.00    +0.097 C 
BRANCH   6   7
ATOM      7  C   UNK A  1        0.520   1.467  -0.475  0.00  0.00    +0.030 C 
BRANCH   7   8
ATOM      8  N   UNK A  1        0.616   1.086  -1.928  0.00  0.00    +0.387 N 
ATOM      9  H   UNK A  1        0.892   0.117  -1.999  0.00  0.00    -0.089 HD
ATOM     10  H   UNK A  1       -0.290   1.211  -2.358  0.00  0.00    -0.089 HD
ATOM     11  H   UNK A  1        1.298   1.676  -2.385  0.00  0.00    -0.089 HD
ENDBRANCH   7   8
BRANCH   7  12
ATOM     12  C   UNK A  1        1.835   0.967   0.165  0.00  0.00    +0.201 C 
ATOM     13  N   ASP A  2        2.954   1.662  -0.120  0.00  0.00    -0.305 N 
ATOM     14  H   ASP A  2        2.902   2.460  -0.736  0.00  0.00    +0.149 HD
ATOM     15  O   UNK A  1        1.814  -0.008   0.919  0.00  0.00    -0.278 OA
BRANCH  13  16
ATOM     16  CA  ASP A  2        4.283   1.385   0.433  0.00  0.00    +0.169 C 
BRANCH  16  17
ATOM     17  C   ASP A  2        4.425   1.957   1.852  0.00  0.00    +0.235 C 
ATOM     18  N   CYS A  3        5.237   1.275   2.679  0.00  0.00    -0.300 N 
ATOM     19  H   CYS A  3        5.699   0.447   2.334  0.00  0.00    +0.150 HD
ATOM     20  O   ASP A  2        3.811   2.977   2.168  0.00  0.00    -0.274 OA
BRANCH  18  21
ATOM     21  CA  CYS A  3        5.509   1.608   4.087  0.00  0.00    +0.191 C 
BRANCH  21  22
ATOM     22  C   CYS A  3        6.572   2.766   4.165  0.00  0.00    +0.326 C 
ATOM     23  O   CYS A  3        6.149   3.835   4.663  0.00  0.00    -0.249 OA
BRANCH  22  24
ATOM     24  OXT CYS A  3        7.718   2.486   3.738  0.00  0.00    -0.479 OA
ATOM     25  HXT CYS A  3        7.892   1.634   3.388  0.00  0.00    +0.295 HD
ENDBRANCH  22  24
ENDBRANCH  21  22
BRANCH  21  26
ATOM     26  CB  CYS A  3        5.919   0.329   4.867  0.00  0.00    +0.099 C 
BRANCH  26  27
ATOM     27  SG  CYS A  3        6.053   0.617   6.659  0.00  0.00    -0.176 S 
ATOM     28  HG  CYS A  3        6.432  -0.625   6.972  0.00  0.00    +0.102 HD
ENDBRANCH  26  27
ENDBRANCH  21  26
ENDBRANCH  18  21
ENDBRANCH  16  17
BRANCH  16  29
ATOM     29  CB  ASP A  2        5.426   1.898  -0.477  0.00  0.00    +0.152 C 
BRANCH  29  30
ATOM     30  CG  ASP A  2        5.297   1.447  -1.942  0.00  0.00    +0.307 C 
ATOM     31  OD1 ASP A  2        4.709   2.217  -2.735  0.00  0.00    -0.251 OA
BRANCH  30  32
ATOM     32  OD2 ASP A  2        5.622   0.268  -2.202  0.00  0.00    -0.481 OA
ATOM     33  HD2 ASP A  2        6.062  -0.250  -1.557  0.00  0.00    +0.295 HD
ENDBRANCH  30  32
ENDBRANCH  29  30
ENDBRANCH  16  29
ENDBRANCH  13  16
ENDBRANCH   7  12
ENDBRANCH   6   7
ENDBRANCH   3   6
ENDBRANCH   1   2
BRANCH   1  34
ATOM     34  C   UNK A  1       -4.193   3.361  -2.447  0.00  0.00    +0.043 C 
BRANCH  34  35
ATOM     35  C   UNK A  1       -3.726   4.854  -2.494  0.00  0.00    +0.182 C 
BRANCH  35  37
ATOM     36  C   UNK A  0       -1.211   4.536  -2.645  0.00  0.00    +0.245 C 
ATOM     37  N   UNK A  1       -2.321   5.029  -2.054  0.00  0.00    -0.298 N 
ATOM     38  H   UNK A  1       -2.205   5.615  -1.241  0.00  0.00    +0.150 HD
ATOM     39  O   UNK A  0       -1.249   3.849  -3.668  0.00  0.00    -0.270 OA
BRANCH  36  41
ATOM     40  C   UNK A  0        1.305   4.629  -2.681  0.00  0.00    +0.015 A 
ATOM     41  C   UNK A  0        0.112   4.857  -1.983  0.00  0.00    +0.037 A 
ATOM     42  C   UNK A  0        0.180   5.346  -0.669  0.00  0.00    +0.015 A 
ATOM     43  C   UNK A  0        1.412   5.580  -0.064  0.00  0.00    +0.023 A 
ATOM     44  C   UNK A  0        2.598   5.335  -0.766  0.00  0.00    +0.027 A 
ATOM     45  C   UNK A  0        2.535   4.869  -2.078  0.00  0.00    +0.023 A 
BRANCH  44  46
ATOM     46  N   UNK A  0        3.872   5.527  -0.210  0.00  0.00    -0.338 N 
ATOM     47  H   UNK A  0        4.682   5.411  -0.802  0.00  0.00    +0.146 HD
BRANCH  46  48
ATOM     48  C   UNK A  0        4.074   6.097   1.121  0.00  0.00    +0.158 C 
BRANCH  48  49
ATOM     49  C   UNK A  0        5.529   6.053   1.592  0.00  0.00    +0.077 A 
ATOM     50  N   UNK A  0        6.398   5.199   0.975  0.00  0.00    -0.240 NA
ATOM     51  C   UNK A  0        7.670   5.167   1.449  0.00  0.00    +0.172 A 
ATOM     52  C   UNK A  0        8.677   4.231   0.807  0.00  0.00    +0.279 A 
ATOM     53  O   UNK A  0        8.462   3.482  -0.145  0.00  0.00    -0.265 OA
ATOM     54  N   UNK A  0        9.896   4.304   1.413  0.00  0.00    -0.312 N 
ATOM     55  H   UNK A  0       10.602   3.692   1.032  0.00  0.00    +0.170 HD
ATOM     56  C   UNK A  0       10.245   5.107   2.473  0.00  0.00    +0.201 A 
ATOM     57  N   UNK A  0        9.403   5.912   3.021  0.00  0.00    -0.216 NA
ATOM     58  C   UNK A  0        8.083   5.968   2.531  0.00  0.00    +0.185 A 
ATOM     59  N   UNK A  0        7.215   6.815   3.144  0.00  0.00    -0.232 NA
ATOM     60  C   UNK A  0        5.939   6.846   2.672  0.00  0.00    +0.138 A 
ENDBRANCH  48  49
ENDBRANCH  46  48
ENDBRANCH  44  46
ENDBRANCH  36  41
ENDBRANCH  35  37
BRANCH  35  61
ATOM     61  C   UNK A  1       -4.076   5.640  -3.827  0.00  0.00    +0.325 C 
ATOM     62  O   UNK A  1       -5.092   5.238  -4.440  0.00  0.00    -0.249 OA
BRANCH  61  63
ATOM     63  O   UNK A  1       -3.369   6.643  -4.092  0.00  0.00    -0.479 OA
ATOM     64  H   UNK A  1       -2.627   6.846  -3.558  0.00  0.00    +0.295 HD
ENDBRANCH  61  63
ENDBRANCH  35  61
ENDBRANCH  34  35
ENDBRANCH   1  34
TORSDOF 24
