REMARK  Name = DB11231
REMARK                            x       y       z     vdW  Elec       q    Type
REMARK                         _______ _______ _______ _____ _____    ______ ____
ROOT
ATOM      1  C   LIG    1        1.553   1.286   0.096  0.00  0.00    +0.000 C 
ATOM      2  C   LIG    1        2.143   0.114  -0.199  0.00  0.00    +0.000 C 
ENDROOT
BRANCH   1   4
ATOM      3  C   LIG    1       -0.578   2.621   0.253  0.00  0.00    -0.050 C 
ATOM      4  C   LIG    1        0.113   1.482   0.005  0.00  0.00    +0.003 C 
ATOM      5  C   LIG    1        0.099   3.929   0.668  0.00  0.00    +0.044 C 
BRANCH   3   7
ATOM      6  C   LIG    1       -2.885   3.587   0.313  0.00  0.00    +0.001 C 
ATOM      7  C   LIG    1       -2.031   2.566   0.098  0.00  0.00    +0.003 C 
BRANCH   6   9
ATOM      8  C   LIG    1       -5.270   4.401   0.315  0.00  0.00    -0.050 C 
ATOM      9  C   LIG    1       -4.324   3.448   0.138  0.00  0.00    +0.003 C 
ATOM     10  C   LIG    1       -4.939   5.832   0.741  0.00  0.00    +0.044 C 
BRANCH   8  12
ATOM     11  C   LIG    1       -7.736   4.810   0.224  0.00  0.00    +0.000 C 
ATOM     12  C   LIG    1       -6.660   4.013   0.076  0.00  0.00    +0.003 C 
BRANCH  11  14
ATOM     13  C   LIG    1      -10.235   5.057   0.087  0.00  0.00    -0.072 C 
ATOM     14  C   LIG    1       -9.089   4.346  -0.042  0.00  0.00    -0.001 C 
ATOM     15  C   LIG    1      -10.299   6.504   0.567  0.00  0.00    +0.039 C 
BRANCH  13  16
ATOM     16  C   LIG    1      -11.620   4.482  -0.235  0.00  0.00    +0.034 C 
BRANCH  16  17
ATOM     17  C   LIG    1      -11.710   3.092  -0.905  0.00  0.00    +0.031 C 
BRANCH  17  20
ATOM     18  C   LIG    1       -9.885   2.390  -4.357  0.00  0.00    +0.038 C 
ATOM     19  C   LIG    1      -10.268   2.259  -2.892  0.00  0.00    -0.080 C 
ATOM     20  C   LIG    1      -11.204   3.064  -2.343  0.00  0.00    -0.028 C 
ATOM     21  C   LIG    1       -9.507   1.164  -2.156  0.00  0.00    +0.038 C 
ENDBRANCH  17  20
ENDBRANCH  16  17
ENDBRANCH  13  16
ENDBRANCH  11  14
ENDBRANCH   8  12
ENDBRANCH   6   9
ENDBRANCH   3   7
ENDBRANCH   1   4
BRANCH   2  22
ATOM     22  C   LIG    1        3.580  -0.091  -0.105  0.00  0.00    +0.003 C 
ATOM     23  C   LIG    1        4.262  -1.213  -0.447  0.00  0.00    -0.050 C 
ATOM     24  C   LIG    1        3.588  -2.443  -1.046  0.00  0.00    +0.044 C 
BRANCH  23  25
ATOM     25  C   LIG    1        5.713  -1.257  -0.304  0.00  0.00    +0.003 C 
ATOM     26  C   LIG    1        6.556  -0.239  -0.570  0.00  0.00    +0.001 C 
BRANCH  26  27
ATOM     27  C   LIG    1        7.999  -0.354  -0.416  0.00  0.00    +0.003 C 
ATOM     28  C   LIG    1        8.920   0.625  -0.584  0.00  0.00    -0.050 C 
ATOM     29  C   LIG    1        8.544   2.063  -0.948  0.00  0.00    +0.044 C 
BRANCH  28  30
ATOM     30  C   LIG    1       10.324   0.263  -0.392  0.00  0.00    +0.003 C 
ATOM     31  C   LIG    1       11.373   1.103  -0.497  0.00  0.00    +0.000 C 
BRANCH  31  32
ATOM     32  C   LIG    1       12.746   0.663  -0.300  0.00  0.00    -0.001 C 
ATOM     33  C   LIG    1       13.859   1.435  -0.317  0.00  0.00    -0.072 C 
ATOM     34  C   LIG    1       13.854   2.943  -0.547  0.00  0.00    +0.039 C 
BRANCH  33  35
ATOM     35  C   LIG    1       15.272   0.880  -0.102  0.00  0.00    +0.034 C 
BRANCH  35  36
ATOM     36  C   LIG    1       15.439  -0.617   0.250  0.00  0.00    +0.031 C 
BRANCH  36  37
ATOM     37  C   LIG    1       14.942  -0.989   1.642  0.00  0.00    -0.028 C 
ATOM     38  C   LIG    1       14.069  -1.960   1.992  0.00  0.00    -0.080 C 
ATOM     39  C   LIG    1       13.396  -2.927   1.027  0.00  0.00    +0.038 C 
ATOM     40  C   LIG    1       13.679  -2.175   3.445  0.00  0.00    +0.038 C 
ENDBRANCH  36  37
ENDBRANCH  35  36
ENDBRANCH  33  35
ENDBRANCH  31  32
ENDBRANCH  28  30
ENDBRANCH  26  27
ENDBRANCH  23  25
ENDBRANCH   2  22
TORSDOF 16
