REMARK  Name = DB11946
REMARK                            x       y       z     vdW  Elec       q    Type
REMARK                         _______ _______ _______ _____ _____    ______ ____
ROOT
ATOM      1  C   LIG    1       -1.197   3.041   0.800  0.00  0.00    +0.065 C 
ATOM      2  C   LIG    1       -1.319   1.562   0.480  0.00  0.00    +0.031 A 
ATOM      3  N   LIG    1       -2.555   0.945   0.383  0.00  0.00    -0.332 N 
ATOM      4  C   LIG    1       -2.378  -0.401   0.105  0.00  0.00    +0.053 A 
ATOM      5  C   LIG    1       -3.323  -1.421  -0.068  0.00  0.00    +0.026 A 
ATOM      6  C   LIG    1       -2.843  -2.697  -0.340  0.00  0.00    +0.004 A 
ATOM      7  C   LIG    1       -1.484  -2.962  -0.448  0.00  0.00    +0.024 A 
ATOM      8  C   LIG    1       -0.525  -1.949  -0.293  0.00  0.00    +0.044 A 
ATOM      9  C   LIG    1       -0.974  -0.640   0.004  0.00  0.00    +0.035 A 
ATOM     10  C   LIG    1       -0.323   0.627   0.242  0.00  0.00    +0.043 A 
ENDROOT
BRANCH   8  11
ATOM     11  N   LIG    1        0.859  -2.190  -0.384  0.00  0.00    -0.285 N 
ATOM     12  H   LIG    1        1.434  -1.479   0.045  0.00  0.00    +0.155 HD
ATOM     13  C   LIG    1        1.510  -3.168  -1.048  0.00  0.00    +0.214 C 
ATOM     14  C   LIG    1        3.032  -3.135  -0.940  0.00  0.00    +0.109 C 
ATOM     15  O   LIG    1        0.980  -4.037  -1.739  0.00  0.00    -0.276 OA
ENDBRANCH   8  11
BRANCH   3  16
ATOM     16  C   LIG    1       -3.865   1.599   0.563  0.00  0.00    +0.242 C 
BRANCH  16  17
ATOM     17  C   LIG    1       -4.540   1.359   1.937  0.00  0.00    +0.325 C 
ATOM     18  O   LIG    1       -5.693   1.829   2.065  0.00  0.00    -0.249 OA
BRANCH  17  19
ATOM     19  O   LIG    1       -3.936   0.737   2.842  0.00  0.00    -0.479 OA
ATOM     20  H   LIG    1       -3.072   0.407   2.687  0.00  0.00    +0.295 HD
ENDBRANCH  17  19
ENDBRANCH  16  17
ENDBRANCH   3  16
BRANCH  10  21
ATOM     21  S   LIG    1        1.414   0.959   0.237  0.00  0.00    -0.087 S 
BRANCH  21  22
ATOM     22  C   LIG    1        1.866   0.712  -1.466  0.00  0.00    +0.013 A 
ATOM     23  C   LIG    1        0.925   0.772  -2.501  0.00  0.00    +0.016 A 
ATOM     24  C   LIG    1        1.326   0.550  -3.816  0.00  0.00    +0.021 A 
ATOM     25  C   LIG    1        2.663   0.276  -4.096  0.00  0.00    +0.041 A 
ATOM     26 CL   LIG    1        3.157  -0.004  -5.725  0.00  0.00    -0.084 Cl
ATOM     27  C   LIG    1        3.605   0.229  -3.070  0.00  0.00    +0.021 A 
ATOM     28  C   LIG    1        3.206   0.451  -1.755  0.00  0.00    +0.016 A 
ENDBRANCH  21  22
ENDBRANCH  10  21
TORSDOF 6
