REMARK  Name = DB11630
REMARK                            x       y       z     vdW  Elec       q    Type
REMARK                         _______ _______ _______ _____ _____    ______ ____
ROOT
ATOM      1  C   LIG    1        1.367  -0.095  -0.165  0.00  0.00    +0.029 C 
ATOM      2  C   LIG    1        2.094   1.128  -0.189  0.00  0.00    +0.049 A 
ATOM      3  N   LIG    1        3.467   1.337  -0.136  0.00  0.00    -0.354 N 
ATOM      4  H   LIG    1        4.152   0.596  -0.077  0.00  0.00    +0.166 HD
ATOM      5  C   LIG    1        3.782   2.688  -0.155  0.00  0.00    +0.049 A 
ATOM      6  C   LIG    1        5.042   3.347  -0.096  0.00  0.00    +0.023 C 
ATOM      7  C   LIG    1        6.271   2.673  -0.012  0.00  0.00    +0.018 C 
ATOM      8  N   LIG    1        6.461   1.325   0.002  0.00  0.00    -0.320 N 
ATOM      9  H   LIG    1        5.744   0.650   0.002  0.00  0.00    +0.152 HD
ATOM     10  C   LIG    1        7.795   1.054   0.015  0.00  0.00    +0.018 C 
ATOM     11  C   LIG    1        8.395  -0.213   0.098  0.00  0.00    +0.023 C 
ATOM     12  C   LIG    1        7.663  -1.431   0.157  0.00  0.00    +0.049 A 
ATOM     13  N   LIG    1        6.296  -1.665   0.138  0.00  0.00    -0.354 N 
ATOM     14  H   LIG    1        5.597  -0.938   0.078  0.00  0.00    +0.166 HD
ATOM     15  C   LIG    1        6.005  -3.023   0.191  0.00  0.00    +0.049 A 
ATOM     16  C   LIG    1        4.742  -3.676   0.168  0.00  0.00    +0.029 C 
ATOM     17  C   LIG    1        3.507  -2.976   0.074  0.00  0.00    +0.049 A 
ATOM     18  N   LIG    1        3.352  -1.605   0.000  0.00  0.00    -0.354 N 
ATOM     19  H   LIG    1        4.069  -0.930  -0.000  0.00  0.00    +0.166 HD
ATOM     20  C   LIG    1        2.273  -3.565   0.051  0.00  0.00    +0.028 A 
ATOM     21  C   LIG    1        1.332  -2.565  -0.053  0.00  0.00    +0.028 A 
ATOM     22  C   LIG    1        7.226  -3.640   0.256  0.00  0.00    +0.028 A 
ATOM     23  C   LIG    1        8.227  -2.678   0.239  0.00  0.00    +0.028 A 
ATOM     24  C   LIG    1        8.599   2.327  -0.125  0.00  0.00    +0.057 C 
ATOM     25  C   LIG    1        7.589   3.399   0.127  0.00  0.00    +0.057 C 
ATOM     26  C   LIG    1        2.571   3.325  -0.238  0.00  0.00    +0.028 A 
ATOM     27  C   LIG    1        1.551   2.384  -0.254  0.00  0.00    +0.028 A 
ATOM     28  C   LIG    1        1.993  -1.369  -0.074  0.00  0.00    +0.049 A 
ENDROOT
BRANCH   1  33
ATOM     29  C   LIG    1       -2.166   0.371  -1.481  0.00  0.00    +0.004 A 
ATOM     30  C   LIG    1       -2.926   0.065  -0.352  0.00  0.00    +0.045 A 
ATOM     31  C   LIG    1       -2.291  -0.288   0.839  0.00  0.00    +0.117 A 
ATOM     32  C   LIG    1       -0.898  -0.337   0.898  0.00  0.00    +0.054 A 
ATOM     33  C   LIG    1       -0.124  -0.034  -0.230  0.00  0.00    -0.011 A 
ATOM     34  C   LIG    1       -0.773   0.322  -1.419  0.00  0.00    +0.009 A 
BRANCH  31  35
ATOM     35  O   LIG    1       -3.035  -0.588   1.949  0.00  0.00    -0.507 OA
ATOM     36  H   LIG    1       -3.980  -0.522   1.794  0.00  0.00    +0.292 HD
ENDBRANCH  31  35
ENDBRANCH   1  33
BRANCH  16  37
ATOM     37  C   LIG    1        4.715  -5.168   0.233  0.00  0.00    -0.011 A 
ATOM     38  C   LIG    1        4.373  -5.922  -0.896  0.00  0.00    +0.054 A 
ATOM     39  C   LIG    1        4.346  -7.316  -0.839  0.00  0.00    +0.117 A 
ATOM     40  C   LIG    1        4.664  -7.971   0.351  0.00  0.00    +0.045 A 
ATOM     41  C   LIG    1        5.007  -7.231   1.482  0.00  0.00    +0.004 A 
ATOM     42  C   LIG    1        5.032  -5.837   1.422  0.00  0.00    +0.009 A 
BRANCH  39  43
ATOM     43  O   LIG    1        4.006  -8.040  -1.951  0.00  0.00    -0.507 OA
ATOM     44  H   LIG    1        4.014  -8.988  -1.796  0.00  0.00    +0.292 HD
ENDBRANCH  39  43
ENDBRANCH  16  37
BRANCH  11  45
ATOM     45  C   LIG    1        9.883  -0.283   0.111  0.00  0.00    -0.011 A 
ATOM     46  C   LIG    1       10.596  -0.482  -1.078  0.00  0.00    +0.054 A 
ATOM     47  C   LIG    1       11.990  -0.544  -1.067  0.00  0.00    +0.117 A 
ATOM     48  C   LIG    1       12.684  -0.408   0.136  0.00  0.00    +0.045 A 
ATOM     49  C   LIG    1       11.983  -0.212   1.325  0.00  0.00    +0.004 A 
ATOM     50  C   LIG    1       10.590  -0.151   1.312  0.00  0.00    +0.009 A 
BRANCH  47  51
ATOM     51  O   LIG    1       12.678  -0.739  -2.235  0.00  0.00    -0.507 OA
ATOM     52  H   LIG    1       12.104  -0.823  -2.999  0.00  0.00    +0.292 HD
ENDBRANCH  47  51
ENDBRANCH  11  45
BRANCH   6  53
ATOM     53  C   LIG    1        5.059   4.837  -0.111  0.00  0.00    -0.011 A 
ATOM     54  C   LIG    1        4.898   5.561   1.076  0.00  0.00    +0.054 A 
ATOM     55  C   LIG    1        4.910   6.957   1.063  0.00  0.00    +0.117 A 
ATOM     56  C   LIG    1        5.082   7.641  -0.141  0.00  0.00    +0.045 A 
ATOM     57  C   LIG    1        5.242   6.928  -1.329  0.00  0.00    +0.004 A 
ATOM     58  C   LIG    1        5.229   5.533  -1.313  0.00  0.00    +0.009 A 
BRANCH  55  59
ATOM     59  O   LIG    1        4.750   7.657   2.230  0.00  0.00    -0.507 OA
ATOM     60  H   LIG    1        4.635   7.089   2.995  0.00  0.00    +0.292 HD
ENDBRANCH  55  59
ENDBRANCH   6  53
TORSDOF 8
