REMARK  Name = DB11359
REMARK                            x       y       z     vdW  Elec       q    Type
REMARK                         _______ _______ _______ _____ _____    ______ ____
ROOT
ATOM      1  C   LIG    1        1.407   0.045   0.000  0.00  0.00    +0.161 A 
ATOM      2  C   LIG    1        2.164   1.232   0.000  0.00  0.00    +0.049 A 
ATOM      3  C   LIG    1        3.558   1.187   0.000  0.00  0.00    +0.004 A 
ATOM      4  C   LIG    1        4.217  -0.040   0.000  0.00  0.00    +0.004 A 
ATOM      5  C   LIG    1        3.482  -1.223   0.000  0.00  0.00    +0.049 A 
ATOM      6  C   LIG    1        2.086  -1.183   0.000  0.00  0.00    +0.158 A 
ENDROOT
BRANCH   1   7
ATOM      7  O   LIG    1        0.023   0.014   0.000  0.00  0.00    -0.491 OA
ATOM      8  C   LIG    1       -0.703   1.238   0.000  0.00  0.00    +0.277 C 
ENDBRANCH   1   7
BRANCH   6   9
ATOM      9  O   LIG    1        1.390  -2.365   0.000  0.00  0.00    -0.503 OA
ATOM     10  H   LIG    1        1.963  -3.135   0.000  0.00  0.00    +0.292 HD
ENDBRANCH   6   9
TORSDOF 2
