REMARK  Name = DB11795
REMARK                            x       y       z     vdW  Elec       q    Type
REMARK                         _______ _______ _______ _____ _____    ______ ____
ROOT
ATOM      1  N   LIG    1        1.427   0.144   0.224  0.00  0.00    -0.323 N 
ATOM      2  C   LIG    1        2.348   1.049   0.717  0.00  0.00    +0.072 A 
ATOM      3  C   LIG    1        2.244   2.103   1.627  0.00  0.00    +0.051 A 
ATOM      4  C   LIG    1        3.402   2.848   1.904  0.00  0.00    +0.033 A 
ATOM      5  C   LIG    1        4.612   2.506   1.281  0.00  0.00    +0.040 A 
ATOM      6  C   LIG    1        4.736   1.454   0.358  0.00  0.00    +0.088 A 
ATOM      7  C   LIG    1        3.566   0.714   0.074  0.00  0.00    +0.103 A 
ATOM      8  N   LIG    1        3.377  -0.353  -0.770  0.00  0.00    -0.232 NA
ATOM      9  C   LIG    1        2.108  -0.653  -0.675  0.00  0.00    +0.108 A 
ATOM     10  C   LIG    1        1.456  -1.761  -1.477  0.00  0.00    +0.086 C 
ENDROOT
BRANCH   4  11
ATOM     11  N   LIG    1        3.373   3.918   2.802  0.00  0.00    -0.325 N 
ATOM     12  C   LIG    1        3.928   5.219   2.379  0.00  0.00    +0.133 C 
ATOM     13  C   LIG    1        4.191   6.177   3.560  0.00  0.00    +0.178 C 
ATOM     14  O   LIG    1        3.001   6.361   4.311  0.00  0.00    -0.377 OA
ATOM     15  C   LIG    1        2.514   5.135   4.835  0.00  0.00    +0.178 C 
ATOM     16  C   LIG    1        2.212   4.154   3.682  0.00  0.00    +0.133 C 
ENDBRANCH   4  11
BRANCH   6  17
ATOM     17  C   LIG    1        6.059   1.158  -0.280  0.00  0.00    +0.339 C 
ATOM     18  O   LIG    1        6.097   1.067  -1.529  0.00  0.00    -0.245 OA
BRANCH  17  19
ATOM     19  O   LIG    1        7.053   1.034   0.473  0.00  0.00    -0.477 OA
ATOM     20  H   LIG    1        6.951   1.115   1.401  0.00  0.00    +0.295 HD
ENDBRANCH  17  19
ENDBRANCH   6  17
BRANCH   1  21
ATOM     21  C   LIG    1       -0.002   0.106   0.543  0.00  0.00    +0.159 C 
BRANCH  21  28
ATOM     22  C   LIG    1       -2.728   0.615   1.560  0.00  0.00    +0.044 C 
ATOM     23  C   LIG    1       -2.167   1.478   0.424  0.00  0.00    -0.034 A 
ATOM     24  C   LIG    1       -2.937   2.528  -0.135  0.00  0.00    +0.058 A 
ATOM     25  C   LIG    1       -2.402   3.276  -1.192  0.00  0.00    +0.012 A 
ATOM     26  C   LIG    1       -1.138   3.002  -1.695  0.00  0.00    +0.001 A 
ATOM     27  C   LIG    1       -0.379   1.981  -1.140  0.00  0.00    +0.005 A 
ATOM     28  C   LIG    1       -0.872   1.214  -0.076  0.00  0.00    -0.024 A 
BRANCH  24  29
ATOM     29  C   LIG    1       -4.333   2.894   0.395  0.00  0.00    +0.418 C 
ATOM     30  F   LIG    1       -4.309   3.047   1.719  0.00  0.00    -0.166 F 
ATOM     31  F   LIG    1       -5.198   1.929   0.083  0.00  0.00    -0.166 F 
ATOM     32  F   LIG    1       -4.796   4.034  -0.124  0.00  0.00    -0.166 F 
ENDBRANCH  24  29
ENDBRANCH  21  28
ENDBRANCH   1  21
TORSDOF 6
