REMARK  Name = DB11638
REMARK                            x       y       z     vdW  Elec       q    Type
REMARK                         _______ _______ _______ _____ _____    ______ ____
ROOT
ATOM      1  C   LIG    1       -0.085  -0.064   0.103  0.00  0.00    +0.008 C 
ATOM      2  C   LIG    1        1.454   0.021   0.016  0.00  0.00    -0.008 C 
ATOM      3  C   LIG    1        2.016   0.681  -1.300  0.00  0.00    +0.032 C 
ATOM      4  C   LIG    1        3.596   0.729  -1.273  0.00  0.00    +0.161 C 
ATOM      5  O   LIG    1        4.064  -0.621  -1.111  0.00  0.00    -0.220 OA
ATOM      6  O   LIG    1        4.172  -1.413  -2.376  0.00  0.00    -0.199 OA
ATOM      7  C   LIG    1        3.559  -0.803  -3.531  0.00  0.00    +0.203 C 
ATOM      8  O   LIG    1        3.875   0.608  -3.707  0.00  0.00    -0.314 OA
ATOM      9  C   LIG    1        2.026  -0.949  -3.371  0.00  0.00    +0.068 C 
ATOM     10  C   LIG    1        4.148  -1.531  -4.751  0.00  0.00    +0.077 C 
ATOM     11  C   LIG    1        4.365   1.195  -2.529  0.00  0.00    +0.292 C 
ATOM     12  O   LIG    1        4.433   2.588  -2.555  0.00  0.00    -0.320 OA
ATOM     13  C   LIG    1        5.343   3.124  -1.595  0.00  0.00    +0.253 C 
ATOM     14  C   LIG    1        5.326   2.340  -0.219  0.00  0.00    +0.048 C 
ATOM     15  C   LIG    1        6.503   1.369   0.064  0.00  0.00    +0.013 C 
ATOM     16  C   LIG    1        3.937   1.667  -0.072  0.00  0.00    +0.037 C 
ATOM     17  C   LIG    1        3.557   0.984   1.258  0.00  0.00    +0.007 C 
ATOM     18  C   LIG    1        1.358   0.218  -2.630  0.00  0.00    +0.012 C 
ATOM     19  C   LIG    1        2.033   0.706   1.296  0.00  0.00    +0.004 C 
ENDROOT
BRANCH  13  20
ATOM     20  O   LIG    1        6.622   3.176  -2.094  0.00  0.00    -0.367 OA
ATOM     21  H   LIG    1        6.649   3.861  -2.767  0.00  0.00    +0.212 HD
ENDBRANCH  13  20
TORSDOF 1
