REMARK  Name = DB11629
REMARK                            x       y       z     vdW  Elec       q    Type
REMARK                         _______ _______ _______ _____ _____    ______ ____
ROOT
ATOM      1  C   LIG    1        1.805   0.041   0.028  0.00  0.00    +0.115 A 
ATOM      2  C   LIG    1        2.506  -1.196   0.039  0.00  0.00    +0.075 A 
ATOM      3  N   LIG    1        2.114  -2.546   0.008  0.00  0.00    -0.337 N 
ATOM      4  C   LIG    1        3.245  -3.340   0.031  0.00  0.00    +0.027 A 
ATOM      5  C   LIG    1        3.544  -4.828   0.022  0.00  0.00    +0.047 C 
ATOM      6  C   LIG    1        5.085  -4.830  -0.106  0.00  0.00    +0.015 C 
ATOM      7  C   LIG    1        5.608  -3.420   0.205  0.00  0.00    +0.038 C 
ATOM      8  C   LIG    1        4.366  -2.574   0.128  0.00  0.00    -0.018 A 
ATOM      9  C   LIG    1        3.947  -1.213   0.113  0.00  0.00    +0.008 A 
ATOM     10  C   LIG    1        4.661  -0.010   0.158  0.00  0.00    +0.048 A 
ATOM     11  C   LIG    1        3.967   1.188   0.133  0.00  0.00    +0.126 A 
ATOM     12  F   LIG    1        4.649   2.355   0.176  0.00  0.00    -0.205 F 
ATOM     13  C   LIG    1        2.581   1.206   0.072  0.00  0.00    +0.067 A 
ENDROOT
BRANCH   1  15
ATOM     14  C   LIG    1       -0.397   2.049  -0.086  0.00  0.00    +0.200 C 
ATOM     15  S   LIG    1        0.008   0.203  -0.002  0.00  0.00    -0.004 S 
ATOM     16  O   LIG    1       -0.455  -0.396  -1.257  0.00  0.00    -0.170 OA
ATOM     17  O   LIG    1       -0.478  -0.292   1.290  0.00  0.00    -0.170 OA
ENDBRANCH   1  15
BRANCH   3  18
ATOM     18  C   LIG    1        0.765  -3.110  -0.096  0.00  0.00    +0.157 C 
BRANCH  18  19
ATOM     19  C   LIG    1        0.200  -3.282  -1.508  0.00  0.00    -0.028 A 
ATOM     20  C   LIG    1        0.945  -2.977  -2.656  0.00  0.00    +0.007 A 
ATOM     21  C   LIG    1        0.386  -3.152  -3.919  0.00  0.00    +0.020 A 
ATOM     22  C   LIG    1       -0.915  -3.634  -4.039  0.00  0.00    +0.041 A 
ATOM     23 CL   LIG    1       -1.608  -3.851  -5.605  0.00  0.00    -0.084 Cl
ATOM     24  C   LIG    1       -1.662  -3.943  -2.904  0.00  0.00    +0.020 A 
ATOM     25  C   LIG    1       -1.103  -3.767  -1.641  0.00  0.00    +0.007 A 
ENDBRANCH  18  19
ENDBRANCH   3  18
BRANCH   5  26
ATOM     26  C   LIG    1        2.821  -5.616  -1.103  0.00  0.00    +0.130 C 
BRANCH  26  27
ATOM     27  C   LIG    1        3.190  -7.103  -1.157  0.00  0.00    +0.305 C 
ATOM     28  O   LIG    1        3.817  -7.607  -2.086  0.00  0.00    -0.251 OA
BRANCH  27  29
ATOM     29  O   LIG    1        2.735  -7.779  -0.063  0.00  0.00    -0.481 OA
ATOM     30  H   LIG    1        2.962  -8.711  -0.092  0.00  0.00    +0.295 HD
ENDBRANCH  27  29
ENDBRANCH  26  27
ENDBRANCH   5  26
TORSDOF 6
