REMARK  Name = DB11326
REMARK                            x       y       z     vdW  Elec       q    Type
REMARK                         _______ _______ _______ _____ _____    ______ ____
ROOT
ATOM      1  B   LIG    1        1.480   0.000   0.000  0.00  0.00    +0.000 B 
ENDROOT
BRANCH   1   2
ATOM      2  O   LIG    1        0.121  -0.034   0.000  0.00  0.00    +0.000 OA
ATOM      3  H   LIG    1       -0.253   0.850   0.000  0.00  0.00    +0.000 HD
ENDBRANCH   1   2
BRANCH   1   4
ATOM      4  O   LIG    1        2.130   1.194   0.000  0.00  0.00    +0.000 OA
ATOM      5  H   LIG    1        3.083   1.076   0.000  0.00  0.00    +0.000 HD
ENDBRANCH   1   4
BRANCH   1   6
ATOM      6  O   LIG    1        2.189  -1.160   0.000  0.00  0.00    +0.000 OA
ATOM      7  H   LIG    1        1.610  -1.926   0.000  0.00  0.00    +0.000 HD
ENDBRANCH   1   6
TORSDOF 3
