REMARK  Name = DB11753
REMARK                            x       y       z     vdW  Elec       q    Type
REMARK                         _______ _______ _______ _____ _____    ______ ____
ROOT
ATOM      1  C   LIG    1       -0.458  -0.646  -1.442  0.00  0.00    +0.056 C 
ATOM      2  C   LIG    1        0.114   0.173  -2.652  0.00  0.00    +0.126 C 
ATOM      3  C   LIG    1       -0.365  -0.261  -4.080  0.00  0.00    +0.044 C 
ATOM      4  C   LIG    1        0.606   0.246  -5.177  0.00  0.00    +0.013 C 
ATOM      5  C   LIG    1       -1.867   0.062  -4.385  0.00  0.00    +0.126 C 
ATOM      6  C   LIG    1       -2.543  -0.770  -5.521  0.00  0.00    +0.037 C 
ATOM      7  C   LIG    1       -3.966  -0.290  -5.797  0.00  0.00    -0.021 C 
ATOM      8  C   LIG    1       -4.303   0.557  -6.788  0.00  0.00    -0.003 C 
ATOM      9  C   LIG    1       -5.634   1.102  -7.031  0.00  0.00    +0.008 C 
ATOM     10  C   LIG    1       -6.557   1.589  -6.156  0.00  0.00    +0.012 C 
ATOM     11  C   LIG    1       -6.383   1.710  -4.713  0.00  0.00    +0.244 C 
ATOM     12  O   LIG    1       -7.297   1.423  -3.938  0.00  0.00    -0.270 OA
ATOM     13  N   LIG    1       -5.181   2.192  -4.314  0.00  0.00    -0.279 N 
ATOM     14  H   LIG    1       -4.541   2.459  -5.048  0.00  0.00    +0.155 HD
ATOM     15  C   LIG    1       -4.696   2.402  -2.999  0.00  0.00    +0.080 A 
ATOM     16  C   LIG    1       -3.675   3.342  -2.797  0.00  0.00    +0.149 A 
ATOM     17  C   LIG    1       -3.095   3.540  -1.489  0.00  0.00    +0.071 A 
ATOM     18  C   LIG    1       -3.660   2.826  -0.370  0.00  0.00    +0.045 A 
ATOM     19  C   LIG    1       -4.684   1.858  -0.633  0.00  0.00    +0.127 A 
ATOM     20  C   LIG    1       -3.167   3.127   0.948  0.00  0.00    +0.079 A 
ATOM     21  C   LIG    1       -3.561   2.703   2.316  0.00  0.00    +0.250 C 
ATOM     22  O   LIG    1       -4.406   1.946   2.791  0.00  0.00    -0.284 OA
ATOM     23  C   LIG    1       -2.598   3.549   3.241  0.00  0.00    +0.314 C 
ATOM     24  C   LIG    1       -3.340   4.643   4.006  0.00  0.00    +0.114 C 
ATOM     25  O   LIG    1       -1.698   4.178   2.400  0.00  0.00    -0.444 OA
ATOM     26  O   LIG    1       -1.965   2.771   4.242  0.00  0.00    -0.453 OA
ATOM     27  C   LIG    1       -1.375   1.576   3.955  0.00  0.00    +0.190 C 
ATOM     28  C   LIG    1       -0.741   1.202   2.827  0.00  0.00    +0.042 C 
ATOM     29  C   LIG    1       -0.174  -0.193   2.590  0.00  0.00    +0.150 C 
ATOM     30  C   LIG    1       -0.585  -0.811   1.218  0.00  0.00    +0.060 C 
ATOM     31  C   LIG    1       -2.118  -1.015   1.163  0.00  0.00    +0.014 C 
ATOM     32  C   LIG    1       -2.096   3.993   1.102  0.00  0.00    +0.144 A 
ATOM     33  C   LIG    1       -1.472   4.625   0.039  0.00  0.00    +0.034 A 
ATOM     34  C   LIG    1       -0.270   5.540   0.267  0.00  0.00    +0.051 C 
ATOM     35  C   LIG    1       -1.974   4.421  -1.252  0.00  0.00    +0.135 A 
ATOM     36  C   LIG    1       -5.154   1.652  -1.920  0.00  0.00    +0.073 A 
ATOM     37  C   LIG    1       -7.923   2.074  -6.638  0.00  0.00    +0.049 C 
ATOM     38  C   LIG    1       -2.541  -2.288  -5.247  0.00  0.00    +0.014 C 
ATOM     39  C   LIG    1       -0.049  -0.049  -0.047  0.00  0.00    +0.187 C 
ATOM     40  C   LIG    1       -0.097  -2.151  -1.553  0.00  0.00    +0.014 C 
ENDROOT
BRANCH  16  41
ATOM     41  O   LIG    1       -3.249   4.080  -3.880  0.00  0.00    -0.504 OA
ATOM     42  H   LIG    1       -3.719   3.864  -4.688  0.00  0.00    +0.292 HD
ENDBRANCH  16  41
BRANCH  19  43
ATOM     43  O   LIG    1       -5.236   1.065   0.338  0.00  0.00    -0.506 OA
ATOM     44  H   LIG    1       -5.911   0.472  -0.001  0.00  0.00    +0.292 HD
ENDBRANCH  19  43
BRANCH  29  45
ATOM     45  O   LIG    1        1.247  -0.222   2.725  0.00  0.00    -0.375 OA
ATOM     46  C   LIG    1        1.763   0.062   4.020  0.00  0.00    +0.194 C 
ENDBRANCH  29  45
BRANCH  35  47
ATOM     47  O   LIG    1       -1.344   5.080  -2.282  0.00  0.00    -0.506 OA
ATOM     48  H   LIG    1       -0.609   5.618  -1.981  0.00  0.00    +0.292 HD
ENDBRANCH  35  47
BRANCH   5  49
ATOM     49  O   LIG    1       -1.973   1.439  -4.709  0.00  0.00    -0.391 OA
ATOM     50  H   LIG    1       -1.448   1.608  -5.495  0.00  0.00    +0.210 HD
ENDBRANCH   5  49
BRANCH   2  51
ATOM     51  O   LIG    1       -0.134   1.557  -2.463  0.00  0.00    -0.391 OA
ATOM     52  H   LIG    1        0.216   2.038  -3.217  0.00  0.00    +0.210 HD
ENDBRANCH   2  51
BRANCH  39  53
ATOM     53  O   LIG    1        1.381   0.031   0.000  0.00  0.00    -0.461 OA
BRANCH  53  54
ATOM     54  C   LIG    1        2.035   1.214   0.121  0.00  0.00    +0.304 C 
ATOM     55  C   LIG    1        3.547   1.032   0.143  0.00  0.00    +0.136 C 
ATOM     56  O   LIG    1        1.523   2.330   0.213  0.00  0.00    -0.251 OA
ENDBRANCH  53  54
ENDBRANCH  39  53
TORSDOF 8
