REMARK  Name = DB11762
REMARK                            x       y       z     vdW  Elec       q    Type
REMARK                         _______ _______ _______ _____ _____    ______ ____
ROOT
ATOM      1  C   LIG    1       -0.094  -1.924  -1.846  0.00  0.00    +0.059 C 
ATOM      2  C   LIG    1       -0.821  -0.807  -1.056  0.00  0.00    +0.156 C 
ATOM      3  O   LIG    1       -1.725  -1.399  -0.019  0.00  0.00    -0.453 OA
ATOM      4  C   LIG    1       -1.016  -0.799   0.999  0.00  0.00    +0.338 C 
ATOM      5  O   LIG    1       -1.170  -0.962   2.207  0.00  0.00    -0.248 OA
ATOM      6  C   LIG    1       -0.055  -0.045   0.049  0.00  0.00    +0.199 C 
ATOM      7  N   LIG    1       -0.461   1.343  -0.189  0.00  0.00    -0.294 N 
ATOM      8  H   LIG    1       -0.137   2.047   0.457  0.00  0.00    +0.150 HD
ATOM      9  C   LIG    1       -1.220   1.609  -1.267  0.00  0.00    +0.221 C 
ATOM     10  O   LIG    1       -1.608   2.712  -1.649  0.00  0.00    -0.275 OA
ATOM     11  C   LIG    1       -1.469   0.262  -1.962  0.00  0.00    +0.122 C 
ENDROOT
BRANCH   6  12
ATOM     12  C   LIG    1        1.489  -0.251   0.176  0.00  0.00    +0.160 C 
BRANCH  12  13
ATOM     13  C   LIG    1        2.144   0.397   1.436  0.00  0.00    +0.043 C 
ATOM     14  C   LIG    1        2.333   1.917   1.329  0.00  0.00    -0.025 C 
ATOM     15  C   LIG    1        3.424   2.582   1.756  0.00  0.00    -0.031 C 
ATOM     16  C   LIG    1        4.612   1.927   2.447  0.00  0.00    +0.027 C 
ATOM     17  C   LIG    1        4.278   0.485   2.885  0.00  0.00    +0.005 C 
ATOM     18  C   LIG    1        3.491  -0.286   1.809  0.00  0.00    +0.010 C 
ENDBRANCH  12  13
BRANCH  12  19
ATOM     19  O   LIG    1        2.160   0.165  -1.005  0.00  0.00    -0.388 OA
ATOM     20  H   LIG    1        3.102   0.029  -0.882  0.00  0.00    +0.210 HD
ENDBRANCH  12  19
ENDBRANCH   6  12
BRANCH  11  21
ATOM     21  C   LIG    1       -2.984   0.084  -2.256  0.00  0.00    +0.032 C 
BRANCH  21  22
ATOM     22  C   LIG    1       -3.323  -1.196  -3.035  0.00  0.00    +0.109 C 
ATOM     23 CL   LIG    1       -5.063  -1.245  -3.418  0.00  0.00    -0.125 Cl
ENDBRANCH  21  22
ENDBRANCH  11  21
TORSDOF 5
