REMARK  Name = DB11640
REMARK                            x       y       z     vdW  Elec       q    Type
REMARK                         _______ _______ _______ _____ _____    ______ ____
ROOT
ATOM      1  C   LIG    1        0.036   0.019   0.000  0.00  0.00    +0.048 A 
ATOM      2  C   LIG    1       -0.679  -1.183   0.000  0.00  0.00    +0.044 A 
ATOM      3  C   LIG    1       -2.074  -1.134   0.000  0.00  0.00    +0.112 A 
ATOM      4  N   LIG    1       -2.772   0.029   0.000  0.00  0.00    -0.261 NA
ATOM      5  C   LIG    1       -2.068   1.189   0.000  0.00  0.00    +0.135 A 
ATOM      6  C   LIG    1       -0.670   1.237   0.000  0.00  0.00    +0.064 A 
ENDROOT
BRANCH   1   7
ATOM      7  N   LIG    1        1.434  -0.032   0.000  0.00  0.00    -0.356 N 
ATOM      8  H   LIG    1        1.962   0.828   0.000  0.00  0.00    +0.142 HD
ATOM      9  H   LIG    1        1.899  -0.929   0.000  0.00  0.00    +0.142 HD
ENDBRANCH   1   7
BRANCH   6  10
ATOM     10  N   LIG    1       -0.029   2.480   0.000  0.00  0.00    -0.355 N 
ATOM     11  H   LIG    1        0.980   2.519   0.000  0.00  0.00    +0.142 HD
ATOM     12  H   LIG    1       -0.582   3.326   0.000  0.00  0.00    +0.142 HD
ENDBRANCH   6  10
TORSDOF 2
