REMARK  Name = DB11160
REMARK                            x       y       z     vdW  Elec       q    Type
REMARK                         _______ _______ _______ _____ _____    ______ ____
ROOT
ATOM      1  C   LIG    1        3.744   0.492  -1.335  0.00  0.00    +0.124 A 
ATOM      2  C   LIG    1        4.453   0.902  -2.479  0.00  0.00    -0.001 A 
ATOM      3  C   LIG    1        5.838   0.712  -2.547  0.00  0.00    +0.007 A 
ATOM      4  C   LIG    1        6.526   0.131  -1.484  0.00  0.00    +0.001 A 
ATOM      5  C   LIG    1        5.833  -0.271  -0.346  0.00  0.00    +0.004 A 
ATOM      6  C   LIG    1        4.453  -0.094  -0.271  0.00  0.00    +0.046 A 
ENDROOT
BRANCH   1   7
ATOM      7  O   LIG    1        2.374   0.685  -1.326  0.00  0.00    -0.490 OA
BRANCH   7   8
ATOM      8  C   LIG    1        1.625   0.390  -0.149  0.00  0.00    +0.244 C 
BRANCH   8   9
ATOM      9  C   LIG    1        0.150   0.797  -0.348  0.00  0.00    +0.124 C 
BRANCH   9  11
ATOM     10  C   LIG    1        0.417   3.140   0.281  0.00  0.00    +0.104 C 
ATOM     11  N   LIG    1       -0.034   2.199  -0.742  0.00  0.00    -0.305 NA
ATOM     12  C   LIG    1       -1.439   2.450  -1.049  0.00  0.00    +0.104 C 
ENDBRANCH   9  11
ENDBRANCH   8   9
ENDBRANCH   7   8
ENDBRANCH   1   7
BRANCH   2  13
ATOM     13  C   LIG    1        3.733   1.543  -3.666  0.00  0.00    +0.074 C 
BRANCH  13  14
ATOM     14  C   LIG    1        3.025   2.858  -3.354  0.00  0.00    -0.043 A 
ATOM     15  C   LIG    1        1.668   3.009  -3.652  0.00  0.00    +0.004 A 
ATOM     16  C   LIG    1        1.021   4.209  -3.367  0.00  0.00    +0.000 A 
ATOM     17  C   LIG    1        1.733   5.256  -2.787  0.00  0.00    +0.000 A 
ATOM     18  C   LIG    1        3.088   5.116  -2.493  0.00  0.00    +0.000 A 
ATOM     19  C   LIG    1        3.735   3.917  -2.780  0.00  0.00    +0.004 A 
ENDBRANCH  13  14
ENDBRANCH   2  13
TORSDOF 6
