REMARK  Name = DB11723
REMARK                            x       y       z     vdW  Elec       q    Type
REMARK                         _______ _______ _______ _____ _____    ______ ____
ROOT
ATOM      1  C   LIG    1        1.333  -0.253  -0.196  0.00  0.00    +0.000 C 
ATOM      2  N   LIG    1        2.032  -1.389   0.436  0.00  0.00    +0.000 N 
ATOM      3  C   LIG    1        1.802  -1.823   1.704  0.00  0.00    +0.000 C 
ATOM      4  O   LIG    1        0.916  -1.329   2.409  0.00  0.00    +0.000 OA
ATOM      5  C   LIG    1        3.178  -1.807  -0.382  0.00  0.00    +0.000 C 
ATOM      6  C   LIG    1        3.590  -0.495  -1.047  0.00  0.00    +0.000 C 
ATOM      7  C   LIG    1        2.290   0.256  -1.278  0.00  0.00    +0.000 C 
ENDROOT
BRANCH   1   8
ATOM      8  B   LIG    1       -0.212   0.144  -0.196  0.00  0.00    +0.000 B 
BRANCH   8   9
ATOM      9  O   LIG    1       -1.130  -0.740   0.303  0.00  0.00    +0.000 OA
ATOM     10  H   LIG    1       -2.031  -0.463   0.121  0.00  0.00    +0.000 HD
ENDBRANCH   8   9
BRANCH   8  11
ATOM     11  O   LIG    1       -0.659   1.153  -1.017  0.00  0.00    +0.000 OA
ATOM     12  H   LIG    1       -1.617   1.196  -1.042  0.00  0.00    +0.000 HD
ENDBRANCH   8  11
ENDBRANCH   1   8
BRANCH   3  13
ATOM     13  C   LIG    1        2.679  -2.978   2.252  0.00  0.00    +0.000 C 
BRANCH  13  14
ATOM     14  N   LIG    1        2.222  -3.414   3.562  0.00  0.00    +0.000 NA
ATOM     15  H   LIG    1        2.477  -2.699   4.230  0.00  0.00    +0.000 HD
BRANCH  14  16
ATOM     16  C   LIG    1        2.835  -4.653   4.034  0.00  0.00    +0.000 C 
ATOM     17  C   LIG    1        2.453  -4.932   5.500  0.00  0.00    +0.000 C 
ATOM     18  N   LIG    1        1.419  -6.059   5.428  0.00  0.00    +0.000 N 
ATOM     19  H   LIG    1        1.337  -6.571   6.295  0.00  0.00    +0.000 HD
ATOM     20  H   LIG    1        0.509  -5.680   5.203  0.00  0.00    +0.000 HD
ATOM     21  C   LIG    1        1.923  -6.925   4.273  0.00  0.00    +0.000 C 
ATOM     22  C   LIG    1        2.380  -5.896   3.238  0.00  0.00    +0.000 C 
ENDBRANCH  14  16
ENDBRANCH  13  14
ENDBRANCH   3  13
TORSDOF 6
