REMARK  Name = DB11925
REMARK                            x       y       z     vdW  Elec       q    Type
REMARK                         _______ _______ _______ _____ _____    ______ ____
ROOT
ATOM      1  C   LIG    1       -4.186   0.368   0.149  0.00  0.00    +0.136 A 
ATOM      2  N   LIG    1       -4.681   1.632   0.118  0.00  0.00    -0.199 NA
ATOM      3  C   LIG    1       -3.792   2.657   0.040  0.00  0.00    +0.222 A 
ATOM      4  N   LIG    1       -2.438   2.515   0.000  0.00  0.00    -0.194 NA
ATOM      5  C   LIG    1       -1.940   1.249   0.014  0.00  0.00    +0.167 A 
ATOM      6  N   LIG    1       -0.586   1.145  -0.050  0.00  0.00    -0.227 NA
ATOM      7  C   LIG    1       -0.018  -0.093  -0.037  0.00  0.00    +0.073 A 
ATOM      8  C   LIG    1       -0.786  -1.261   0.034  0.00  0.00    +0.029 A 
ATOM      9  C   LIG    1       -2.175  -1.173   0.099  0.00  0.00    +0.017 A 
ATOM     10  C   LIG    1       -2.788   0.106   0.087  0.00  0.00    +0.059 A 
ENDROOT
BRANCH   1  13
ATOM     11  C   LIG    1       -4.695  -1.260  -2.313  0.00  0.00    +0.030 C 
ATOM     12  C   LIG    1       -5.702  -1.080  -1.155  0.00  0.00    +0.097 C 
ATOM     13  N   LIG    1       -5.118  -0.665   0.144  0.00  0.00    -0.307 N 
ATOM     14  C   LIG    1       -6.180  -0.618   1.164  0.00  0.00    +0.135 C 
ATOM     15  C   LIG    1       -6.932  -1.956   1.273  0.00  0.00    +0.179 C 
ATOM     16  O   LIG    1       -7.520  -2.256   0.019  0.00  0.00    -0.376 OA
ATOM     17  C   LIG    1       -6.557  -2.370  -1.020  0.00  0.00    +0.182 C 
ENDBRANCH   1  13
BRANCH   3  18
ATOM     18  N   LIG    1       -4.330   3.946   0.062  0.00  0.00    -0.292 N 
ATOM     19  C   LIG    1       -3.569   5.127  -0.428  0.00  0.00    +0.099 C 
ATOM     20  C   LIG    1       -3.035   4.989  -1.874  0.00  0.00    +0.030 C 
ATOM     21  C   LIG    1       -4.371   6.458  -0.360  0.00  0.00    +0.182 C 
ATOM     22  O   LIG    1       -5.023   6.632   0.886  0.00  0.00    -0.376 OA
ATOM     23  C   LIG    1       -5.928   5.578   1.147  0.00  0.00    +0.179 C 
ATOM     24  C   LIG    1       -5.135   4.267   1.258  0.00  0.00    +0.136 C 
ENDBRANCH   3  18
BRANCH   7  25
ATOM     25  C   LIG    1        1.474  -0.133  -0.118  0.00  0.00    +0.001 A 
ATOM     26  C   LIG    1        2.188   0.804  -0.882  0.00  0.00    +0.023 A 
ATOM     27  C   LIG    1        3.592   0.775  -0.969  0.00  0.00    +0.037 A 
ATOM     28  C   LIG    1        4.280  -0.225  -0.269  0.00  0.00    +0.013 A 
ATOM     29  C   LIG    1        3.590  -1.163   0.495  0.00  0.00    +0.001 A 
ATOM     30  C   LIG    1        2.200  -1.116   0.568  0.00  0.00    +0.010 A 
BRANCH  27  31
ATOM     31  C   LIG    1        4.362   1.779  -1.801  0.00  0.00    +0.244 C 
ATOM     32  N   LIG    1        3.703   2.901  -2.146  0.00  0.00    -0.314 N 
ATOM     33  H   LIG    1        2.748   3.012  -1.836  0.00  0.00    +0.149 HD
ATOM     34  C   LIG    1        4.253   3.995  -2.940  0.00  0.00    +0.128 C 
ATOM     35  O   LIG    1        5.535   1.565  -2.116  0.00  0.00    -0.270 OA
ENDBRANCH  27  31
ENDBRANCH   7  25
TORSDOF 4
