REMARK  Name = DB11837
REMARK                            x       y       z     vdW  Elec       q    Type
REMARK                         _______ _______ _______ _____ _____    ______ ____
ROOT
ATOM      1  C   LIG    1       -2.145   1.154  -0.354  0.00  0.00    +0.019 A 
ATOM      2  C   LIG    1       -2.837  -0.004   0.009  0.00  0.00    +0.055 A 
ATOM      3  C   LIG    1       -2.124  -1.164   0.326  0.00  0.00    +0.057 A 
ATOM      4  C   LIG    1       -0.729  -1.167   0.283  0.00  0.00    +0.130 A 
ATOM      5  F   LIG    1       -0.066  -2.305   0.594  0.00  0.00    -0.205 F 
ATOM      6  C   LIG    1       -0.029  -0.007  -0.077  0.00  0.00    +0.011 A 
ATOM      7  C   LIG    1       -0.751   1.151  -0.397  0.00  0.00    +0.010 A 
ENDROOT
BRANCH   6   8
ATOM      8  C   LIG    1        1.504  -0.004  -0.122  0.00  0.00    +0.121 C 
ATOM      9  N   LIG    1        2.064   1.071   0.677  0.00  0.00    -0.326 N 
ATOM     10  C   LIG    1        1.922   1.625   1.924  0.00  0.00    +0.200 A 
ATOM     11  N   LIG    1        2.773   2.601   2.143  0.00  0.00    -0.244 NA
ATOM     12  C   LIG    1        3.501   2.675   1.037  0.00  0.00    +0.133 A 
ATOM     13  C   LIG    1        3.101   1.738   0.096  0.00  0.00    +0.039 A 
ATOM     14  C   LIG    1        3.363   1.180  -1.277  0.00  0.00    +0.057 C 
ATOM     15  C   LIG    1        2.132   0.288  -1.503  0.00  0.00    +0.036 C 
ENDBRANCH   6   8
BRANCH   2  16
ATOM     16  C   LIG    1       -4.291  -0.003   0.057  0.00  0.00    +0.099 C 
ATOM     17  N   LIG    1       -5.448  -0.002   0.096  0.00  0.00    -0.191 NA
ENDBRANCH   2  16
TORSDOF 2
