REMARK  Name = DB11148
REMARK                            x       y       z     vdW  Elec       q    Type
REMARK                         _______ _______ _______ _____ _____    ______ ____
ROOT
ATOM      1  C   LIG    1       -1.980   1.399   0.000  0.00  0.00    +0.059 A 
ATOM      2  C   LIG    1       -2.731   2.583   0.000  0.00  0.00    +0.017 A 
ATOM      3  C   LIG    1       -4.123   2.540   0.000  0.00  0.00    +0.023 A 
ATOM      4  C   LIG    1       -4.778   1.310   0.000  0.00  0.00    +0.025 A 
ATOM      5  C   LIG    1       -4.047   0.124   0.000  0.00  0.00    +0.023 A 
ATOM      6  C   LIG    1       -2.656   0.167   0.000  0.00  0.00    +0.017 A 
ENDROOT
BRANCH   4   7
ATOM      7  N   LIG    1       -6.172   1.267   0.000  0.00  0.00    -0.358 N 
ATOM      8  H   LIG    1       -6.695   2.130   0.000  0.00  0.00    +0.142 HD
ATOM      9  H   LIG    1       -6.641   0.373   0.000  0.00  0.00    +0.142 HD
ENDBRANCH   4   7
BRANCH   1  10
ATOM     10  C   LIG    1       -0.481   1.482   0.000  0.00  0.00    +0.339 C 
ATOM     11  O   LIG    1        0.139   2.550   0.000  0.00  0.00    -0.245 OA
BRANCH  10  12
ATOM     12  O   LIG    1        0.123   0.266   0.000  0.00  0.00    -0.461 OA
BRANCH  12  13
ATOM     13  C   LIG    1        1.540   0.150   0.000  0.00  0.00    +0.232 C 
BRANCH  13  14
ATOM     14  C   LIG    1        1.931  -1.335   0.000  0.00  0.00    +0.041 C 
BRANCH  14  15
ATOM     15  C   LIG    1        3.454  -1.545   0.000  0.00  0.00    -0.000 C 
ATOM     16  C   LIG    1        3.853  -3.027   0.000  0.00  0.00    +0.004 C 
ENDBRANCH  14  15
ENDBRANCH  13  14
ENDBRANCH  12  13
ENDBRANCH  10  12
ENDBRANCH   1  10
TORSDOF 6
