REMARK  Name = DB11656
REMARK                            x       y       z     vdW  Elec       q    Type
REMARK                         _______ _______ _______ _____ _____    ______ ____
ROOT
ATOM      1  CA  LIG    1        0.005   0.010   0.003  0.00  0.00    +0.186 C 
ENDROOT
BRANCH   1   2
ATOM      2  N   LIG    1       -0.472   1.400  -0.033  0.00  0.00    -0.298 N 
ATOM      3  H   LIG    1        0.190   2.089   0.290  0.00  0.00    +0.150 HD
ATOM      4  C   LIG    1       -1.684   1.819  -0.447  0.00  0.00    +0.245 C 
ATOM      5  O   LIG    1       -2.563   1.049  -0.839  0.00  0.00    -0.270 OA
BRANCH   4   6
ATOM      6  C   LIG    1       -1.926   3.312  -0.394  0.00  0.00    +0.037 A 
ATOM      7  C   LIG    1       -0.859   4.226  -0.368  0.00  0.00    +0.014 A 
ATOM      8  C   LIG    1       -1.105   5.596  -0.328  0.00  0.00    +0.021 A 
ATOM      9  C   LIG    1       -2.416   6.065  -0.317  0.00  0.00    +0.041 A 
ATOM     10 CL   LIG    1       -2.720   7.763  -0.268  0.00  0.00    -0.084 Cl
ATOM     11  C   LIG    1       -3.484   5.172  -0.346  0.00  0.00    +0.021 A 
ATOM     12  C   LIG    1       -3.240   3.801  -0.386  0.00  0.00    +0.014 A 
ENDBRANCH   4   6
ENDBRANCH   1   2
BRANCH   1  13
ATOM     13  C   LIG    1       -0.649  -0.815   1.135  0.00  0.00    +0.326 C 
ATOM     14  O   LIG    1       -1.286  -0.342   2.055  0.00  0.00    -0.249 OA
BRANCH  13  15
ATOM     15  OXT LIG    1       -0.409  -2.143   0.929  0.00  0.00    -0.479 OA
ATOM     16  HXT LIG    1       -0.807  -2.694   1.606  0.00  0.00    +0.295 HD
ENDBRANCH  13  15
ENDBRANCH   1  13
BRANCH   1  17
ATOM     17  C   LIG    1        1.556  -0.053   0.088  0.00  0.00    +0.069 C 
BRANCH  17  26
ATOM     18  N   LIG    1        3.399   1.971  -3.232  0.00  0.00    -0.322 N 
ATOM     19  H   LIG    1        3.827   2.473  -3.995  0.00  0.00    +0.169 HD
ATOM     20  C   LIG    1        2.877   0.690  -3.478  0.00  0.00    +0.049 A 
ATOM     21  C   LIG    1        2.974   0.129  -4.752  0.00  0.00    +0.026 A 
ATOM     22  C   LIG    1        2.464  -1.147  -4.988  0.00  0.00    +0.002 A 
ATOM     23  C   LIG    1        1.859  -1.861  -3.954  0.00  0.00    +0.001 A 
ATOM     24  C   LIG    1        1.760  -1.304  -2.678  0.00  0.00    +0.010 A 
ATOM     25  C   LIG    1        2.264  -0.020  -2.427  0.00  0.00    +0.002 A 
ATOM     26  C   LIG    1        2.210   0.658  -1.099  0.00  0.00    -0.031 A 
ATOM     27  C   LIG    1        2.772   1.886  -0.967  0.00  0.00    +0.074 A 
ATOM     28  C   LIG    1        3.393   2.634  -2.050  0.00  0.00    +0.249 A 
ATOM     29  O   LIG    1        3.858   3.764  -1.925  0.00  0.00    -0.268 OA
ENDBRANCH  17  26
ENDBRANCH   1  17
TORSDOF 6
