REMARK  Name = DB11590
REMARK                            x       y       z     vdW  Elec       q    Type
REMARK                         _______ _______ _______ _____ _____    ______ ____
ROOT
ATOM      1  C   LIG    1       -0.079   1.781  -0.113  0.00  0.00    +0.000 A 
ATOM      2  C   LIG    1       -0.250   2.539  -1.275  0.00  0.00    +0.000 A 
ATOM      3  C   LIG    1       -0.234   3.931  -1.220  0.00  0.00    +0.000 A 
ATOM      4  C   LIG    1       -0.046   4.577  -0.001  0.00  0.00    +0.000 A 
ATOM      5  C   LIG    1        0.126   3.831   1.164  0.00  0.00    +0.000 A 
ATOM      6  C   LIG    1        0.113   2.428   1.129  0.00  0.00    +0.000 A 
ENDROOT
BRANCH   6   7
ATOM      7  C   LIG    1        0.301   1.680   2.409  0.00  0.00    +0.000 C 
ATOM      8  O   LIG    1       -0.715   1.492   3.116  0.00  0.00    +0.000 OA
BRANCH   7   9
ATOM      9  O   LIG    1        1.463   1.306   2.689  0.00  0.00    +0.000 OA
ATOM     10  H   LIG    1        2.168   1.489   2.100  0.00  0.00    +0.000 HD
ENDBRANCH   7   9
ENDBRANCH   6   7
BRANCH   1  11
ATOM     11  S   LIG    1       -0.104   0.013  -0.279  0.00  0.00    +0.000 S 
BRANCH  11  12
ATOM     12 XX   LIG    1        2.198  -0.136   0.223  0.00  0.00    +0.000 Xx
BRANCH  12  13
ATOM     13  C   LIG    1        4.233   0.163   0.536  0.00  0.00    +0.000 C 
ATOM     14  C   LIG    1        4.533   1.664   0.507  0.00  0.00    +0.000 C 
ENDBRANCH  12  13
ENDBRANCH  11  12
ENDBRANCH   1  11
TORSDOF 5
