REMARK  Name = DB11641
REMARK                            x       y       z     vdW  Elec       q    Type
REMARK                         _______ _______ _______ _____ _____    ______ ____
ROOT
ATOM      1  C   LIG    1       -4.198   2.629   2.309  0.00  0.00    +0.045 C 
ATOM      2  C   LIG    1       -5.668   2.248   1.821  0.00  0.00    +0.232 C 
ATOM      3  C   LIG    1       -5.899   2.154   0.270  0.00  0.00    +0.219 C 
ATOM      4  C   LIG    1       -4.696   1.398  -0.422  0.00  0.00    +0.132 C 
ATOM      5  N   LIG    1       -4.418  -0.007  -0.068  0.00  0.00    -0.325 N 
ATOM      6  C   LIG    1       -5.425  -0.951  -0.550  0.00  0.00    +0.129 C 
ATOM      7  C   LIG    1       -3.049  -0.260  -0.158  0.00  0.00    +0.037 A 
ATOM      8  C   LIG    1       -2.320  -1.445  -0.088  0.00  0.00    +0.069 A 
ATOM      9  C   LIG    1       -0.914  -1.428  -0.050  0.00  0.00    +0.126 A 
ATOM     10  C   LIG    1       -0.229  -0.185  -0.022  0.00  0.00    +0.017 A 
ATOM     11  C   LIG    1       -1.000   0.988  -0.120  0.00  0.00    +0.014 A 
ATOM     12  C   LIG    1       -2.390   0.960  -0.167  0.00  0.00    -0.016 A 
ATOM     13  C   LIG    1       -3.350   2.133  -0.197  0.00  0.00    +0.037 C 
ATOM     14  C   LIG    1       -3.023   3.167  -1.308  0.00  0.00    +0.030 C 
ATOM     15  C   LIG    1       -2.544   4.414  -0.570  0.00  0.00    +0.086 C 
ATOM     16  N   LIG    1       -3.287   4.394   0.673  0.00  0.00    -0.294 NA
ATOM     17  C   LIG    1       -2.924   5.326   1.736  0.00  0.00    +0.111 C 
ATOM     18  C   LIG    1       -3.648   5.028   3.033  0.00  0.00    -0.015 C 
ATOM     19  C   LIG    1       -3.242   2.993   1.096  0.00  0.00    +0.083 C 
ATOM     20  C   LIG    1       -4.212   3.832   3.282  0.00  0.00    -0.018 C 
ENDROOT
BRANCH  10  21
ATOM     21  C   LIG    1        1.342  -0.087   0.047  0.00  0.00    +0.136 C 
ATOM     22  C   LIG    1        1.860   1.357   0.333  0.00  0.00    +0.043 A 
ATOM     23  N   LIG    1        1.450   2.010   1.481  0.00  0.00    -0.357 N 
ATOM     24  H   LIG    1        0.837   1.565   2.149  0.00  0.00    +0.166 HD
ATOM     25  C   LIG    1        1.939   3.289   1.552  0.00  0.00    +0.047 A 
ATOM     26  C   LIG    1        1.753   4.293   2.508  0.00  0.00    +0.026 A 
ATOM     27  C   LIG    1        2.401   5.507   2.282  0.00  0.00    +0.002 A 
ATOM     28  C   LIG    1        3.197   5.714   1.160  0.00  0.00    +0.001 A 
ATOM     29  C   LIG    1        3.378   4.709   0.211  0.00  0.00    +0.010 A 
ATOM     30  C   LIG    1        2.742   3.468   0.394  0.00  0.00    +0.004 A 
ATOM     31  C   LIG    1        2.705   2.241  -0.359  0.00  0.00    -0.004 A 
ATOM     32  C   LIG    1        3.463   2.019  -1.661  0.00  0.00    +0.122 C 
ATOM     33  N   LIG    1        2.635   2.083  -2.877  0.00  0.00    -0.297 NA
ATOM     34  C   LIG    1        1.315   1.438  -2.805  0.00  0.00    +0.088 C 
ATOM     35  C   LIG    1        1.340  -0.107  -2.646  0.00  0.00    +0.005 C 
ATOM     36  C   LIG    1        2.146  -0.677  -3.844  0.00  0.00    +0.015 C 
ATOM     37  C   LIG    1        3.525   0.008  -4.070  0.00  0.00    +0.072 C 
ATOM     38  C   LIG    1        3.352   1.560  -4.050  0.00  0.00    +0.094 C 
ATOM     39  C   LIG    1        1.920  -0.657  -1.304  0.00  0.00    +0.034 C 
BRANCH  37  40
ATOM     40  C   LIG    1        4.248  -0.515  -5.341  0.00  0.00    +0.250 C 
ATOM     41  F   LIG    1        3.571  -0.173  -6.439  0.00  0.00    -0.206 F 
ATOM     42  F   LIG    1        4.292  -1.848  -5.322  0.00  0.00    -0.206 F 
ATOM     43  C   LIG    1        5.692   0.006  -5.451  0.00  0.00    +0.085 C 
ENDBRANCH  37  40
BRANCH  21  44
ATOM     44  C   LIG    1        1.864  -0.949   1.251  0.00  0.00    +0.323 C 
ATOM     45  O   LIG    1        1.165  -1.169   2.247  0.00  0.00    -0.249 OA
BRANCH  44  46
ATOM     46  O   LIG    1        3.139  -1.386   1.100  0.00  0.00    -0.467 OA
ATOM     47  C   LIG    1        3.760  -2.174   2.105  0.00  0.00    +0.280 C 
ENDBRANCH  44  46
ENDBRANCH  21  44
ENDBRANCH  10  21
BRANCH   1  49
ATOM     48  C   LIG    1       -2.243   1.502   3.708  0.00  0.00    +0.005 C 
ATOM     49  C   LIG    1       -3.680   1.416   3.153  0.00  0.00    +0.013 C 
ENDBRANCH   1  49
BRANCH   3  50
ATOM     50  O   LIG    1       -5.985   3.462  -0.286  0.00  0.00    -0.373 OA
ATOM     51  H   LIG    1       -6.570   3.988   0.265  0.00  0.00    +0.211 HD
ENDBRANCH   3  50
BRANCH   3  52
ATOM     52  C   LIG    1       -7.264   1.491  -0.094  0.00  0.00    +0.345 C 
ATOM     53  O   LIG    1       -7.984   0.960   0.756  0.00  0.00    -0.247 OA
BRANCH  52  54
ATOM     54  O   LIG    1       -7.547   1.536  -1.423  0.00  0.00    -0.466 OA
ATOM     55  C   LIG    1       -8.741   0.959  -1.928  0.00  0.00    +0.280 C 
ENDBRANCH  52  54
ENDBRANCH   3  52
BRANCH   9  56
ATOM     56  O   LIG    1       -0.165  -2.593  -0.031  0.00  0.00    -0.495 OA
ATOM     57  C   LIG    1       -0.809  -3.863  -0.048  0.00  0.00    +0.277 C 
ENDBRANCH   9  56
BRANCH   2  58
ATOM     58  O   LIG    1       -6.715   3.032   2.429  0.00  0.00    -0.457 OA
BRANCH  58  59
ATOM     59  C   LIG    1       -7.336   2.657   3.575  0.00  0.00    +0.304 C 
ATOM     60  C   LIG    1       -8.414   3.647   3.995  0.00  0.00    +0.136 C 
ATOM     61  O   LIG    1       -7.097   1.649   4.240  0.00  0.00    -0.251 OA
ENDBRANCH  58  59
ENDBRANCH   2  58
TORSDOF 11
