REMARK  Name = DB11588
REMARK                            x       y       z     vdW  Elec       q    Type
REMARK                         _______ _______ _______ _____ _____    ______ ____
ROOT
ATOM      1  O   LIG    1        0.042   0.088  -0.561  0.00  0.00    +0.000 OA
ATOM      2  H   LIG    1        0.108   0.228  -1.451  0.00  0.00    +0.000 HD
ATOM      3 XX   LIG    1       -0.042  -0.088   0.561  0.00  0.00    +0.000 Xx
ENDROOT
TORSDOF 0
