REMARK  Name = DB11471
REMARK                            x       y       z     vdW  Elec       q    Type
REMARK                         _______ _______ _______ _____ _____    ______ ____
ROOT
ATOM      1  C   LIG    1       -5.305   0.334   4.158  0.00  0.00    +0.130 C 
ATOM      2  C   LIG    1       -4.641  -1.049   4.502  0.00  0.00    +0.017 C 
ATOM      3  C   LIG    1       -4.907  -2.192   3.469  0.00  0.00    +0.017 C 
ATOM      4  C   LIG    1       -4.082  -3.504   3.652  0.00  0.00    +0.057 C 
ATOM      5  C   LIG    1       -4.415  -4.547   2.566  0.00  0.00    +0.016 C 
ATOM      6  C   LIG    1       -2.554  -3.302   3.767  0.00  0.00    +0.159 C 
ATOM      7  O   LIG    1       -1.951  -3.855   4.687  0.00  0.00    -0.292 OA
ATOM      8  C   LIG    1       -1.891  -2.424   2.808  0.00  0.00    +0.047 C 
ATOM      9  C   LIG    1       -0.793  -1.698   3.118  0.00  0.00    +0.006 C 
ATOM     10  C   LIG    1       -0.152  -0.698   2.262  0.00  0.00    -0.054 C 
ATOM     11  C   LIG    1        0.615   0.416   2.961  0.00  0.00    +0.043 C 
ATOM     12  C   LIG    1       -0.233  -0.782   0.910  0.00  0.00    -0.014 C 
ATOM     13  C   LIG    1        0.326   0.169  -0.156  0.00  0.00    +0.078 C 
ATOM     14  C   LIG    1       -0.126   1.665  -0.028  0.00  0.00    +0.185 C 
ATOM     15  O   LIG    1       -1.550   1.679   0.146  0.00  0.00    -0.461 OA
ATOM     16  C   LIG    1       -2.181   2.551   0.977  0.00  0.00    +0.310 C 
ATOM     17  O   LIG    1       -1.644   3.444   1.634  0.00  0.00    -0.251 OA
ATOM     18  C   LIG    1       -3.703   2.325   1.021  0.00  0.00    +0.152 C 
ATOM     19  C   LIG    1       -4.211   1.111   1.857  0.00  0.00    +0.130 C 
ATOM     20  C   LIG    1       -4.419   1.378   3.382  0.00  0.00    +0.044 C 
ATOM     21  C   LIG    1       -3.114   1.699   4.148  0.00  0.00    +0.013 C 
ENDROOT
BRANCH  14  22
ATOM     22  C   LIG    1        0.271   2.531  -1.256  0.00  0.00    +0.042 C 
ATOM     23  C   LIG    1       -0.221   3.987  -1.251  0.00  0.00    +0.007 C 
ENDBRANCH  14  22
BRANCH  19  24
ATOM     24  O   LIG    1       -3.402  -0.016   1.624  0.00  0.00    -0.391 OA
ATOM     25  H   LIG    1       -3.762  -0.757   2.116  0.00  0.00    +0.210 HD
ENDBRANCH  19  24
BRANCH   1  26
ATOM     26  O   LIG    1       -6.611   0.106   3.598  0.00  0.00    -0.345 OA
BRANCH  26  27
ATOM     27  C   LIG    1       -7.545   1.145   3.397  0.00  0.00    +0.278 C 
ATOM     28  O   LIG    1       -7.190   1.925   2.285  0.00  0.00    -0.343 OA
ATOM     29  C   LIG    1       -8.207   2.836   1.858  0.00  0.00    +0.145 C 
ATOM     30  C   LIG    1       -7.718   3.476   0.548  0.00  0.00    +0.040 C 
ATOM     31  C   LIG    1       -8.473   3.868   2.980  0.00  0.00    +0.132 C 
ATOM     32  C   LIG    1       -8.791   3.144   4.312  0.00  0.00    -0.004 C 
ATOM     33  C   LIG    1       -7.741   2.043   4.644  0.00  0.00    +0.159 C 
BRANCH  32  34
ATOM     34  N   LIG    1       -8.923   4.213   5.444  0.00  0.00    +0.381 N 
ATOM     35  H   LIG    1       -9.385   4.990   4.992  0.00  0.00    -0.082 HD
ATOM     36  C   LIG    1       -9.874   3.805   6.588  0.00  0.00    -0.096 C 
ATOM     37  C   LIG    1       -7.603   4.794   5.996  0.00  0.00    -0.096 C 
ENDBRANCH  32  34
BRANCH  31  38
ATOM     38  O   LIG    1       -9.471   4.812   2.626  0.00  0.00    -0.391 OA
ATOM     39  H   LIG    1      -10.293   4.346   2.456  0.00  0.00    +0.210 HD
ENDBRANCH  31  38
BRANCH  33  40
ATOM     40  O   LIG    1       -8.114   1.266   5.766  0.00  0.00    -0.388 OA
ATOM     41  H   LIG    1       -8.465   1.852   6.440  0.00  0.00    +0.210 HD
ENDBRANCH  33  40
ENDBRANCH  26  27
ENDBRANCH   1  26
BRANCH   2  42
ATOM     42  C   LIG    1       -4.947  -1.500   5.958  0.00  0.00    -0.013 C 
BRANCH  42  43
ATOM     43  C   LIG    1       -6.404  -1.944   6.206  0.00  0.00    -0.078 C 
BRANCH  43  44
ATOM     44  N   LIG    1       -6.643  -2.299   7.694  0.00  0.00    +0.380 N 
ATOM     45  H   LIG    1       -5.873  -2.868   8.018  0.00  0.00    -0.082 HD
ATOM     46  C   LIG    1       -7.930  -3.158   7.823  0.00  0.00    -0.076 C 
ATOM     47  C   LIG    1       -8.164  -3.538   9.304  0.00  0.00    -0.031 C 
ATOM     48  C   LIG    1       -9.409  -4.428   9.463  0.00  0.00    +0.005 C 
ATOM     49  C   LIG    1       -8.269  -2.251  10.146  0.00  0.00    +0.003 C 
ATOM     50  C   LIG    1       -6.966  -1.431  10.057  0.00  0.00    -0.031 C 
ATOM     51  C   LIG    1       -7.005  -0.197  10.976  0.00  0.00    +0.005 C 
ATOM     52  C   LIG    1       -6.716  -1.028   8.584  0.00  0.00    -0.076 C 
ENDBRANCH  43  44
ENDBRANCH  42  43
ENDBRANCH   2  42
BRANCH  13  53
ATOM     53  C   LIG    1        1.854  -0.049  -0.351  0.00  0.00    +0.174 C 
BRANCH  53  54
ATOM     54  O   LIG    1        2.363   0.384  -1.612  0.00  0.00    -0.348 OA
BRANCH  54  55
ATOM     55  C   LIG    1        2.124  -0.447  -2.709  0.00  0.00    +0.282 C 
ATOM     56  O   LIG    1        2.817  -1.666  -2.573  0.00  0.00    -0.343 OA
ATOM     57  C   LIG    1        2.555  -2.596  -3.634  0.00  0.00    +0.149 C 
ATOM     58  C   LIG    1        3.288  -3.905  -3.297  0.00  0.00    +0.041 C 
ATOM     59  C   LIG    1        2.998  -1.983  -4.990  0.00  0.00    +0.174 C 
ATOM     60  C   LIG    1        2.331  -0.606  -5.202  0.00  0.00    +0.182 C 
ATOM     61  C   LIG    1        2.642   0.276  -3.965  0.00  0.00    +0.205 C 
BRANCH  59  62
ATOM     62  O   LIG    1        2.773  -2.843  -6.092  0.00  0.00    -0.387 OA
ATOM     63  H   LIG    1        1.826  -2.907  -6.236  0.00  0.00    +0.210 HD
ENDBRANCH  59  62
BRANCH  60  64
ATOM     64  O   LIG    1        0.931  -0.825  -5.417  0.00  0.00    -0.374 OA
ATOM     65  C   LIG    1        0.184   0.260  -5.952  0.00  0.00    +0.194 C 
ENDBRANCH  60  64
BRANCH  61  66
ATOM     66  O   LIG    1        2.110   1.593  -4.114  0.00  0.00    -0.372 OA
ATOM     67  C   LIG    1        2.975   2.655  -3.731  0.00  0.00    +0.194 C 
ENDBRANCH  61  66
ENDBRANCH  54  55
ENDBRANCH  53  54
ENDBRANCH  13  53
TORSDOF 16
