REMARK  Name = DB11669
REMARK                            x       y       z     vdW  Elec       q    Type
REMARK                         _______ _______ _______ _____ _____    ______ ____
ROOT
ATOM      1  C   LIG    1       -0.337  -1.574  -0.724  0.00  0.00    +0.043 C 
ATOM      2  C   LIG    1       -1.313  -0.490  -0.252  0.00  0.00    -0.025 C 
ATOM      3  C   LIG    1       -0.727   0.494   0.784  0.00  0.00    +0.247 C 
ATOM      4  C   LIG    1       -1.368   1.918   0.674  0.00  0.00    +0.273 C 
ATOM      5  O   LIG    1       -1.672   2.426   1.952  0.00  0.00    -0.422 OA
ATOM      6  C   LIG    1       -2.788   3.158   1.901  0.00  0.00    +0.511 C 
ATOM      7  O   LIG    1       -3.393   2.965   0.714  0.00  0.00    -0.419 OA
ATOM      8  O   LIG    1       -3.216   3.868   2.808  0.00  0.00    -0.203 OA
ATOM      9  C   LIG    1       -2.698   2.022  -0.100  0.00  0.00    +0.203 C 
ATOM     10  C   LIG    1       -3.527   0.686  -0.037  0.00  0.00    +0.038 C 
ATOM     11  C   LIG    1       -3.788   0.084   1.387  0.00  0.00    +0.020 C 
ATOM     12  C   LIG    1       -4.969   0.850  -0.611  0.00  0.00    +0.020 C 
ATOM     13  C   LIG    1       -2.545   2.634  -1.565  0.00  0.00    +0.233 C 
ATOM     14  C   LIG    1       -1.444   2.026  -2.559  0.00  0.00    +0.098 C 
ATOM     15  C   LIG    1       -0.240   2.998  -2.922  0.00  0.00    +0.170 C 
ATOM     16  C   LIG    1       -0.553   4.169  -3.882  0.00  0.00    +0.211 C 
ATOM     17  O   LIG    1        0.537   3.726  -4.805  0.00  0.00    -0.368 OA
ATOM     18  C   LIG    1        0.784   2.509  -3.970  0.00  0.00    +0.167 C 
ATOM     19  C   LIG    1        0.420   1.224  -4.723  0.00  0.00    +0.068 C 
ATOM     20  C   LIG    1       -1.081   1.129  -5.053  0.00  0.00    +0.131 C 
ATOM     21  C   LIG    1       -2.000   1.068  -3.751  0.00  0.00    +0.066 C 
ATOM     22  C   LIG    1       -3.443   1.425  -4.225  0.00  0.00    +0.022 C 
ATOM     23  C   LIG    1       -2.039  -0.452  -3.279  0.00  0.00    +0.187 C 
ATOM     24  O   LIG    1       -1.316  -1.297  -3.814  0.00  0.00    -0.292 OA
ATOM     25  C   LIG    1       -2.936  -0.982  -2.115  0.00  0.00    +0.270 C 
ATOM     26  C   LIG    1       -2.578  -0.322  -0.761  0.00  0.00    -0.010 C 
ENDROOT
BRANCH  20  27
ATOM     27  O   LIG    1       -1.430   2.126  -6.002  0.00  0.00    -0.391 OA
ATOM     28  H   LIG    1       -2.309   1.936  -6.338  0.00  0.00    +0.210 HD
ENDBRANCH  20  27
BRANCH   3  29
ATOM     29  O   LIG    1        0.671   0.683   0.539  0.00  0.00    -0.451 OA
BRANCH  29  30
ATOM     30  C   LIG    1        1.550   1.005   1.524  0.00  0.00    +0.339 C 
ATOM     31  O   LIG    1        1.257   1.213   2.702  0.00  0.00    -0.248 OA
BRANCH  30  32
ATOM     32  C   LIG    1        3.025   1.051   1.065  0.00  0.00    +0.243 C 
BRANCH  32  33
ATOM     33  O   LIG    1        3.098   1.520  -0.276  0.00  0.00    -0.379 OA
ATOM     34  H   LIG    1        2.734   2.407  -0.312  0.00  0.00    +0.211 HD
ENDBRANCH  32  33
BRANCH  32  35
ATOM     35  C   LIG    1        3.737  -0.329   1.209  0.00  0.00    +0.116 C 
BRANCH  35  36
ATOM     36  N   LIG    1        3.172  -1.332   0.284  0.00  0.00    -0.275 N 
ATOM     37  H   LIG    1        2.733  -0.979  -0.554  0.00  0.00    +0.152 HD
ATOM     38  C   LIG    1        3.246  -2.715   0.432  0.00  0.00    +0.401 C 
ATOM     39  O   LIG    1        2.785  -3.512  -0.385  0.00  0.00    -0.226 OA
BRANCH  38  40
ATOM     40  O   LIG    1        3.885  -3.065   1.590  0.00  0.00    -0.445 OA
BRANCH  40  41
ATOM     41  C   LIG    1        4.160  -4.408   2.025  0.00  0.00    +0.107 C 
ATOM     42  C   LIG    1        4.907  -4.222   3.361  0.00  0.00    +0.055 C 
ATOM     43  C   LIG    1        2.851  -5.199   2.271  0.00  0.00    +0.055 C 
ATOM     44  C   LIG    1        5.079  -5.149   1.024  0.00  0.00    +0.055 C 
ENDBRANCH  40  41
ENDBRANCH  38  40
ENDBRANCH  35  36
BRANCH  35  45
ATOM     45  C   LIG    1        5.283  -0.234   1.050  0.00  0.00    +0.028 C 
BRANCH  45  46
ATOM     46  C   LIG    1        6.028   0.719   2.020  0.00  0.00    -0.015 C 
ATOM     47  C   LIG    1        5.772   0.384   3.503  0.00  0.00    +0.007 C 
ATOM     48  C   LIG    1        7.538   0.732   1.720  0.00  0.00    +0.007 C 
ENDBRANCH  45  46
ENDBRANCH  35  45
ENDBRANCH  32  35
ENDBRANCH  30  32
ENDBRANCH  29  30
ENDBRANCH   3  29
BRANCH  13  49
ATOM     49  O   LIG    1       -2.341   4.050  -1.441  0.00  0.00    -0.453 OA
BRANCH  49  50
ATOM     50  C   LIG    1       -3.196   4.981  -1.947  0.00  0.00    +0.340 C 
ATOM     51  O   LIG    1       -4.228   4.702  -2.564  0.00  0.00    -0.245 OA
BRANCH  50  52
ATOM     52  C   LIG    1       -2.723   6.386  -1.717  0.00  0.00    +0.059 A 
ATOM     53  C   LIG    1       -3.419   7.450  -2.310  0.00  0.00    +0.015 A 
ATOM     54  C   LIG    1       -2.995   8.763  -2.122  0.00  0.00    +0.001 A 
ATOM     55  C   LIG    1       -1.873   9.022  -1.339  0.00  0.00    +0.000 A 
ATOM     56  C   LIG    1       -1.173   7.979  -0.740  0.00  0.00    +0.001 A 
ATOM     57  C   LIG    1       -1.597   6.666  -0.925  0.00  0.00    +0.015 A 
ENDBRANCH  50  52
ENDBRANCH  49  50
ENDBRANCH  13  49
BRANCH  15  58
ATOM     58  O   LIG    1        0.383   3.406  -1.679  0.00  0.00    -0.453 OA
BRANCH  58  59
ATOM     59  C   LIG    1        1.414   4.288  -1.526  0.00  0.00    +0.305 C 
ATOM     60  C   LIG    1        1.738   4.550  -0.060  0.00  0.00    +0.136 C 
ATOM     61  O   LIG    1        2.047   4.848  -2.419  0.00  0.00    -0.251 OA
ENDBRANCH  58  59
ENDBRANCH  15  58
BRANCH  25  62
ATOM     62  O   LIG    1       -4.321  -1.035  -2.465  0.00  0.00    -0.449 OA
BRANCH  62  63
ATOM     63  C   LIG    1       -4.842  -1.976  -3.294  0.00  0.00    +0.305 C 
ATOM     64  C   LIG    1       -6.338  -1.789  -3.507  0.00  0.00    +0.136 C 
ATOM     65  O   LIG    1       -4.225  -2.893  -3.837  0.00  0.00    -0.251 OA
ENDBRANCH  62  63
ENDBRANCH  25  62
TORSDOF 18
