REMARK  Name = DB11919
REMARK                            x       y       z     vdW  Elec       q    Type
REMARK                         _______ _______ _______ _____ _____    ______ ____
ROOT
ATOM      1  C   LIG    1       -2.146  -1.194   0.000  0.00  0.00    +0.218 A 
ATOM      2  N   LIG    1       -2.882  -0.048   0.000  0.00  0.00    -0.195 NA
ATOM      3  C   LIG    1       -2.131   1.059   0.000  0.00  0.00    +0.166 A 
ATOM      4  N   LIG    1       -2.513   2.379   0.000  0.00  0.00    -0.329 N 
ATOM      5  H   LIG    1       -3.440   2.779   0.000  0.00  0.00    +0.168 HD
ATOM      6  C   LIG    1       -1.350   3.116   0.000  0.00  0.00    +0.199 A 
ATOM      7  N   LIG    1       -0.256   2.393   0.000  0.00  0.00    -0.229 NA
ATOM      8  C   LIG    1       -0.717   1.101   0.000  0.00  0.00    +0.169 A 
ATOM      9  C   LIG    1       -0.071  -0.144   0.000  0.00  0.00    +0.248 A 
ATOM     10  N   LIG    1       -0.790  -1.305   0.000  0.00  0.00    -0.178 NA
ENDROOT
BRANCH   1  11
ATOM     11  N   LIG    1       -2.860  -2.386   0.000  0.00  0.00    -0.327 N 
ATOM     12  H   LIG    1       -2.356  -3.261   0.000  0.00  0.00    +0.145 HD
ATOM     13  H   LIG    1       -3.869  -2.359   0.000  0.00  0.00    +0.145 HD
ENDBRANCH   1  11
BRANCH   9  14
ATOM     14  O   LIG    1        1.311  -0.154   0.000  0.00  0.00    -0.470 OA
BRANCH  14  15
ATOM     15  C   LIG    1        1.992  -1.407   0.000  0.00  0.00    +0.266 C 
BRANCH  15  16
ATOM     16  C   LIG    1        3.490  -1.154   0.000  0.00  0.00    -0.010 A 
ATOM     17  C   LIG    1        4.176  -1.032  -1.211  0.00  0.00    +0.007 A 
ATOM     18  C   LIG    1        5.548  -0.794  -1.211  0.00  0.00    +0.000 A 
ATOM     19  C   LIG    1        6.228  -0.676   0.000  0.00  0.00    +0.000 A 
ATOM     20  C   LIG    1        5.548  -0.794   1.211  0.00  0.00    +0.000 A 
ATOM     21  C   LIG    1        4.176  -1.032   1.211  0.00  0.00    +0.007 A 
ENDBRANCH  15  16
ENDBRANCH  14  15
ENDBRANCH   9  14
TORSDOF 4
