REMARK  Name = DB11689
REMARK                            x       y       z     vdW  Elec       q    Type
REMARK                         _______ _______ _______ _____ _____    ______ ____
ROOT
ATOM      1  C   LIG    1        3.767   0.028   0.771  0.00  0.00    +0.065 A 
ATOM      2  C   LIG    1        4.099   0.667  -0.438  0.00  0.00    +0.043 A 
ATOM      3  C   LIG    1        5.423   0.596  -0.871  0.00  0.00    +0.072 A 
ATOM      4  N   LIG    1        6.089   1.093  -1.974  0.00  0.00    -0.333 N 
ATOM      5  C   LIG    1        7.396   0.676  -1.851  0.00  0.00    +0.200 A 
ATOM      6  N   LIG    1        7.631  -0.032  -0.779  0.00  0.00    -0.233 NA
ATOM      7  C   LIG    1        5.529   1.885  -3.055  0.00  0.00    +0.150 C 
ATOM      8  C   LIG    1        6.418  -0.096  -0.143  0.00  0.00    +0.126 A 
ATOM      9  C   LIG    1        6.081  -0.731   1.057  0.00  0.00    +0.172 A 
ATOM     10  F   LIG    1        7.029  -1.425   1.735  0.00  0.00    -0.201 F 
ATOM     11  C   LIG    1        4.760  -0.645   1.529  0.00  0.00    +0.082 A 
ENDROOT
BRANCH   1  14
ATOM     12  N   LIG    1        1.393  -0.090   0.291  0.00  0.00    -0.190 N 
ATOM     13  H   LIG    1        1.572  -0.500  -0.615  0.00  0.00    +0.183 HD
ATOM     14  C   LIG    1        2.327   0.118   1.243  0.00  0.00    +0.269 C 
ATOM     15  O   LIG    1        2.062   0.359   2.424  0.00  0.00    -0.268 OA
BRANCH  12  16
ATOM     16  O   LIG    1        0.042  -0.139   0.643  0.00  0.00    -0.277 OA
BRANCH  16  17
ATOM     17  C   LIG    1       -0.555   1.149   0.515  0.00  0.00    +0.218 C 
BRANCH  17  18
ATOM     18  C   LIG    1       -2.038   1.055   0.902  0.00  0.00    +0.186 C 
BRANCH  18  19
ATOM     19  O   LIG    1       -2.659   2.318   0.792  0.00  0.00    -0.393 OA
ATOM     20  H   LIG    1       -3.582   2.228   1.043  0.00  0.00    +0.209 HD
ENDBRANCH  18  19
ENDBRANCH  17  18
ENDBRANCH  16  17
ENDBRANCH  12  16
ENDBRANCH   1  14
BRANCH  11  21
ATOM     21  N   LIG    1        4.429  -1.342   2.708  0.00  0.00    -0.310 N 
ATOM     22  H   LIG    1        3.646  -1.975   2.628  0.00  0.00    +0.152 HD
BRANCH  21  23
ATOM     23  C   LIG    1        4.935  -1.195   4.012  0.00  0.00    +0.050 A 
ATOM     24  C   LIG    1        5.879  -0.204   4.320  0.00  0.00    +0.026 A 
ATOM     25  C   LIG    1        6.370  -0.069   5.618  0.00  0.00    +0.017 A 
ATOM     26  C   LIG    1        5.922  -0.921   6.625  0.00  0.00    +0.019 A 
ATOM     27 BR   LIG    1        6.594  -0.739   8.396  0.00  0.00    -0.050 Br
ATOM     28  C   LIG    1        4.979  -1.906   6.333  0.00  0.00    +0.037 A 
ATOM     29  C   LIG    1        4.483  -2.046   5.035  0.00  0.00    +0.063 A 
ATOM     30 CL   LIG    1        3.308  -3.283   4.734  0.00  0.00    -0.082 Cl
ENDBRANCH  21  23
ENDBRANCH  11  21
TORSDOF 7
