REMARK  Name = DB11650
REMARK                            x       y       z     vdW  Elec       q    Type
REMARK                         _______ _______ _______ _____ _____    ______ ____
ROOT
ATOM      1  C   LIG    1       -2.406  -1.026   0.514  0.00  0.00    +0.080 C 
ATOM      2  C   LIG    1       -2.742  -0.744  -0.971  0.00  0.00    +0.216 C 
ATOM      3  O   LIG    1       -3.725  -1.212  -1.541  0.00  0.00    -0.276 OA
ATOM      4  N   LIG    1       -1.889   0.087  -1.613  0.00  0.00    -0.314 N 
ATOM      5  H   LIG    1       -2.102   0.273  -2.583  0.00  0.00    +0.149 HD
ATOM      6  C   LIG    1       -0.673   0.724  -1.069  0.00  0.00    +0.112 C 
ATOM      7  C   LIG    1       -0.132   0.075   0.242  0.00  0.00    +0.037 C 
ATOM      8  C   LIG    1       -0.880  -1.200   0.668  0.00  0.00    +0.022 C 
ENDROOT
BRANCH   7   9
ATOM      9  C   LIG    1        1.388  -0.111   0.245  0.00  0.00    -0.039 A 
ATOM     10  C   LIG    1        2.188   0.557   1.177  0.00  0.00    +0.053 A 
ATOM     11  C   LIG    1        3.584   0.387   1.189  0.00  0.00    +0.163 A 
ATOM     12  C   LIG    1        4.182  -0.465   0.248  0.00  0.00    +0.162 A 
ATOM     13  C   LIG    1        3.373  -1.135  -0.685  0.00  0.00    +0.049 A 
ATOM     14  C   LIG    1        1.993  -0.959  -0.684  0.00  0.00    +0.008 A 
BRANCH  12  15
ATOM     15  O   LIG    1        5.559  -0.595   0.302  0.00  0.00    -0.491 OA
ATOM     16  C   LIG    1        6.219  -1.449  -0.626  0.00  0.00    +0.277 C 
ENDBRANCH  12  15
BRANCH  11  17
ATOM     17  O   LIG    1        4.430   1.016   2.088  0.00  0.00    -0.485 OA
BRANCH  17  18
ATOM     18  C   LIG    1        3.910   1.889   3.095  0.00  0.00    +0.174 C 
ATOM     19  C   LIG    1        3.281   1.067   4.248  0.00  0.00    +0.044 C 
ATOM     20  C   LIG    1        4.091   1.385   5.510  0.00  0.00    +0.004 C 
ATOM     21  C   LIG    1        5.452   1.833   4.989  0.00  0.00    +0.004 C 
ATOM     22  C   LIG    1        5.111   2.620   3.723  0.00  0.00    +0.044 C 
ENDBRANCH  17  18
ENDBRANCH  11  17
ENDBRANCH   7   9
BRANCH   1  23
ATOM     23  C   LIG    1       -3.032   0.063   1.433  0.00  0.00    +0.048 C 
BRANCH  23  27
ATOM     24  C   LIG    1       -7.483   1.959  -0.080  0.00  0.00    +0.044 C 
ATOM     25  C   LIG    1       -6.688   0.962   0.743  0.00  0.00    -0.050 A 
ATOM     26  C   LIG    1       -5.290   0.974   0.713  0.00  0.00    +0.007 A 
ATOM     27  C   LIG    1       -4.557   0.057   1.474  0.00  0.00    -0.046 A 
ATOM     28  C   LIG    1       -5.233  -0.870   2.274  0.00  0.00    +0.003 A 
ATOM     29  C   LIG    1       -6.627  -0.881   2.311  0.00  0.00    +0.001 A 
ATOM     30  C   LIG    1       -7.354   0.033   1.548  0.00  0.00    +0.003 A 
ENDBRANCH  23  27
ENDBRANCH   1  23
TORSDOF 6
