REMARK  Name = DB11102
REMARK                            x       y       z     vdW  Elec       q    Type
REMARK                         _______ _______ _______ _____ _____    ______ ____
ROOT
ATOM      1  CA  TYR A  1        0.043   0.112   0.029  0.00  0.00    +0.186 C 
ENDROOT
BRANCH   1   4
ATOM      2  C   UNK A  0       -1.806  -2.209  -2.419  0.00  0.00    +0.109 C 
ATOM      3  C   UNK A  0       -1.192  -1.735  -1.106  0.00  0.00    +0.211 C 
ATOM      4  N   TYR A  1       -0.605  -0.527  -1.121  0.00  0.00    -0.302 N 
ATOM      5  H   TYR A  1       -0.600   0.009  -1.976  0.00  0.00    +0.150 HD
ATOM      6  O   UNK A  0       -1.250  -2.456  -0.111  0.00  0.00    -0.276 OA
ENDBRANCH   1   4
BRANCH   1   7
ATOM      7  C   TYR A  1       -0.411   1.581   0.141  0.00  0.00    +0.326 C 
ATOM      8  O   TYR A  1        0.339   2.536   0.100  0.00  0.00    -0.249 OA
BRANCH   7   9
ATOM      9  OXT TYR A  1       -1.764   1.639   0.321  0.00  0.00    -0.479 OA
ATOM     10  HXT TYR A  1       -2.084   2.540   0.409  0.00  0.00    +0.295 HD
ENDBRANCH   7   9
ENDBRANCH   1   7
BRANCH   1  11
ATOM     11  CB  TYR A  1        1.580  -0.036  -0.089  0.00  0.00    +0.069 C 
BRANCH  11  12
ATOM     12  CG  TYR A  1        2.090  -1.468  -0.064  0.00  0.00    -0.045 A 
ATOM     13  CD2 TYR A  1        2.501  -2.099  -1.257  0.00  0.00    +0.007 A 
ATOM     14  CE2 TYR A  1        2.958  -3.431  -1.232  0.00  0.00    +0.045 A 
ATOM     15  CZ  TYR A  1        3.009  -4.136  -0.014  0.00  0.00    +0.117 A 
ATOM     16  CE1 TYR A  1        2.602  -3.508   1.179  0.00  0.00    +0.045 A 
ATOM     17  CD1 TYR A  1        2.143  -2.177   1.154  0.00  0.00    +0.007 A 
BRANCH  15  18
ATOM     18  OH  TYR A  1        3.452  -5.426   0.012  0.00  0.00    -0.507 OA
ATOM     19  HH  TYR A  1        3.700  -5.757  -0.854  0.00  0.00    +0.292 HD
ENDBRANCH  15  18
ENDBRANCH  11  12
ENDBRANCH   1  11
TORSDOF 6
