REMARK  Name = DB11142
REMARK                            x       y       z     vdW  Elec       q    Type
REMARK                         _______ _______ _______ _____ _____    ______ ____
ROOT
ATOM      1  CA  LIG    1       -0.060   0.035   0.039  0.00  0.00    +0.000 C 
ENDROOT
BRANCH   1   2
ATOM      2  N   LIG    1       -0.512   1.435  -0.034  0.00  0.00    +0.000 NA
ATOM      3  H1  LIG    1       -0.038   2.013   0.646  0.00  0.00    +0.000 HD
ATOM      4  H2  LIG    1       -1.505   1.515   0.134  0.00  0.00    +0.000 HD
ENDBRANCH   1   2
BRANCH   1   5
ATOM      5  C   LIG    1       -0.743  -0.618   1.260  0.00  0.00    +0.000 C 
ATOM      6  OXT LIG    1       -0.902  -0.045   2.339  0.00  0.00    +0.000 OA
BRANCH   5   7
ATOM      7  O   LIG    1       -1.112  -1.904   0.990  0.00  0.00    +0.000 OA
ATOM      8  H   LIG    1       -1.528  -2.330   1.743  0.00  0.00    +0.000 HD
ENDBRANCH   5   7
ENDBRANCH   1   5
BRANCH   1   9
ATOM      9  C   LIG    1        1.483  -0.070   0.082  0.00  0.00    +0.000 C 
BRANCH   9  10
ATOM     10  C   LIG    1        2.034  -1.507   0.011  0.00  0.00    +0.000 C 
BRANCH  10  11
ATOM     11 SE   LIG    1        4.005  -1.475  -0.022  0.00  0.00    +0.000 Se
ATOM     12  C   LIG    1        4.314  -2.373  -1.746  0.00  0.00    +0.000 C 
ENDBRANCH  10  11
ENDBRANCH   9  10
ENDBRANCH   1   9
TORSDOF 6
