REMARK  Name = DB11693
REMARK                            x       y       z     vdW  Elec       q    Type
REMARK                         _______ _______ _______ _____ _____    ______ ____
ROOT
ATOM      1  C   LIG    1        1.340  -1.134  10.650  0.00  0.00    +0.162 C 
ATOM      2  C   LIG    1        1.757  -1.965  11.894  0.00  0.00    +0.234 C 
ATOM      3  N   LIG    1        2.380  -1.270  12.863  0.00  0.00    -0.302 N 
ATOM      4  H   LIG    1        2.529  -0.282  12.711  0.00  0.00    +0.150 HD
ATOM      5  C   LIG    1        2.975  -1.793  14.103  0.00  0.00    +0.162 C 
ATOM      6  C   LIG    1        4.227  -2.661  13.754  0.00  0.00    +0.237 C 
ATOM      7  N   LIG    1        5.448  -2.066  13.606  0.00  0.00    -0.291 N 
ATOM      8  C   LIG    1        5.779  -0.711  14.133  0.00  0.00    +0.162 C 
ATOM      9  C   LIG    1        5.439   0.399  13.119  0.00  0.00    +0.234 C 
ATOM     10  N   LIG    1        4.884   1.504  13.650  0.00  0.00    -0.303 N 
ATOM     11  H   LIG    1        4.712   1.517  14.645  0.00  0.00    +0.149 HD
ATOM     12  C   LIG    1        4.524   2.740  12.949  0.00  0.00    +0.156 C 
ATOM     13  C   LIG    1        5.782   3.404  12.342  0.00  0.00    +0.038 C 
ATOM     14  C   LIG    1        3.353   2.566  11.959  0.00  0.00    +0.234 C 
ATOM     15  O   LIG    1        2.460   1.756  12.209  0.00  0.00    -0.274 OA
ATOM     16  N   LIG    1        3.356   3.369  10.882  0.00  0.00    -0.303 N 
ATOM     17  H   LIG    1        4.125   4.012  10.763  0.00  0.00    +0.149 HD
ATOM     18  C   LIG    1        2.308   3.460   9.863  0.00  0.00    +0.156 C 
ATOM     19  C   LIG    1        1.075   4.268  10.360  0.00  0.00    +0.236 C 
ATOM     20  N   LIG    1       -0.126   4.195   9.706  0.00  0.00    -0.291 N 
ATOM     21  C   LIG    1       -1.263   4.985  10.225  0.00  0.00    +0.133 C 
ATOM     22  C   LIG    1       -0.380   3.362   8.494  0.00  0.00    +0.162 C 
ATOM     23  C   LIG    1       -0.389   4.194   7.176  0.00  0.00    +0.236 C 
ATOM     24  N   LIG    1        0.109   3.640   6.034  0.00  0.00    -0.291 N 
ATOM     25  C   LIG    1        0.249   4.444   4.787  0.00  0.00    +0.162 C 
ATOM     26  C   LIG    1       -0.650   3.913   3.628  0.00  0.00    +0.236 C 
ATOM     27  O   LIG    1       -1.024   2.738   3.689  0.00  0.00    -0.274 OA
ATOM     28  N   LIG    1       -0.886   4.688   2.524  0.00  0.00    -0.291 N 
ATOM     29  C   LIG    1       -0.967   6.154   2.647  0.00  0.00    +0.133 C 
ATOM     30  C   LIG    1       -1.275   4.046   1.218  0.00  0.00    +0.164 C 
ATOM     31  C   LIG    1       -0.247   2.953   0.774  0.00  0.00    +0.237 C 
ATOM     32  O   LIG    1        0.942   3.247   0.908  0.00  0.00    -0.274 OA
ATOM     33  N   LIG    1       -0.689   1.737   0.336  0.00  0.00    -0.289 N 
ATOM     34  C   LIG    1       -2.128   1.447   0.218  0.00  0.00    +0.133 C 
ATOM     35  C   LIG    1        0.197   0.546   0.120  0.00  0.00    +0.190 C 
ATOM     36  C   LIG    1        0.200  -0.470   1.309  0.00  0.00    +0.237 C 
ATOM     37  O   LIG    1        0.766  -1.553   1.167  0.00  0.00    -0.274 OA
ATOM     38  N   LIG    1       -0.516  -0.162   2.413  0.00  0.00    -0.302 N 
ATOM     39  H   LIG    1       -0.929   0.759   2.457  0.00  0.00    +0.150 HD
ATOM     40  C   LIG    1       -0.917  -1.054   3.517  0.00  0.00    +0.159 C 
ATOM     41  C   LIG    1        0.226  -1.333   4.546  0.00  0.00    +0.236 C 
ATOM     42  O   LIG    1        1.313  -1.693   4.083  0.00  0.00    -0.274 OA
ATOM     43  N   LIG    1       -0.012  -1.261   5.892  0.00  0.00    -0.294 N 
ATOM     44  C   LIG    1       -1.352  -0.938   6.413  0.00  0.00    +0.132 C 
ATOM     45  C   LIG    1        0.983  -1.863   6.818  0.00  0.00    +0.203 C 
ATOM     46  C   LIG    1        1.149  -1.102   8.158  0.00  0.00    +0.233 C 
ATOM     47  O   LIG    1        1.017   0.121   8.148  0.00  0.00    -0.274 OA
ATOM     48  C   LIG    1        0.632   2.262   6.014  0.00  0.00    +0.133 C 
ATOM     49  O   LIG    1       -0.833   5.343   7.223  0.00  0.00    -0.274 OA
ATOM     50  O   LIG    1        1.251   4.984  11.351  0.00  0.00    -0.274 OA
ATOM     51  C   LIG    1        2.958   4.128   8.639  0.00  0.00    +0.038 C 
ATOM     52  O   LIG    1        5.692   0.241  11.924  0.00  0.00    -0.274 OA
ATOM     53  C   LIG    1        6.544  -2.845  13.001  0.00  0.00    +0.133 C 
ATOM     54  O   LIG    1        4.038  -3.862  13.535  0.00  0.00    -0.274 OA
ATOM     55  O   LIG    1        1.468  -3.159  11.978  0.00  0.00    -0.274 OA
ATOM     56  N   LIG    1        1.411  -1.801   9.302  0.00  0.00    -0.292 N 
ATOM     57  C   LIG    1        2.064  -3.120   9.178  0.00  0.00    +0.133 C 
ENDROOT
BRANCH  30  58
ATOM     58  C   LIG    1       -1.566   5.023   0.008  0.00  0.00    +0.012 C 
ATOM     59  C   LIG    1       -1.171   4.560  -1.416  0.00  0.00    +0.009 C 
ATOM     60  C   LIG    1       -3.056   5.414  -0.009  0.00  0.00    +0.009 C 
ENDBRANCH  30  58
BRANCH   5  61
ATOM     61  C   LIG    1        1.970  -2.569  15.028  0.00  0.00    +0.012 C 
ATOM     62  C   LIG    1        2.597  -3.038  16.360  0.00  0.00    +0.009 C 
ATOM     63  C   LIG    1        0.704  -1.742  15.333  0.00  0.00    +0.009 C 
ENDBRANCH   5  61
BRANCH  40  64
ATOM     64  C   LIG    1       -1.555  -2.374   2.986  0.00  0.00    +0.028 C 
ATOM     65  C   LIG    1       -2.350  -3.193   4.014  0.00  0.00    +0.006 C 
ENDBRANCH  40  64
BRANCH  25  66
ATOM     66  C   LIG    1        1.760   4.449   4.393  0.00  0.00    +0.035 C 
BRANCH  66  67
ATOM     67  C   LIG    1        2.262   5.590   3.481  0.00  0.00    -0.015 C 
ATOM     68  C   LIG    1        2.086   6.980   4.135  0.00  0.00    +0.007 C 
ATOM     69  C   LIG    1        3.717   5.331   3.029  0.00  0.00    +0.007 C 
ENDBRANCH  66  67
ENDBRANCH  25  66
BRANCH  35  70
ATOM     70  C   LIG    1        1.584   0.804  -0.593  0.00  0.00    +0.147 C 
BRANCH  70  71
ATOM     71  O   LIG    1        1.340   1.590  -1.752  0.00  0.00    -0.389 OA
ATOM     72  H   LIG    1        2.138   2.083  -1.958  0.00  0.00    +0.210 HD
ENDBRANCH  70  71
BRANCH  70  73
ATOM     73  C   LIG    1        2.432  -0.431  -1.053  0.00  0.00    +0.021 C 
ATOM     74  C   LIG    1        3.787  -0.003  -1.667  0.00  0.00    +0.010 C 
BRANCH  73  75
ATOM     75  C   LIG    1        1.664  -1.413  -1.980  0.00  0.00    +0.033 C 
BRANCH  75  76
ATOM     76  C   LIG    1        2.375  -2.732  -2.227  0.00  0.00    -0.026 C 
ATOM     77  C   LIG    1        1.975  -3.919  -1.737  0.00  0.00    -0.005 C 
BRANCH  77  78
ATOM     78  C   LIG    1        2.679  -5.159  -1.995  0.00  0.00    -0.008 C 
ATOM     79  C   LIG    1        2.279  -6.343  -1.505  0.00  0.00    +0.008 C 
ENDBRANCH  77  78
ENDBRANCH  75  76
ENDBRANCH  73  75
ENDBRANCH  70  73
ENDBRANCH  35  70
BRANCH  22  80
ATOM     80  C   LIG    1       -1.616   2.428   8.695  0.00  0.00    +0.035 C 
BRANCH  80  81
ATOM     81  C   LIG    1       -3.010   2.916   8.212  0.00  0.00    -0.015 C 
ATOM     82  C   LIG    1       -3.217   2.736   6.688  0.00  0.00    +0.007 C 
ATOM     83  C   LIG    1       -4.142   2.247   9.026  0.00  0.00    +0.007 C 
ENDBRANCH  80  81
ENDBRANCH  22  80
BRANCH   8  84
ATOM     84  C   LIG    1        7.245  -0.603  14.652  0.00  0.00    +0.035 C 
BRANCH  84  85
ATOM     85  C   LIG    1        7.619   0.706  15.390  0.00  0.00    -0.015 C 
ATOM     86  C   LIG    1        6.729   0.967  16.625  0.00  0.00    +0.007 C 
ATOM     87  C   LIG    1        9.123   0.728  15.739  0.00  0.00    +0.007 C 
ENDBRANCH  84  85
ENDBRANCH   8  84
BRANCH   1  88
ATOM     88  C   LIG    1       -0.052  -0.465  10.936  0.00  0.00    +0.035 C 
BRANCH  88  89
ATOM     89  C   LIG    1       -1.230  -1.381  11.367  0.00  0.00    -0.015 C 
ATOM     90  C   LIG    1       -2.461  -0.533  11.754  0.00  0.00    +0.007 C 
ATOM     91  C   LIG    1       -1.589  -2.453  10.319  0.00  0.00    +0.007 C 
ENDBRANCH  88  89
ENDBRANCH   1  88
TORSDOF 17
