REMARK  Name = DB11332
REMARK                            x       y       z     vdW  Elec       q    Type
REMARK                         _______ _______ _______ _____ _____    ______ ____
ROOT
ATOM      1  CA  LYS A 11        1.620   0.033   0.509  0.00  0.00    +0.159 C 
ENDROOT
BRANCH   1   2
ATOM      2  N   LYS A 11        2.165  -0.721   1.633  0.00  0.00    -0.302 N 
ATOM      3  H   LYS A 11        1.598  -1.491   1.957  0.00  0.00    +0.150 HD
ATOM      4  C   LEU A 10        3.314  -0.437   2.264  0.00  0.00    +0.234 C 
ATOM      5  O   LEU A 10        4.074   0.481   1.953  0.00  0.00    -0.274 OA
BRANCH   4   6
ATOM      6  CA  LEU A 10        3.637  -1.322   3.482  0.00  0.00    +0.159 C 
BRANCH   6   7
ATOM      7  N   LEU A 10        5.068  -1.619   3.562  0.00  0.00    -0.302 N 
ATOM      8  H   LEU A 10        5.583  -1.112   4.268  0.00  0.00    +0.150 HD
ATOM      9  C   LEU A  9        5.729  -2.461   2.747  0.00  0.00    +0.234 C 
ATOM     10  O   LEU A  9        5.186  -3.114   1.855  0.00  0.00    -0.274 OA
BRANCH   9  11
ATOM     11  CA  LEU A  9        7.248  -2.582   2.975  0.00  0.00    +0.159 C 
BRANCH  11  12
ATOM     12  N   LEU A  9        7.531  -2.749   4.403  0.00  0.00    -0.302 N 
ATOM     13  H   LEU A  9        7.149  -3.581   4.829  0.00  0.00    +0.150 HD
ATOM     14  C   LEU A  8        8.257  -1.903   5.152  0.00  0.00    +0.234 C 
ATOM     15  O   LEU A  8        8.761  -0.858   4.739  0.00  0.00    -0.274 OA
BRANCH  14  16
ATOM     16  CA  LEU A  8        8.422  -2.294   6.632  0.00  0.00    +0.159 C 
BRANCH  16  17
ATOM     17  N   LEU A  8        9.809  -2.143   7.075  0.00  0.00    -0.302 N 
ATOM     18  H   LEU A  8        9.980  -1.391   7.727  0.00  0.00    +0.150 HD
ATOM     19  C   LEU A  7       10.844  -2.894   6.660  0.00  0.00    +0.234 C 
ATOM     20  O   LEU A  7       10.745  -3.842   5.881  0.00  0.00    -0.274 OA
BRANCH  19  21
ATOM     21  CA  LEU A  7       12.209  -2.518   7.254  0.00  0.00    +0.159 C 
BRANCH  21  22
ATOM     22  N   LEU A  7       12.209  -2.915   8.660  0.00  0.00    -0.302 N 
ATOM     23  H   LEU A  7       11.931  -3.868   8.845  0.00  0.00    +0.150 HD
ATOM     24  C   LYS A  6       12.555  -2.123   9.686  0.00  0.00    +0.234 C 
ATOM     25  O   LYS A  6       12.916  -0.950   9.580  0.00  0.00    -0.274 OA
BRANCH  24  26
ATOM     26  CA  LYS A  6       12.480  -2.771  11.078  0.00  0.00    +0.159 C 
BRANCH  26  27
ATOM     27  N   LYS A  6       13.800  -2.777  11.706  0.00  0.00    -0.302 N 
ATOM     28  H   LYS A  6       13.945  -2.087  12.429  0.00  0.00    +0.150 HD
ATOM     29  C   LEU A  5       14.822  -3.567  11.337  0.00  0.00    +0.234 C 
ATOM     30  O   LEU A  5       14.757  -4.437  10.468  0.00  0.00    -0.274 OA
BRANCH  29  31
ATOM     31  CA  LEU A  5       16.160  -3.302  12.049  0.00  0.00    +0.159 C 
BRANCH  31  32
ATOM     32  N   LEU A  5       16.763  -4.536  12.553  0.00  0.00    -0.302 N 
ATOM     33  H   LEU A  5       17.622  -4.816  12.102  0.00  0.00    +0.150 HD
ATOM     34  C   LEU A  4       16.272  -5.299  13.545  0.00  0.00    +0.234 C 
ATOM     35  O   LEU A  4       15.236  -5.050  14.163  0.00  0.00    -0.274 OA
BRANCH  34  36
ATOM     36  CA  LEU A  4       17.121  -6.526  13.914  0.00  0.00    +0.159 C 
BRANCH  36  37
ATOM     37  N   LEU A  4       18.420  -6.050  14.384  0.00  0.00    -0.302 N 
ATOM     38  H   LEU A  4       18.391  -5.378  15.138  0.00  0.00    +0.150 HD
ATOM     39  C   LEU A  3       19.607  -6.405  13.870  0.00  0.00    +0.234 C 
ATOM     40  O   LEU A  3       19.762  -7.210  12.951  0.00  0.00    -0.274 OA
BRANCH  39  41
ATOM     41  CA  LEU A  3       20.829  -5.709  14.482  0.00  0.00    +0.159 C 
BRANCH  41  42
ATOM     42  N   LEU A  3       21.790  -6.734  14.876  0.00  0.00    -0.302 N 
ATOM     43  H   LEU A  3       21.810  -7.557  14.292  0.00  0.00    +0.150 HD
ATOM     44  C   LEU A  2       22.549  -6.694  15.981  0.00  0.00    +0.234 C 
ATOM     45  O   LEU A  2       22.596  -5.743  16.763  0.00  0.00    -0.274 OA
BRANCH  44  46
ATOM     46  CA  LEU A  2       23.350  -7.971  16.276  0.00  0.00    +0.159 C 
BRANCH  46  47
ATOM     47  N   LEU A  2       24.645  -7.612  16.851  0.00  0.00    -0.303 N 
ATOM     48  H   LEU A  2       24.682  -6.717  17.317  0.00  0.00    +0.149 HD
ATOM     49  C   LYS A  1       25.750  -8.376  16.799  0.00  0.00    +0.230 C 
ATOM     50  O   LYS A  1       25.793  -9.479  16.249  0.00  0.00    -0.274 OA
BRANCH  49  51
ATOM     51  CA  LYS A  1       27.003  -7.796  17.495  0.00  0.00    +0.138 C 
BRANCH  51  52
ATOM     52  N   LYS A  1       27.441  -8.767  18.513  0.00  0.00    -0.320 NA
ATOM     53  H1  LYS A  1       26.748  -8.849  19.244  0.00  0.00    +0.119 HD
ATOM     54  H2  LYS A  1       28.282  -8.443  18.968  0.00  0.00    +0.119 HD
ENDBRANCH  51  52
BRANCH  51  55
ATOM     55  CB  LYS A  1       28.126  -7.387  16.507  0.00  0.00    +0.028 C 
BRANCH  55  56
ATOM     56  CG  LYS A  1       28.828  -8.531  15.744  0.00  0.00    +0.003 C 
BRANCH  56  57
ATOM     57  CD  LYS A  1       29.988  -8.031  14.871  0.00  0.00    +0.015 C 
BRANCH  57  58
ATOM     58  CE  LYS A  1       30.682  -9.172  14.117  0.00  0.00    +0.077 C 
BRANCH  58  59
ATOM     59  NZ  LYS A  1       31.774  -8.650  13.319  0.00  0.00    -0.330 NA
ATOM     60  HZ1 LYS A  1       32.226  -9.408  12.828  0.00  0.00    +0.118 HD
ATOM     61  HZ2 LYS A  1       32.473  -8.245  13.925  0.00  0.00    +0.118 HD
ENDBRANCH  58  59
ENDBRANCH  57  58
ENDBRANCH  56  57
ENDBRANCH  55  56
ENDBRANCH  51  55
ENDBRANCH  49  51
ENDBRANCH  46  47
BRANCH  46  62
ATOM     62  CB  LEU A  2       22.608  -8.938  17.239  0.00  0.00    +0.034 C 
BRANCH  62  63
ATOM     63  CG  LEU A  2       21.175  -9.368  16.830  0.00  0.00    -0.015 C 
ATOM     64  CD2 LEU A  2       21.139 -10.082  15.460  0.00  0.00    +0.007 C 
ATOM     65  CD1 LEU A  2       20.512 -10.204  17.946  0.00  0.00    +0.007 C 
ENDBRANCH  62  63
ENDBRANCH  46  62
ENDBRANCH  44  46
ENDBRANCH  41  42
BRANCH  41  66
ATOM     66  CB  LEU A  3       21.500  -4.702  13.515  0.00  0.00    +0.034 C 
BRANCH  66  67
ATOM     67  CG  LEU A  3       20.574  -3.602  12.939  0.00  0.00    -0.015 C 
ATOM     68  CD2 LEU A  3       19.922  -2.738  14.041  0.00  0.00    +0.007 C 
ATOM     69  CD1 LEU A  3       21.313  -2.749  11.885  0.00  0.00    +0.007 C 
ENDBRANCH  66  67
ENDBRANCH  41  66
ENDBRANCH  39  41
ENDBRANCH  36  37
BRANCH  36  70
ATOM     70  CB  LEU A  4       16.469  -7.417  15.002  0.00  0.00    +0.034 C 
BRANCH  70  71
ATOM     71  CG  LEU A  4       17.230  -8.727  15.322  0.00  0.00    -0.015 C 
ATOM     72  CD2 LEU A  4       16.600  -9.451  16.532  0.00  0.00    +0.007 C 
ATOM     73  CD1 LEU A  4       17.363  -9.654  14.094  0.00  0.00    +0.007 C 
ENDBRANCH  70  71
ENDBRANCH  36  70
ENDBRANCH  34  36
ENDBRANCH  31  32
BRANCH  31  74
ATOM     74  CB  LEU A  5       17.187  -2.603  11.125  0.00  0.00    +0.034 C 
BRANCH  74  75
ATOM     75  CG  LEU A  5       16.732  -1.287  10.449  0.00  0.00    -0.015 C 
ATOM     76  CD2 LEU A  5       16.303  -0.211  11.471  0.00  0.00    +0.007 C 
ATOM     77  CD1 LEU A  5       17.814  -0.772   9.476  0.00  0.00    +0.007 C 
ENDBRANCH  74  75
ENDBRANCH  31  74
ENDBRANCH  29  31
ENDBRANCH  26  27
BRANCH  26  78
ATOM     78  CB  LYS A  6       11.486  -2.048  12.013  0.00  0.00    +0.032 C 
BRANCH  78  79
ATOM     79  CG  LYS A  6       10.042  -1.978  11.481  0.00  0.00    +0.003 C 
BRANCH  79  80
ATOM     80  CD  LYS A  6        9.069  -1.387  12.514  0.00  0.00    +0.015 C 
BRANCH  80  81
ATOM     81  CE  LYS A  6        7.629  -1.252  11.995  0.00  0.00    +0.077 C 
BRANCH  81  82
ATOM     82  NZ  LYS A  6        7.539  -0.197  11.005  0.00  0.00    -0.330 NA
ATOM     83  HZ1 LYS A  6        7.794   0.686  11.424  0.00  0.00    +0.118 HD
ATOM     84  HZ2 LYS A  6        6.581  -0.101  10.699  0.00  0.00    +0.118 HD
ENDBRANCH  81  82
ENDBRANCH  80  81
ENDBRANCH  79  80
ENDBRANCH  78  79
ENDBRANCH  26  78
ENDBRANCH  24  26
ENDBRANCH  21  22
BRANCH  21  85
ATOM     85  CB  LEU A  7       13.400  -3.193   6.524  0.00  0.00    +0.034 C 
BRANCH  85  86
ATOM     86  CG  LEU A  7       14.797  -2.693   6.961  0.00  0.00    -0.015 C 
ATOM     87  CD2 LEU A  7       15.918  -3.563   6.353  0.00  0.00    +0.007 C 
ATOM     88  CD1 LEU A  7       15.003  -1.190   6.673  0.00  0.00    +0.007 C 
ENDBRANCH  85  86
ENDBRANCH  21  85
ENDBRANCH  19  21
ENDBRANCH  16  17
BRANCH  16  89
ATOM     89  CB  LEU A  8        7.518  -1.455   7.569  0.00  0.00    +0.034 C 
BRANCH  89  90
ATOM     90  CG  LEU A  8        6.003  -1.463   7.248  0.00  0.00    -0.015 C 
ATOM     91  CD2 LEU A  8        5.396  -2.882   7.280  0.00  0.00    +0.007 C 
ATOM     92  CD1 LEU A  8        5.235  -0.481   8.156  0.00  0.00    +0.007 C 
ENDBRANCH  89  90
ENDBRANCH  16  89
ENDBRANCH  14  16
ENDBRANCH  11  12
BRANCH  11  93
ATOM     93  CB  LEU A  9        7.883  -3.754   2.181  0.00  0.00    +0.034 C 
BRANCH  93  94
ATOM     94  CG  LEU A  9        9.419  -3.894   2.318  0.00  0.00    -0.015 C 
ATOM     95  CD2 LEU A  9        9.922  -5.166   1.602  0.00  0.00    +0.007 C 
ATOM     96  CD1 LEU A  9       10.177  -2.628   1.864  0.00  0.00    +0.007 C 
ENDBRANCH  93  94
ENDBRANCH  11  93
ENDBRANCH   9  11
ENDBRANCH   6   7
BRANCH   6  97
ATOM     97  CB  LEU A 10        3.196  -0.669   4.815  0.00  0.00    +0.034 C 
BRANCH  97  98
ATOM     98  CG  LEU A 10        1.701  -0.276   4.934  0.00  0.00    -0.015 C 
ATOM     99  CD2 LEU A 10        0.751  -1.479   4.744  0.00  0.00    +0.007 C 
ATOM    100  CD1 LEU A 10        1.431   0.474   6.256  0.00  0.00    +0.007 C 
ENDBRANCH  97  98
ENDBRANCH   6  97
ENDBRANCH   4   6
ENDBRANCH   1   2
BRANCH   1 103
ATOM    101  N   LEU A 12       -0.520   1.199   0.484  0.00  0.00    -0.302 N 
ATOM    102  H   LEU A 12        0.040   2.035   0.401  0.00  0.00    +0.150 HD
ATOM    103  C   LYS A 11        0.089   0.006   0.586  0.00  0.00    +0.234 C 
ATOM    104  O   LYS A 11       -0.497  -1.073   0.686  0.00  0.00    -0.274 OA
BRANCH 101 105
ATOM    105  CA  LEU A 12       -1.962   1.387   0.356  0.00  0.00    +0.159 C 
BRANCH 105 108
ATOM    106  N   LEU A 13       -2.813   0.132  -1.556  0.00  0.00    -0.302 N 
ATOM    107  H   LEU A 13       -2.883  -0.637  -0.905  0.00  0.00    +0.150 HD
ATOM    108  C   LEU A 12       -2.341   1.314  -1.131  0.00  0.00    +0.234 C 
ATOM    109  O   LEU A 12       -2.192   2.303  -1.850  0.00  0.00    -0.274 OA
BRANCH 106 110
ATOM    110  CA  LEU A 13       -3.328  -0.119  -2.901  0.00  0.00    +0.159 C 
BRANCH 110 113
ATOM    111  N   LEU A 14       -5.077   0.969  -4.214  0.00  0.00    -0.302 N 
ATOM    112  H   LEU A 14       -4.379   1.011  -4.943  0.00  0.00    +0.150 HD
ATOM    113  C   LEU A 13       -4.764   0.415  -3.031  0.00  0.00    +0.234 C 
ATOM    114  O   LEU A 13       -5.546   0.308  -2.085  0.00  0.00    -0.274 OA
BRANCH 111 115
ATOM    115  CA  LEU A 14       -6.388   1.520  -4.552  0.00  0.00    +0.159 C 
BRANCH 115 118
ATOM    116  N   LEU A 15       -8.540   0.511  -3.993  0.00  0.00    -0.302 N 
ATOM    117  H   LEU A 15       -8.622   1.274  -3.337  0.00  0.00    +0.150 HD
ATOM    118  C   LEU A 14       -7.429   0.404  -4.741  0.00  0.00    +0.234 C 
ATOM    119  O   LEU A 14       -7.222  -0.486  -5.566  0.00  0.00    -0.274 OA
BRANCH 116 120
ATOM    120  CA  LEU A 15       -9.716  -0.345  -4.124  0.00  0.00    +0.159 C 
BRANCH 120 123
ATOM    121  N   LYS A 16      -10.505  -0.374  -6.434  0.00  0.00    -0.302 N 
ATOM    122  H   LYS A 16       -9.879  -1.159  -6.539  0.00  0.00    +0.150 HD
ATOM    123  C   LEU A 15      -10.612   0.224  -5.237  0.00  0.00    +0.234 C 
ATOM    124  O   LEU A 15      -11.335   1.193  -5.003  0.00  0.00    -0.274 OA
BRANCH 121 125
ATOM    125  CA  LYS A 16      -11.197   0.052  -7.649  0.00  0.00    +0.159 C 
BRANCH 125 128
ATOM    126  N   LEU A 17      -13.573   0.131  -7.092  0.00  0.00    -0.302 N 
ATOM    127  H   LEU A 17      -13.342   0.997  -6.626  0.00  0.00    +0.150 HD
ATOM    128  C   LYS A 16      -12.604  -0.564  -7.711  0.00  0.00    +0.234 C 
ATOM    129  O   LYS A 16      -12.782  -1.636  -8.291  0.00  0.00    -0.274 OA
BRANCH 126 130
ATOM    130  CA  LEU A 17      -14.983  -0.257  -7.059  0.00  0.00    +0.159 C 
BRANCH 130 133
ATOM    131  N   LEU A 18      -16.568  -0.717  -8.858  0.00  0.00    -0.302 N 
ATOM    132  H   LEU A 18      -16.700  -1.604  -8.394  0.00  0.00    +0.150 HD
ATOM    133  C   LEU A 17      -15.694   0.169  -8.353  0.00  0.00    +0.234 C 
ATOM    134  O   LEU A 17      -15.468   1.279  -8.838  0.00  0.00    -0.274 OA
BRANCH 131 135
ATOM    135  CA  LEU A 18      -17.422  -0.470 -10.019  0.00  0.00    +0.159 C 
BRANCH 135 138
ATOM    136  N   LEU A 19      -18.851   1.469 -10.442  0.00  0.00    -0.302 N 
ATOM    137  H   LEU A 19      -18.242   1.638 -11.229  0.00  0.00    +0.150 HD
ATOM    138  C   LEU A 18      -18.612   0.423  -9.632  0.00  0.00    +0.234 C 
ATOM    139  O   LEU A 18      -19.295   0.130  -8.650  0.00  0.00    -0.274 OA
BRANCH 136 140
ATOM    140  CA  LEU A 19      -20.011   2.353 -10.329  0.00  0.00    +0.159 C 
BRANCH 140 143
ATOM    141  N   LEU A 20      -22.246   1.495  -9.866  0.00  0.00    -0.302 N 
ATOM    142  H   LEU A 20      -22.099   1.877  -8.942  0.00  0.00    +0.150 HD
ATOM    143  C   LEU A 19      -21.281   1.620 -10.790  0.00  0.00    +0.234 C 
ATOM    144  O   LEU A 19      -21.351   1.195 -11.943  0.00  0.00    -0.274 OA
BRANCH 141 145
ATOM    145  CA  LEU A 20      -23.528   0.831 -10.080  0.00  0.00    +0.159 C 
BRANCH 145 148
ATOM    146  N   LYS A 21      -25.595   2.062 -10.472  0.00  0.00    -0.301 N 
ATOM    147  H   LYS A 21      -25.541   1.677 -11.403  0.00  0.00    +0.150 HD
ATOM    148  C   LEU A 20      -24.640   1.760  -9.579  0.00  0.00    +0.234 C 
ATOM    149  O   LEU A 20      -24.614   2.172  -8.418  0.00  0.00    -0.274 OA
BRANCH 146 150
ATOM    150  CA  LYS A 21      -26.756   2.912 -10.201  0.00  0.00    +0.182 C 
BRANCH 150 151
ATOM    151  C   LYS A 21      -27.833   2.153  -9.402  0.00  0.00    +0.325 C 
ATOM    152  O   LYS A 21      -28.209   1.029  -9.668  0.00  0.00    -0.249 OA
BRANCH 151 153
ATOM    153  OXT LYS A 21      -28.294   2.934  -8.381  0.00  0.00    -0.479 OA
ATOM    154  HXT LYS A 21      -28.968   2.491  -7.860  0.00  0.00    +0.295 HD
ENDBRANCH 151 153
ENDBRANCH 150 151
BRANCH 150 155
ATOM    155  CB  LYS A 21      -27.327   3.439 -11.535  0.00  0.00    +0.034 C 
BRANCH 155 156
ATOM    156  CG  LYS A 21      -26.360   4.375 -12.286  0.00  0.00    +0.004 C 
BRANCH 156 157
ATOM    157  CD  LYS A 21      -26.913   4.893 -13.624  0.00  0.00    +0.015 C 
BRANCH 157 158
ATOM    158  CE  LYS A 21      -28.068   5.895 -13.463  0.00  0.00    +0.077 C 
BRANCH 158 159
ATOM    159  NZ  LYS A 21      -28.480   6.388 -14.762  0.00  0.00    -0.330 NA
ATOM    160  HZ1 LYS A 21      -27.720   6.898 -15.188  0.00  0.00    +0.118 HD
ATOM    161  HZ2 LYS A 21      -29.238   7.047 -14.650  0.00  0.00    +0.118 HD
ENDBRANCH 158 159
ENDBRANCH 157 158
ENDBRANCH 156 157
ENDBRANCH 155 156
ENDBRANCH 150 155
ENDBRANCH 146 150
ENDBRANCH 145 148
BRANCH 145 162
ATOM    162  CB  LEU A 20      -23.548  -0.521  -9.326  0.00  0.00    +0.034 C 
BRANCH 162 163
ATOM    163  CG  LEU A 20      -22.587  -1.593  -9.891  0.00  0.00    -0.015 C 
ATOM    164  CD2 LEU A 20      -22.503  -2.818  -8.955  0.00  0.00    +0.007 C 
ATOM    165  CD1 LEU A 20      -22.936  -1.988 -11.342  0.00  0.00    +0.007 C 
ENDBRANCH 162 163
ENDBRANCH 145 162
ENDBRANCH 141 145
ENDBRANCH 140 143
BRANCH 140 166
ATOM    166  CB  LEU A 19      -19.743   3.646 -11.137  0.00  0.00    +0.034 C 
BRANCH 166 167
ATOM    167  CG  LEU A 19      -20.899   4.678 -11.166  0.00  0.00    -0.015 C 
ATOM    168  CD2 LEU A 19      -21.329   5.129  -9.753  0.00  0.00    +0.007 C 
ATOM    169  CD1 LEU A 19      -20.548   5.872 -12.078  0.00  0.00    +0.007 C 
ENDBRANCH 166 167
ENDBRANCH 140 166
ENDBRANCH 136 140
ENDBRANCH 135 138
BRANCH 135 170
ATOM    170  CB  LEU A 18      -17.875  -1.835 -10.595  0.00  0.00    +0.034 C 
BRANCH 170 171
ATOM    171  CG  LEU A 18      -18.829  -1.786 -11.814  0.00  0.00    -0.015 C 
ATOM    172  CD2 LEU A 18      -18.237  -1.003 -13.006  0.00  0.00    +0.007 C 
ATOM    173  CD1 LEU A 18      -19.279  -3.207 -12.216  0.00  0.00    +0.007 C 
ENDBRANCH 170 171
ENDBRANCH 135 170
ENDBRANCH 131 135
ENDBRANCH 130 133
BRANCH 130 174
ATOM    174  CB  LEU A 17      -15.669   0.394  -5.836  0.00  0.00    +0.034 C 
BRANCH 174 175
ATOM    175  CG  LEU A 17      -15.112  -0.055  -4.466  0.00  0.00    -0.015 C 
ATOM    176  CD2 LEU A 17      -15.748   0.750  -3.314  0.00  0.00    +0.007 C 
ATOM    177  CD1 LEU A 17      -15.237  -1.578  -4.247  0.00  0.00    +0.007 C 
ENDBRANCH 174 175
ENDBRANCH 130 174
ENDBRANCH 126 130
ENDBRANCH 125 128
BRANCH 125 178
ATOM    178  CB  LYS A 16      -10.336  -0.323  -8.875  0.00  0.00    +0.032 C 
BRANCH 178 179
ATOM    179  CG  LYS A 16       -9.012   0.459  -8.946  0.00  0.00    +0.003 C 
BRANCH 179 180
ATOM    180  CD  LYS A 16       -8.170   0.090 -10.177  0.00  0.00    +0.015 C 
BRANCH 180 181
ATOM    181  CE  LYS A 16       -6.879   0.914 -10.303  0.00  0.00    +0.077 C 
BRANCH 181 182
ATOM    182  NZ  LYS A 16       -5.948   0.583  -9.242  0.00  0.00    -0.330 NA
ATOM    183  HZ1 LYS A 16       -5.096   1.113  -9.361  0.00  0.00    +0.118 HD
ATOM    184  HZ2 LYS A 16       -5.690  -0.392  -9.307  0.00  0.00    +0.118 HD
ENDBRANCH 181 182
ENDBRANCH 180 181
ENDBRANCH 179 180
ENDBRANCH 178 179
ENDBRANCH 125 178
ENDBRANCH 121 125
ENDBRANCH 120 123
BRANCH 120 185
ATOM    185  CB  LEU A 15      -10.424  -0.432  -2.749  0.00  0.00    +0.034 C 
BRANCH 185 186
ATOM    186  CG  LEU A 15      -11.678  -1.337  -2.707  0.00  0.00    -0.015 C 
ATOM    187  CD2 LEU A 15      -11.362  -2.805  -3.064  0.00  0.00    +0.007 C 
ATOM    188  CD1 LEU A 15      -12.418  -1.205  -1.359  0.00  0.00    +0.007 C 
ENDBRANCH 185 186
ENDBRANCH 120 185
ENDBRANCH 116 120
ENDBRANCH 115 118
BRANCH 115 189
ATOM    189  CB  LEU A 14       -6.243   2.410  -5.811  0.00  0.00    +0.034 C 
BRANCH 189 190
ATOM    190  CG  LEU A 14       -7.544   3.056  -6.348  0.00  0.00    -0.015 C 
ATOM    191  CD2 LEU A 14       -8.264   3.922  -5.292  0.00  0.00    +0.007 C 
ATOM    192  CD1 LEU A 14       -7.269   3.837  -7.651  0.00  0.00    +0.007 C 
ENDBRANCH 189 190
ENDBRANCH 115 189
ENDBRANCH 111 115
ENDBRANCH 110 113
BRANCH 110 193
ATOM    193  CB  LEU A 13       -3.282  -1.637  -3.187  0.00  0.00    +0.034 C 
BRANCH 193 194
ATOM    194  CG  LEU A 13       -1.853  -2.213  -3.328  0.00  0.00    -0.015 C 
ATOM    195  CD2 LEU A 13       -1.874  -3.757  -3.341  0.00  0.00    +0.007 C 
ATOM    196  CD1 LEU A 13       -1.108  -1.628  -4.549  0.00  0.00    +0.007 C 
ENDBRANCH 193 194
ENDBRANCH 110 193
ENDBRANCH 106 110
ENDBRANCH 105 108
BRANCH 105 197
ATOM    197  CB  LEU A 12       -2.355   2.728   1.023  0.00  0.00    +0.034 C 
BRANCH 197 198
ATOM    198  CG  LEU A 12       -3.858   3.098   0.950  0.00  0.00    -0.015 C 
ATOM    199  CD2 LEU A 12       -4.765   2.020   1.580  0.00  0.00    +0.007 C 
ATOM    200  CD1 LEU A 12       -4.112   4.497   1.551  0.00  0.00    +0.007 C 
ENDBRANCH 197 198
ENDBRANCH 105 197
ENDBRANCH 101 105
ENDBRANCH   1 103
BRANCH   1 201
ATOM    201  CB  LYS A 11        2.168  -0.548  -0.818  0.00  0.00    +0.032 C 
BRANCH 201 202
ATOM    202  CG  LYS A 11        1.549   0.018  -2.113  0.00  0.00    +0.003 C 
BRANCH 202 203
ATOM    203  CD  LYS A 11        1.804   1.519  -2.335  0.00  0.00    +0.015 C 
BRANCH 203 204
ATOM    204  CE  LYS A 11        1.098   2.074  -3.582  0.00  0.00    +0.077 C 
BRANCH 204 205
ATOM    205  NZ  LYS A 11        1.680   1.529  -4.794  0.00  0.00    -0.330 NA
ATOM    206  HZ1 LYS A 11        2.648   1.807  -4.859  0.00  0.00    +0.118 HD
ATOM    207  HZ2 LYS A 11        1.214   1.922  -5.600  0.00  0.00    +0.118 HD
ENDBRANCH 204 205
ENDBRANCH 203 204
ENDBRANCH 202 203
ENDBRANCH 201 202
ENDBRANCH   1 201
TORSDOF 100
