REMARK  Name = DB11734
REMARK                            x       y       z     vdW  Elec       q    Type
REMARK                         _______ _______ _______ _____ _____    ______ ____
ROOT
ATOM      1  C   LIG    1        0.785   2.183   2.601  0.00  0.00    +0.044 C 
ATOM      2  C   LIG    1       -0.128   2.174   1.382  0.00  0.00    -0.045 A 
ATOM      3  C   LIG    1       -0.604   0.974   0.821  0.00  0.00    -0.027 A 
ATOM      4  C   LIG    1       -1.464   1.027  -0.280  0.00  0.00    +0.006 A 
ATOM      5  C   LIG    1       -1.819   2.249  -0.847  0.00  0.00    +0.013 A 
ATOM      6  C   LIG    1       -1.316   3.444  -0.325  0.00  0.00    +0.038 A 
ATOM      7  C   LIG    1       -0.492   3.395   0.807  0.00  0.00    +0.016 A 
ENDROOT
BRANCH   6   8
ATOM      8  C   LIG    1       -1.691   4.762  -0.968  0.00  0.00    +0.251 C 
ATOM      9  N   LIG    1       -0.714   5.606  -1.436  0.00  0.00    -0.267 N 
ATOM     10  C   LIG    1        0.649   5.240  -1.365  0.00  0.00    +0.040 A 
ATOM     11  C   LIG    1        1.176   4.249  -2.209  0.00  0.00    +0.024 A 
ATOM     12  C   LIG    1        2.516   3.882  -2.147  0.00  0.00    +0.002 A 
ATOM     13  C   LIG    1        3.361   4.511  -1.242  0.00  0.00    +0.000 A 
ATOM     14  C   LIG    1        2.863   5.510  -0.409  0.00  0.00    +0.005 A 
ATOM     15  C   LIG    1        1.516   5.896  -0.455  0.00  0.00    -0.026 A 
ATOM     16  C   LIG    1        1.023   7.007   0.479  0.00  0.00    +0.037 C 
ATOM     17  C   LIG    1        0.378   8.236  -0.187  0.00  0.00    +0.006 C 
ATOM     18  C   LIG    1       -1.033   8.009  -0.747  0.00  0.00    +0.020 C 
ATOM     19  C   LIG    1       -1.110   6.957  -1.862  0.00  0.00    +0.114 C 
ATOM     20  O   LIG    1       -2.895   5.000  -1.098  0.00  0.00    -0.270 OA
ENDBRANCH   6   8
BRANCH   3  21
ATOM     21  C   LIG    1       -0.228  -0.389   1.394  0.00  0.00    +0.141 C 
BRANCH  21  22
ATOM     22  N   LIG    1        1.148  -0.747   1.061  0.00  0.00    -0.295 N 
ATOM     23  H   LIG    1        1.407  -0.626   0.093  0.00  0.00    +0.151 HD
ATOM     24  C   LIG    1        2.070  -1.261   1.900  0.00  0.00    +0.303 C 
ATOM     25  N   LIG    1        3.316  -1.415   1.372  0.00  0.00    -0.274 N 
ATOM     26  C   LIG    1        3.754  -1.089  -0.010  0.00  0.00    +0.164 C 
ATOM     27  C   LIG    1        5.267  -1.382  -0.003  0.00  0.00    +0.033 C 
ATOM     28  C   LIG    1        5.675  -1.290   1.456  0.00  0.00    +0.021 C 
ATOM     29  C   LIG    1        4.459  -1.850   2.177  0.00  0.00    +0.110 C 
ATOM     30  O   LIG    1        1.806  -1.535   3.072  0.00  0.00    -0.253 OA
BRANCH  26  31
ATOM     31  C   LIG    1        3.026  -1.905  -1.109  0.00  0.00    +0.236 C 
ATOM     32  N   LIG    1        2.552  -1.281  -2.218  0.00  0.00    -0.306 N 
ATOM     33  C   LIG    1        1.744  -1.992  -3.213  0.00  0.00    +0.131 C 
ATOM     34  C   LIG    1        2.756   0.130  -2.556  0.00  0.00    +0.131 C 
ATOM     35  O   LIG    1        2.881  -3.112  -0.899  0.00  0.00    -0.274 OA
ENDBRANCH  26  31
ENDBRANCH  21  22
ENDBRANCH   3  21
TORSDOF 4
