REMARK  Name = DB11845
REMARK                            x       y       z     vdW  Elec       q    Type
REMARK                         _______ _______ _______ _____ _____    ______ ____
ROOT
ATOM      1  C   LIG    1        1.809   0.248  -0.202  0.00  0.00    +0.164 C 
ATOM      2  C   LIG    1        2.445  -0.475   0.849  0.00  0.00    +0.052 C 
ATOM      3  C   LIG    1        1.730  -1.208   1.828  0.00  0.00    +0.046 C 
ATOM      4  C   LIG    1        2.400  -1.893   2.857  0.00  0.00    +0.137 C 
ATOM      5  C   LIG    1        3.800  -1.862   2.928  0.00  0.00    +0.138 C 
ATOM      6  C   LIG    1        4.538  -1.153   1.967  0.00  0.00    +0.057 C 
ATOM      7  C   LIG    1        3.866  -0.463   0.939  0.00  0.00    +0.055 C 
ATOM      8  N   LIG    1        4.562   0.249  -0.012  0.00  0.00    -0.303 NA
ATOM      9  H   LIG    1        5.571   0.262   0.043  0.00  0.00    +0.123 HD
ATOM     10  C   LIG    1        3.982   0.933  -1.014  0.00  0.00    +0.079 C 
ATOM     11  C   LIG    1        2.595   0.944  -1.127  0.00  0.00    +0.064 C 
ENDROOT
BRANCH   4  12
ATOM     12  O   LIG    1        1.743  -2.617   3.838  0.00  0.00    -0.370 OA
ATOM     13  C   LIG    1        0.321  -2.682   3.834  0.00  0.00    +0.195 C 
ENDBRANCH   4  12
BRANCH   1  14
ATOM     14  O   LIG    1        0.437   0.247  -0.316  0.00  0.00    -0.481 OA
BRANCH  14  19
ATOM     15  C   LIG    1       -2.728   4.920   0.271  0.00  0.00    +0.044 A 
ATOM     16  C   LIG    1       -1.881   3.757   0.152  0.00  0.00    -0.006 A 
ATOM     17  C   LIG    1       -0.623   3.612   0.814  0.00  0.00    +0.013 A 
ATOM     18  C   LIG    1        0.148   2.466   0.659  0.00  0.00    +0.046 A 
ATOM     19  C   LIG    1       -0.281   1.414  -0.154  0.00  0.00    +0.122 A 
ATOM     20  C   LIG    1       -1.511   1.509  -0.796  0.00  0.00    +0.054 A 
ATOM     21  C   LIG    1       -2.324   2.662  -0.660  0.00  0.00    -0.014 A 
ATOM     22  C   LIG    1       -3.574   2.737  -1.316  0.00  0.00    +0.008 A 
ATOM     23  C   LIG    1       -4.375   3.860  -1.177  0.00  0.00    +0.001 A 
ATOM     24  C   LIG    1       -3.959   4.930  -0.399  0.00  0.00    +0.013 A 
BRANCH  15  28
ATOM     25  C   LIG    1       -3.144   7.843   2.696  0.00  0.00    +0.128 C 
ATOM     26  N   LIG    1       -3.292   6.663   1.850  0.00  0.00    -0.314 N 
ATOM     27  H   LIG    1       -4.193   6.208   1.872  0.00  0.00    +0.149 HD
ATOM     28  C   LIG    1       -2.325   6.139   1.073  0.00  0.00    +0.244 C 
ATOM     29  O   LIG    1       -1.189   6.607   0.988  0.00  0.00    -0.270 OA
ENDBRANCH  15  28
ENDBRANCH  14  19
ENDBRANCH   1  14
BRANCH   5  30
ATOM     30  O   LIG    1        4.383  -2.552   3.976  0.00  0.00    -0.368 OA
BRANCH  30  31
ATOM     31  C   LIG    1        5.803  -2.561   4.125  0.00  0.00    +0.148 C 
BRANCH  31  32
ATOM     32  C   LIG    1        6.185  -3.338   5.403  0.00  0.00    -0.047 C 
ATOM     33  C   LIG    1        6.222  -2.568   6.706  0.00  0.00    -0.012 C 
ATOM     34  C   LIG    1        7.513  -3.024   6.059  0.00  0.00    -0.012 C 
BRANCH  32  35
ATOM     35  N   LIG    1        5.671  -4.785   5.432  0.00  0.00    +0.383 N 
ATOM     36  H   LIG    1        4.665  -4.795   5.344  0.00  0.00    -0.089 HD
ATOM     37  H   LIG    1        6.069  -5.312   4.667  0.00  0.00    -0.089 HD
ATOM     38  H   LIG    1        5.926  -5.231   6.302  0.00  0.00    -0.089 HD
ENDBRANCH  32  35
ENDBRANCH  31  32
ENDBRANCH  30  31
ENDBRANCH   5  30
TORSDOF 8
