REMARK  Name = DB11073
REMARK                            x       y       z     vdW  Elec       q    Type
REMARK                         _______ _______ _______ _____ _____    ______ ____
ROOT
ATOM      1  C   LIG    1        3.489  -1.472  -0.052  0.00  0.00    +0.000 C 
ENDROOT
BRANCH   1   2
ATOM      2  C   LIG    1        1.956  -1.401   0.096  0.00  0.00    -0.000 C 
BRANCH   2   3
ATOM      3  C   LIG    1        1.429   0.042   0.197  0.00  0.00    -0.000 C 
BRANCH   3   4
ATOM      4  C   LIG    1       -0.108   0.115   0.252  0.00  0.00    -0.000 C 
BRANCH   4   5
ATOM      5  C   LIG    1       -0.639   1.559   0.275  0.00  0.00    -0.000 C 
BRANCH   5   6
ATOM      6  C   LIG    1       -2.177   1.633   0.261  0.00  0.00    -0.000 C 
BRANCH   6   7
ATOM      7  C   LIG    1       -2.707   3.078   0.234  0.00  0.00    -0.000 C 
BRANCH   7   8
ATOM      8  C   LIG    1       -4.242   3.154   0.160  0.00  0.00    -0.000 C 
BRANCH   8   9
ATOM      9  C   LIG    1       -4.769   4.598   0.093  0.00  0.00    -0.000 C 
BRANCH   9  11
ATOM     10  C   LIG    1       -6.826   6.116  -0.069  0.00  0.00    +0.004 C 
ATOM     11  C   LIG    1       -6.303   4.675  -0.001  0.00  0.00    -0.003 C 
ENDBRANCH   9  11
ENDBRANCH   8   9
ENDBRANCH   7   8
ENDBRANCH   6   7
ENDBRANCH   5   6
ENDBRANCH   4   5
ENDBRANCH   3   4
ENDBRANCH   2   3
ENDBRANCH   1   2
BRANCH   1  12
ATOM     12  C   LIG    1        4.058  -2.904  -0.116  0.00  0.00    +0.000 C 
BRANCH  12  13
ATOM     13  C   LIG    1        3.591  -3.719  -1.338  0.00  0.00    +0.000 C 
BRANCH  13  14
ATOM     14  C   LIG    1        4.271  -5.095  -1.445  0.00  0.00    +0.001 C 
BRANCH  14  15
ATOM     15  C   LIG    1        3.747  -5.925  -2.630  0.00  0.00    +0.015 C 
BRANCH  15  16
ATOM     16  C   LIG    1        4.421  -7.305  -2.737  0.00  0.00    +0.085 C 
BRANCH  16  17
ATOM     17  N   LIG    1        3.857  -8.095  -3.854  0.00  0.00    -0.293 NA
ATOM     18  C   LIG    1        4.407  -7.980  -5.089  0.00  0.00    +0.078 C 
ATOM     19  C   LIG    1        3.876  -8.704  -6.160  0.00  0.00    +0.016 C 
ATOM     20  C   LIG    1        2.778  -9.540  -5.946  0.00  0.00    +0.003 C 
ATOM     21  C   LIG    1        2.228  -9.637  -4.665  0.00  0.00    +0.016 C 
ATOM     22  C   LIG    1        2.788  -8.897  -3.621  0.00  0.00    +0.078 C 
ENDBRANCH  16  17
ENDBRANCH  15  16
ENDBRANCH  14  15
ENDBRANCH  13  14
ENDBRANCH  12  13
ENDBRANCH   1  12
TORSDOF 15
