REMARK  Name = DB11960
REMARK                            x       y       z     vdW  Elec       q    Type
REMARK                         _______ _______ _______ _____ _____    ______ ____
ROOT
ATOM      1  C   LIG    1       -2.736  -0.286   0.094  0.00  0.00    +0.059 A 
ATOM      2  C   LIG    1       -1.933  -1.367   0.509  0.00  0.00    +0.053 A 
ATOM      3 CL   LIG    1       -2.607  -2.871   1.050  0.00  0.00    -0.083 Cl
ATOM      4  C   LIG    1       -0.542  -1.250   0.489  0.00  0.00    +0.026 A 
ATOM      5  C   LIG    1        0.068  -0.072   0.059  0.00  0.00    -0.023 A 
ATOM      6  C   LIG    1       -0.726   1.000  -0.350  0.00  0.00    +0.026 A 
ATOM      7  C   LIG    1       -2.117   0.904  -0.338  0.00  0.00    +0.053 A 
ATOM      8 CL   LIG    1       -3.025   2.283  -0.872  0.00  0.00    -0.083 Cl
ENDROOT
BRANCH   1   9
ATOM      9  C   LIG    1       -4.225  -0.401   0.108  0.00  0.00    +0.196 C 
ATOM     10  O   LIG    1       -4.837  -0.084   1.130  0.00  0.00    -0.287 OA
BRANCH   9  12
ATOM     11  C   LIG    1       -6.340  -0.990  -1.115  0.00  0.00    +0.013 A 
ATOM     12  C   LIG    1       -4.940  -0.893  -1.117  0.00  0.00    +0.022 A 
ATOM     13  C   LIG    1       -4.235  -1.260  -2.274  0.00  0.00    +0.013 A 
ATOM     14  C   LIG    1       -4.915  -1.713  -3.401  0.00  0.00    +0.021 A 
ATOM     15  C   LIG    1       -6.304  -1.804  -3.382  0.00  0.00    +0.041 A 
ATOM     16 CL   LIG    1       -7.146  -2.366  -4.780  0.00  0.00    -0.084 Cl
ATOM     17  C   LIG    1       -7.018  -1.443  -2.243  0.00  0.00    +0.021 A 
ENDBRANCH   9  12
ENDBRANCH   1   9
BRANCH   5  18
ATOM     18  C   LIG    1        1.586   0.047   0.031  0.00  0.00    +0.182 C 
BRANCH  18  19
ATOM     19  N   LIG    1        2.136   0.054  -1.324  0.00  0.00    -0.226 N 
ATOM     20  N   LIG    1        2.572   1.200  -1.851  0.00  0.00    -0.063 NA
ATOM     21  N   LIG    1        2.969   0.910  -3.141  0.00  0.00    -0.123 NA
ATOM     22  C   LIG    1        2.759  -0.379  -3.391  0.00  0.00    +0.188 A 
ATOM     23  C   LIG    1        2.210  -0.971  -2.242  0.00  0.00    +0.147 A 
BRANCH  22  24
ATOM     24  C   LIG    1        3.048  -1.048  -4.645  0.00  0.00    +0.265 C 
ATOM     25  N   LIG    1        3.569  -0.280  -5.609  0.00  0.00    -0.324 N 
ATOM     26  H   LIG    1        3.796  -0.678  -6.509  0.00  0.00    +0.145 HD
ATOM     27  H   LIG    1        3.739   0.702  -5.442  0.00  0.00    +0.145 HD
ATOM     28  O   LIG    1        2.829  -2.247  -4.815  0.00  0.00    -0.269 OA
ENDBRANCH  22  24
BRANCH  23  29
ATOM     29  N   LIG    1        1.801  -2.246  -1.950  0.00  0.00    -0.341 N 
ATOM     30  H   LIG    1        1.413  -2.490  -1.050  0.00  0.00    +0.144 HD
ATOM     31  H   LIG    1        1.872  -2.990  -2.631  0.00  0.00    +0.144 HD
ENDBRANCH  23  29
ENDBRANCH  18  19
ENDBRANCH   5  18
TORSDOF 6
