REMARK  Name = DB11812
REMARK                            x       y       z     vdW  Elec       q    Type
REMARK                         _______ _______ _______ _____ _____    ______ ____
ROOT
ATOM      1  C   UNK A  0       -6.227  -3.300  -0.316  0.00  0.00    -0.019 A 
ATOM      2  C   UNK A  0       -4.960  -2.780  -0.166  0.00  0.00    +0.045 A 
ATOM      3  N   UNK A  0       -5.092  -1.414  -0.153  0.00  0.00    -0.355 N 
ATOM      4  H   UNK A  0       -4.327  -0.768  -0.042  0.00  0.00    +0.166 HD
ATOM      5  C   UNK A  0       -6.415  -1.054  -0.278  0.00  0.00    +0.045 A 
ATOM      6  C   UNK A  0       -6.935   0.255  -0.256  0.00  0.00    +0.052 C 
ATOM      7  C   UNK A  0       -6.191   1.440  -0.086  0.00  0.00    +0.049 A 
ATOM      8  N   UNK A  0       -4.823   1.531   0.042  0.00  0.00    -0.354 N 
ATOM      9  H   UNK A  0       -4.186   0.749   0.016  0.00  0.00    +0.166 HD
ATOM     10  C   UNK A  0       -4.436   2.833   0.226  0.00  0.00    +0.045 A 
ATOM     11  C   UNK A  0       -3.124   3.307   0.409  0.00  0.00    +0.045 C 
ATOM     12  C   UNK A  0       -1.952   2.553   0.383  0.00  0.00    +0.013 C 
ATOM     13  C   UNK A  0       -0.614   3.205   0.599  0.00  0.00    +0.039 C 
ATOM     14  C   UNK A  0       -0.235   3.356   2.088  0.00  0.00    +0.014 C 
ATOM     15  C   UNK A  0        0.272   2.244  -0.159  0.00  0.00    +0.043 C 
ATOM     16  C   UNK A  0       -0.486   0.931   0.023  0.00  0.00    +0.017 C 
ATOM     17  C   UNK A  0        0.113  -0.353   0.022  0.00  0.00    +0.003 C 
ATOM     18  C   UNK A  0       -0.630  -1.589   0.121  0.00  0.00    +0.059 A 
ATOM     19  N   UNK A  0       -2.011  -1.679   0.046  0.00  0.00    -0.354 N 
ATOM     20  H   UNK A  0       -2.616  -0.878  -0.067  0.00  0.00    +0.166 HD
ATOM     21  C   UNK A  0       -2.453  -2.987   0.074  0.00  0.00    +0.045 A 
ATOM     22  C   UNK A  0       -1.343  -3.771   0.230  0.00  0.00    -0.011 A 
ATOM     23  C   UNK A  0       -1.354  -5.293   0.338  0.00  0.00    +0.047 C 
ATOM     24  C   UNK A  0       -0.212  -2.919   0.276  0.00  0.00    +0.087 A 
ATOM     25  N   UNK A  0       -1.813   1.213   0.179  0.00  0.00    -0.320 N 
ATOM     26  H   UNK A  0       -2.547   0.557   0.148  0.00  0.00    +0.152 HD
ATOM     27  C   UNK A  0       -5.583   3.595   0.193  0.00  0.00    -0.018 A 
ATOM     28  C   UNK A  0       -5.637   5.109   0.322  0.00  0.00    +0.046 C 
ATOM     29  C   UNK A  0       -6.684   2.723   0.009  0.00  0.00    +0.003 A 
ATOM     30  C   UNK A  0       -3.763  -3.504  -0.038  0.00  0.00    +0.051 C 
ATOM     31  C   UNK A  0       -7.132  -2.219  -0.409  0.00  0.00    -0.022 A 
ATOM     32  C   UNK A  0       -8.634  -2.315  -0.605  0.00  0.00    +0.046 C 
ENDROOT
BRANCH   1  34
ATOM     33  C   UNK A  0       -6.438  -5.357  -1.786  0.00  0.00    +0.009 C 
ATOM     34  C   UNK A  0       -6.589  -4.777  -0.373  0.00  0.00    +0.034 C 
ENDBRANCH   1  34
BRANCH  24  35
ATOM     35  C   UNK A  0        1.145  -3.444   0.474  0.00  0.00    +0.339 C 
ATOM     36  O   UNK A  0        1.581  -3.444   1.646  0.00  0.00    -0.245 OA
BRANCH  35  37
ATOM     37  O   UNK A  0        1.727  -3.894  -0.540  0.00  0.00    -0.477 OA
ATOM     38  H   UNK A  0        1.312  -3.846  -1.379  0.00  0.00    +0.295 HD
ENDBRANCH  35  37
ENDBRANCH  24  35
BRANCH  29  39
ATOM     39  C   UNK A  0       -8.091   3.095  -0.072  0.00  0.00    +0.002 C 
ATOM     40  C   UNK A  0       -8.735   4.003   0.680  0.00  0.00    +0.009 C 
ENDBRANCH  29  39
BRANCH  15  41
ATOM     41  C   UNK A  0        0.478   2.619  -1.652  0.00  0.00    +0.021 C 
BRANCH  41  42
ATOM     42  C   UNK A  0        1.432   3.826  -1.869  0.00  0.00    +0.121 C 
BRANCH  42  43
ATOM     43  C   UNK A  0        1.710   4.185  -3.349  0.00  0.00    +0.305 C 
ATOM     44  O   UNK A  0        2.441   5.182  -3.543  0.00  0.00    -0.251 OA
BRANCH  43  45
ATOM     45  O   UNK A  0        1.217   3.492  -4.269  0.00  0.00    -0.481 OA
ATOM     46  H   UNK A  0        0.676   2.755  -4.063  0.00  0.00    +0.295 HD
ENDBRANCH  43  45
ENDBRANCH  42  43
ENDBRANCH  41  42
ENDBRANCH  15  41
BRANCH  17  47
ATOM     47  C   UNK A  0        1.654  -0.374  -0.068  0.00  0.00    +0.134 C 
BRANCH  47  48
ATOM     48  C   UNK A  0        2.363  -0.208   1.288  0.00  0.00    +0.218 C 
ATOM     49  N   ASP A  1        3.694  -0.398   1.277  0.00  0.00    -0.302 N 
ATOM     50  H   ASP A  1        4.141  -0.662   0.411  0.00  0.00    +0.150 HD
ATOM     51  O   UNK A  0        1.736   0.097   2.305  0.00  0.00    -0.275 OA
BRANCH  49  52
ATOM     52  CA  ASP A  1        4.603  -0.274   2.435  0.00  0.00    +0.192 C 
BRANCH  52  53
ATOM     53  C   ASP A  1        4.777   1.228   2.885  0.00  0.00    +0.326 C 
ATOM     54  O   ASP A  1        4.801   1.397   4.126  0.00  0.00    -0.249 OA
BRANCH  53  55
ATOM     55  OXT ASP A  1        4.945   2.073   1.971  0.00  0.00    -0.479 OA
ATOM     56  HXT ASP A  1        4.900   1.807   1.074  0.00  0.00    +0.295 HD
ENDBRANCH  53  55
ENDBRANCH  52  53
BRANCH  52  57
ATOM     57  CB  ASP A  1        5.991  -0.915   2.144  0.00  0.00    +0.154 C 
BRANCH  57  58
ATOM     58  CG  ASP A  1        5.951  -2.435   1.906  0.00  0.00    +0.307 C 
ATOM     59  OD1 ASP A  1        5.862  -2.826   0.721  0.00  0.00    -0.251 OA
BRANCH  58  60
ATOM     60  OD2 ASP A  1        5.850  -3.170   2.914  0.00  0.00    -0.481 OA
ATOM     61  HD2 ASP A  1        5.929  -2.801   3.772  0.00  0.00    +0.295 HD
ENDBRANCH  58  60
ENDBRANCH  57  58
ENDBRANCH  52  57
ENDBRANCH  49  52
ENDBRANCH  47  48
ENDBRANCH  17  47
TORSDOF 16
