REMARK  Name = DB11958
REMARK                            x       y       z     vdW  Elec       q    Type
REMARK                         _______ _______ _______ _____ _____    ______ ____
ROOT
ATOM      1  C   LIG    1       -3.065   0.995   1.337  0.00  0.00    +0.248 A 
ATOM      2  N   LIG    1       -4.182   0.235   1.522  0.00  0.00    -0.198 NA
ATOM      3  C   LIG    1       -4.110  -1.055   1.120  0.00  0.00    +0.247 A 
ATOM      4  N   LIG    1       -3.050  -1.683   0.553  0.00  0.00    -0.155 NA
ATOM      5  N   LIG    1       -1.979  -0.880   0.395  0.00  0.00    -0.229 N 
ATOM      6  C   LIG    1       -0.778  -1.254  -0.148  0.00  0.00    +0.159 A 
ATOM      7  C   LIG    1        0.077  -0.147  -0.141  0.00  0.00    +0.144 A 
ATOM      8  C   LIG    1       -0.590   0.948   0.413  0.00  0.00    +0.023 A 
ATOM      9  C   LIG    1       -0.062   2.349   0.621  0.00  0.00    +0.050 C 
ATOM     10  C   LIG    1       -1.890   0.480   0.756  0.00  0.00    +0.134 A 
ENDROOT
BRANCH   1  11
ATOM     11  O   LIG    1       -3.041   2.323   1.720  0.00  0.00    -0.433 OA
BRANCH  11  19
ATOM     12  C   LIG    1       -9.147   6.390   2.935  0.00  0.00    +0.063 C 
ATOM     13  C   LIG    1       -7.915   5.527   2.809  0.00  0.00    +0.014 A 
ATOM     14  N   LIG    1       -7.430   4.830   3.891  0.00  0.00    -0.358 N 
ATOM     15  H   LIG    1       -7.876   4.872   4.796  0.00  0.00    +0.166 HD
ATOM     16  C   LIG    1       -6.301   4.114   3.554  0.00  0.00    +0.050 A 
ATOM     17  C   LIG    1       -5.480   3.277   4.317  0.00  0.00    +0.030 A 
ATOM     18  C   LIG    1       -4.393   2.693   3.666  0.00  0.00    +0.051 A 
ATOM     19  C   LIG    1       -4.130   2.918   2.314  0.00  0.00    +0.166 A 
ATOM     20  C   LIG    1       -4.954   3.756   1.557  0.00  0.00    +0.175 A 
ATOM     21  F   LIG    1       -4.690   3.975   0.248  0.00  0.00    -0.201 F 
ATOM     22  C   LIG    1       -6.057   4.368   2.174  0.00  0.00    +0.039 A 
ATOM     23  C   LIG    1       -7.089   5.261   1.733  0.00  0.00    +0.033 A 
ENDBRANCH  11  19
ENDBRANCH   1  11
BRANCH   7  24
ATOM     24  O   LIG    1        1.375  -0.091  -0.588  0.00  0.00    -0.488 OA
BRANCH  24  25
ATOM     25  C   LIG    1        2.056  -1.338  -0.716  0.00  0.00    +0.260 C 
BRANCH  25  26
ATOM     26  C   LIG    1        3.546  -1.085  -1.017  0.00  0.00    +0.149 C 
ATOM     27  C   LIG    1        4.385  -2.372  -0.966  0.00  0.00    +0.041 C 
BRANCH  26  28
ATOM     28  O   LIG    1        3.680  -0.520  -2.306  0.00  0.00    -0.389 OA
ATOM     29  H   LIG    1        3.315  -1.133  -2.948  0.00  0.00    +0.210 HD
ENDBRANCH  26  28
ENDBRANCH  25  26
ENDBRANCH  24  25
ENDBRANCH   7  24
TORSDOF 6
