REMARK  Name = DB11655
REMARK                            x       y       z     vdW  Elec       q    Type
REMARK                         _______ _______ _______ _____ _____    ______ ____
ROOT
ATOM      1  C   LIG    1        0.779  -2.636  -4.568  0.00  0.00    +0.044 C 
ATOM      2  C   LIG    1       -0.191  -2.036  -3.567  0.00  0.00    -0.050 A 
ATOM      3  C   LIG    1       -1.563  -2.180  -3.746  0.00  0.00    +0.008 A 
ATOM      4  C   LIG    1       -2.466  -1.633  -2.834  0.00  0.00    -0.030 A 
ATOM      5  C   LIG    1       -3.950  -1.759  -3.156  0.00  0.00    +0.045 C 
ATOM      6  C   LIG    1       -1.969  -0.939  -1.708  0.00  0.00    +0.021 A 
ATOM      7  N   LIG    1       -2.839  -0.380  -0.609  0.00  0.00    -0.393 NA
ATOM      8  H   LIG    1       -2.261  -0.443   0.218  0.00  0.00    +0.126 HD
ATOM      9  C   LIG    1       -3.104   1.141  -0.681  0.00  0.00    +0.085 C 
ATOM     10  C   LIG    1       -1.894   1.957  -1.177  0.00  0.00    +0.019 C 
ATOM     11  C   LIG    1       -0.552   1.683  -0.458  0.00  0.00    +0.029 C 
ATOM     12  C   LIG    1       -0.082   0.196  -0.386  0.00  0.00    +0.109 C 
ATOM     13  C   LIG    1       -0.578  -0.705  -1.551  0.00  0.00    -0.007 A 
ATOM     14  C   LIG    1        0.286  -1.296  -2.487  0.00  0.00    +0.010 A 
ENDROOT
BRANCH   7  15
ATOM     15  C   LIG    1       -4.047  -1.224  -0.131  0.00  0.00    +0.088 C 
BRANCH  15  16
ATOM     16  C   LIG    1       -4.308  -1.048   1.388  0.00  0.00    +0.005 C 
ATOM     17  C   LIG    1       -4.585  -2.414   2.074  0.00  0.00    +0.006 C 
ATOM     18  C   LIG    1       -4.816  -2.243   3.591  0.00  0.00    +0.015 C 
ATOM     19  C   LIG    1       -6.025  -1.293   3.809  0.00  0.00    +0.098 C 
ATOM     20  C   LIG    1       -5.718   0.095   3.191  0.00  0.00    +0.015 C 
ATOM     21  C   LIG    1       -5.494  -0.082   1.673  0.00  0.00    +0.006 C 
BRANCH  19  22
ATOM     22  C   LIG    1       -6.373  -1.138   5.315  0.00  0.00    +0.308 C 
ATOM     23  O   LIG    1       -5.441  -0.983   6.140  0.00  0.00    -0.251 OA
BRANCH  22  24
ATOM     24  O   LIG    1       -7.587  -1.047   5.608  0.00  0.00    -0.480 OA
ATOM     25  H   LIG    1       -8.239  -1.173   4.948  0.00  0.00    +0.295 HD
ENDBRANCH  22  24
ENDBRANCH  19  22
ENDBRANCH  15  16
ENDBRANCH   7  15
BRANCH  12  26
ATOM     26  N   LIG    1        1.354   0.036  -0.052  0.00  0.00    -0.286 N 
BRANCH  26  27
ATOM     27  C   LIG    1        2.407   0.615  -0.757  0.00  0.00    +0.259 A 
ATOM     28  N   LIG    1        2.264   1.252  -1.913  0.00  0.00    -0.092 NA
ATOM     29  N   LIG    1        3.519   1.685  -2.282  0.00  0.00    -0.045 NA
ATOM     30  N   LIG    1        4.301   1.226  -1.309  0.00  0.00    -0.165 N 
ATOM     31  C   LIG    1        5.715   1.551  -1.226  0.00  0.00    +0.199 C 
ATOM     32  N   LIG    1        3.655   0.591  -0.327  0.00  0.00    -0.115 NA
ENDBRANCH  26  27
BRANCH  26  33
ATOM     33  C   LIG    1        1.604  -1.063   0.896  0.00  0.00    +0.143 C 
BRANCH  33  34
ATOM     34  C   LIG    1        1.439  -0.591   2.336  0.00  0.00    -0.029 A 
ATOM     35  C   LIG    1        0.219  -0.737   3.002  0.00  0.00    +0.017 A 
ATOM     36  C   LIG    1        0.059  -0.264   4.309  0.00  0.00    +0.056 A 
ATOM     37  C   LIG    1        1.141   0.355   4.949  0.00  0.00    +0.024 A 
ATOM     38  C   LIG    1        2.369   0.511   4.294  0.00  0.00    +0.056 A 
ATOM     39  C   LIG    1        2.505   0.037   2.985  0.00  0.00    +0.017 A 
BRANCH  36  40
ATOM     40  C   LIG    1       -1.289  -0.425   5.008  0.00  0.00    +0.417 C 
ATOM     41  F   LIG    1       -1.308   0.129   6.222  0.00  0.00    -0.166 F 
ATOM     42  F   LIG    1       -1.568  -1.722   5.137  0.00  0.00    -0.166 F 
ATOM     43  F   LIG    1       -2.240   0.154   4.274  0.00  0.00    -0.166 F 
ENDBRANCH  36  40
BRANCH  38  44
ATOM     44  C   LIG    1        3.550   1.191   4.984  0.00  0.00    +0.417 C 
ATOM     45  F   LIG    1        4.185   2.005   4.138  0.00  0.00    -0.166 F 
ATOM     46  F   LIG    1        4.405   0.258   5.401  0.00  0.00    -0.166 F 
ATOM     47  F   LIG    1        3.168   1.913   6.039  0.00  0.00    -0.166 F 
ENDBRANCH  38  44
ENDBRANCH  33  34
ENDBRANCH  26  33
ENDBRANCH  12  26
TORSDOF 10
