REMARK  Name = DB11934
REMARK                            x       y       z     vdW  Elec       q    Type
REMARK                         _______ _______ _______ _____ _____    ______ ____
ROOT
ATOM      1  CA  ILE A  1       -0.779   0.786   0.021  0.00  0.00    +0.166 C 
ATOM      2  N   ILE A  1        0.045  -0.458   0.097  0.00  0.00    -0.272 N 
ATOM      3  C   UNK A  2       -0.532  -1.678   0.355  0.00  0.00    +0.238 C 
ATOM      4  O   UNK A  2        0.104  -2.721   0.514  0.00  0.00    -0.274 OA
ATOM      5  C   UNK A  2       -2.088  -1.690   0.369  0.00  0.00    +0.163 C 
ATOM      6  N   UNK A  2       -2.757  -0.567  -0.313  0.00  0.00    -0.302 N 
ATOM      7  H   UNK A  2       -3.666  -0.744  -0.715  0.00  0.00    +0.150 HD
ATOM      8  C   ILE A  1       -2.166   0.593  -0.643  0.00  0.00    +0.234 C 
ATOM      9  O   ILE A  1       -2.683   1.407  -1.406  0.00  0.00    -0.274 OA
ENDROOT
BRANCH   5  10
ATOM     10  C   UNK A  2       -2.629  -2.123   1.766  0.00  0.00    +0.027 C 
ATOM     11  C   UNK A  2       -2.262  -1.247   2.972  0.00  0.00    +0.041 C 
ATOM     12  C   UNK A  2       -3.364  -1.533   3.967  0.00  0.00    -0.044 A 
ATOM     13  C   UNK A  2       -3.464  -1.162   5.309  0.00  0.00    +0.004 A 
ATOM     14  C   UNK A  2       -4.632  -1.441   6.020  0.00  0.00    +0.000 A 
ATOM     15  C   UNK A  2       -5.712  -2.054   5.381  0.00  0.00    +0.000 A 
ATOM     16  C   UNK A  2       -5.627  -2.389   4.029  0.00  0.00    +0.004 A 
ATOM     17  C   UNK A  2       -4.445  -2.147   3.326  0.00  0.00    -0.044 A 
ATOM     18  C   UNK A  2       -4.151  -2.313   1.851  0.00  0.00    +0.041 C 
ENDBRANCH   5  10
BRANCH   1  19
ATOM     19  CB  ILE A  1       -0.787   1.732   1.286  0.00  0.00    +0.015 C 
ATOM     20  CG2 ILE A  1        0.296   2.827   1.145  0.00  0.00    +0.010 C 
BRANCH  19  22
ATOM     21  CD1 ILE A  1       -2.155   3.045   3.084  0.00  0.00    +0.004 C 
ATOM     22  CG1 ILE A  1       -2.145   2.389   1.693  0.00  0.00    +0.002 C 
ENDBRANCH  19  22
ENDBRANCH   1  19
BRANCH   2  23
ATOM     23  C   UNK A  0        1.527  -0.301  -0.022  0.00  0.00    +0.195 C 
BRANCH  23  24
ATOM     24  C   UNK A  0        2.214  -0.209   1.382  0.00  0.00    +0.241 C 
ATOM     25  N   UNK A  0        3.364   0.510   1.505  0.00  0.00    -0.295 N 
ATOM     26  C   UNK A  0        4.205   0.916   0.364  0.00  0.00    +0.136 C 
ATOM     27  C   UNK A  0        5.472   0.030   0.403  0.00  0.00    +0.179 C 
ATOM     28  O   UNK A  0        6.121   0.145   1.669  0.00  0.00    -0.377 OA
ATOM     29  C   UNK A  0        5.291  -0.235   2.767  0.00  0.00    +0.179 C 
ATOM     30  C   UNK A  0        4.027   0.655   2.813  0.00  0.00    +0.136 C 
ATOM     31  O   UNK A  0        1.646  -0.685   2.369  0.00  0.00    -0.273 OA
ENDBRANCH  23  24
BRANCH  23  32
ATOM     32  C   UNK A  0        2.207  -1.274  -1.018  0.00  0.00    +0.003 A 
ATOM     33  C   UNK A  0        2.104  -1.071  -2.409  0.00  0.00    +0.044 A 
ATOM     34  C   UNK A  0        1.324   0.089  -3.012  0.00  0.00    +0.066 C 
ATOM     35  N   UNK A  0        2.683  -1.896  -3.321  0.00  0.00    -0.257 NA
ATOM     36  C   UNK A  0        3.387  -2.963  -2.871  0.00  0.00    +0.039 A 
ATOM     37  C   UNK A  0        3.999  -3.849  -3.939  0.00  0.00    +0.065 C 
ATOM     38  C   UNK A  0        3.541  -3.245  -1.514  0.00  0.00    +0.023 A 
ATOM     39  C   UNK A  0        2.945  -2.391  -0.587  0.00  0.00    +0.009 A 
ENDBRANCH  23  32
ENDBRANCH   2  23
TORSDOF 6
