REMARK  Name = DB11905
REMARK                            x       y       z     vdW  Elec       q    Type
REMARK                         _______ _______ _______ _____ _____    ______ ____
ROOT
ATOM      1  C   LIG    1        4.403  -0.383  -1.808  0.00  0.00    +0.042 A 
ATOM      2  C   LIG    1        5.775  -0.318  -1.524  0.00  0.00    +0.063 A 
ATOM      3  C   LIG    1        6.725  -0.532  -2.523  0.00  0.00    +0.146 A 
ATOM      4  F   LIG    1        8.036  -0.422  -2.199  0.00  0.00    -0.203 F 
ATOM      5  C   LIG    1        6.332  -0.835  -3.838  0.00  0.00    +0.066 A 
ATOM      6  C   LIG    1        4.957  -0.895  -4.116  0.00  0.00    +0.028 A 
ATOM      7  C   LIG    1        4.009  -0.684  -3.118  0.00  0.00    +0.025 A 
ENDROOT
BRANCH   1  12
ATOM      8  C   LIG    1        1.432  -0.240   0.426  0.00  0.00    +0.213 C 
ATOM      9  O   LIG    1        2.348   0.705   0.926  0.00  0.00    -0.444 OA
ATOM     10  C   LIG    1        3.540   0.684   0.293  0.00  0.00    +0.408 C 
ATOM     11  O   LIG    1        4.494   1.345   0.700  0.00  0.00    -0.226 OA
ATOM     12  N   LIG    1        3.422  -0.180  -0.808  0.00  0.00    -0.234 N 
ATOM     13  C   LIG    1        2.038  -0.616  -0.908  0.00  0.00    +0.163 C 
BRANCH   8  14
ATOM     14  C   LIG    1       -0.001   0.341   0.380  0.00  0.00    +0.150 C 
BRANCH  14  17
ATOM     15  C   LIG    1       -0.527   3.284  -2.045  0.00  0.00    +0.109 C 
ATOM     16  C   LIG    1       -0.483   1.838  -1.564  0.00  0.00    +0.210 C 
ATOM     17  N   LIG    1       -0.112   1.642  -0.287  0.00  0.00    -0.312 N 
ATOM     18  H   LIG    1        0.095   2.450   0.281  0.00  0.00    +0.149 HD
ATOM     19  O   LIG    1       -0.780   0.929  -2.340  0.00  0.00    -0.276 OA
ENDBRANCH  14  17
ENDBRANCH   8  14
ENDBRANCH   1  12
BRANCH   5  20
ATOM     20  N   LIG    1        7.288  -1.026  -4.835  0.00  0.00    -0.326 N 
ATOM     21  C   LIG    1        8.192  -2.181  -4.691  0.00  0.00    +0.116 C 
ATOM     22  C   LIG    1        9.530  -2.054  -5.442  0.00  0.00    +0.088 C 
ATOM     23  S   LIG    1        9.337  -1.875  -7.232  0.00  0.00    -0.158 S 
ATOM     24  C   LIG    1        8.169  -0.496  -7.156  0.00  0.00    +0.088 C 
ATOM     25  C   LIG    1        6.957  -0.771  -6.248  0.00  0.00    +0.116 C 
ENDBRANCH   5  20
TORSDOF 4
