REMARK  Name = DB11717
REMARK                            x       y       z     vdW  Elec       q    Type
REMARK                         _______ _______ _______ _____ _____    ______ ____
ROOT
ATOM      1  C   LIG    1       -1.184  -1.404   1.537  0.00  0.00    +0.243 A 
ATOM      2  C   LIG    1       -0.397  -0.290   1.200  0.00  0.00    +0.198 A 
ATOM      3  N   LIG    1       -0.982   0.815   1.596  0.00  0.00    -0.033 NA
ATOM      4  O   LIG    1       -2.158   0.392   2.204  0.00  0.00    -0.240 OA
ATOM      5  N   LIG    1       -2.265  -0.994   2.165  0.00  0.00    -0.039 NA
ENDROOT
BRANCH   1   7
ATOM      6  N   LIG    1        0.208  -3.247   1.689  0.00  0.00    +0.154 NA
ATOM      7  C   LIG    1       -0.935  -2.837   1.300  0.00  0.00    +0.394 C 
BRANCH   6   8
ATOM      8  O   LIG    1        0.417  -4.621   1.469  0.00  0.00    -0.311 OA
ATOM      9  H   LIG    1        1.301  -4.750   1.822  0.00  0.00    +0.361 HD
ENDBRANCH   6   8
BRANCH   7  10
ATOM     10  N   LIG    1       -2.007  -3.529   0.720  0.00  0.00    -0.195 N 
ATOM     11  H   LIG    1       -2.021  -4.526   0.883  0.00  0.00    +0.299 HD
BRANCH  10  12
ATOM     12  C   LIG    1       -3.031  -3.107  -0.149  0.00  0.00    +0.120 A 
ATOM     13  C   LIG    1       -4.207  -3.862  -0.190  0.00  0.00    +0.067 A 
ATOM     14  C   LIG    1       -5.256  -3.503  -1.039  0.00  0.00    +0.057 A 
ATOM     15 BR   LIG    1       -6.851  -4.545  -1.055  0.00  0.00    -0.047 Br
ATOM     16  C   LIG    1       -5.130  -2.386  -1.868  0.00  0.00    +0.138 A 
ATOM     17  F   LIG    1       -6.140  -2.029  -2.695  0.00  0.00    -0.204 F 
ATOM     18  C   LIG    1       -3.955  -1.636  -1.848  0.00  0.00    +0.043 A 
ATOM     19  C   LIG    1       -2.909  -1.996  -0.999  0.00  0.00    +0.052 A 
ENDBRANCH  10  12
ENDBRANCH   7  10
ENDBRANCH   1   7
BRANCH   2  20
ATOM     20  N   LIG    1        0.813  -0.275   0.544  0.00  0.00    -0.323 N 
ATOM     21  H   LIG    1        1.285  -1.149   0.362  0.00  0.00    +0.148 HD
BRANCH  20  22
ATOM     22  C   LIG    1        1.675   0.880   0.332  0.00  0.00    +0.120 C 
BRANCH  22  23
ATOM     23  C   LIG    1        2.492   1.247   1.579  0.00  0.00    +0.125 C 
BRANCH  23  24
ATOM     24  N   LIG    1        3.318   2.442   1.328  0.00  0.00    -0.179 NA
ATOM     25  H   LIG    1        3.964   2.300   0.547  0.00  0.00    +0.149 HD
BRANCH  24  26
ATOM     26  S   LIG    1        4.101   3.187   2.717  0.00  0.00    +0.092 S 
ATOM     27  O   LIG    1        3.094   3.363   3.769  0.00  0.00    -0.142 OA
ATOM     28  O   LIG    1        4.893   4.318   2.223  0.00  0.00    -0.142 OA
BRANCH  26  29
ATOM     29  N   LIG    1        5.220   1.947   3.249  0.00  0.00    -0.193 NA
ATOM     30  H   LIG    1        6.019   1.770   2.634  0.00  0.00    +0.145 HD
ATOM     31  H   LIG    1        4.801   1.118   3.677  0.00  0.00    +0.145 HD
ENDBRANCH  26  29
ENDBRANCH  24  26
ENDBRANCH  23  24
ENDBRANCH  22  23
ENDBRANCH  20  22
ENDBRANCH   2  20
TORSDOF 10
