REMARK  Name = DB11062
REMARK                            x       y       z     vdW  Elec       q    Type
REMARK                         _______ _______ _______ _____ _____    ______ ____
ROOT
ATOM      1  C   LIG    1       -1.953   1.326   0.108  0.00  0.00    +0.343 C 
ATOM      2  O   LIG    1       -2.723   0.367   0.224  0.00  0.00    -0.245 OA
ENDROOT
BRANCH   1   3
ATOM      3  C   LIG    1       -2.424   2.761   0.038  0.00  0.00    +0.100 A 
ATOM      4  C   LIG    1       -3.814   2.978   0.024  0.00  0.00    +0.018 A 
ATOM      5  C   LIG    1       -4.349   4.263  -0.038  0.00  0.00    +0.001 A 
ATOM      6  C   LIG    1       -3.505   5.366  -0.086  0.00  0.00    +0.004 A 
ATOM      7  C   LIG    1       -2.126   5.181  -0.069  0.00  0.00    +0.046 A 
ATOM      8  C   LIG    1       -1.578   3.897  -0.006  0.00  0.00    +0.131 A 
BRANCH   8   9
ATOM      9  O   LIG    1       -0.207   3.823   0.016  0.00  0.00    -0.506 OA
ATOM     10  H   LIG    1        0.214   4.686  -0.015  0.00  0.00    +0.292 HD
ENDBRANCH   8   9
ENDBRANCH   1   3
BRANCH   1  11
ATOM     11  O   LIG    1       -0.613   1.179   0.009  0.00  0.00    -0.461 OA
BRANCH  11  12
ATOM     12  C   LIG    1        0.003  -0.104   0.059  0.00  0.00    +0.236 C 
BRANCH  12  13
ATOM     13  C   LIG    1        1.540   0.019  -0.070  0.00  0.00    +0.026 C 
BRANCH  13  14
ATOM     14  C   LIG    1        1.980   0.651  -1.417  0.00  0.00    +0.003 C 
ATOM     15  C   LIG    1        1.485  -0.094  -2.667  0.00  0.00    +0.004 C 
ENDBRANCH  13  14
BRANCH  13  16
ATOM     16  C   LIG    1        2.133   0.756   1.159  0.00  0.00    +0.007 C 
BRANCH  16  17
ATOM     17  C   LIG    1        3.671   0.705   1.273  0.00  0.00    +0.000 C 
BRANCH  17  18
ATOM     18  C   LIG    1        4.192   1.325   2.582  0.00  0.00    -0.003 C 
ATOM     19  C   LIG    1        5.722   1.286   2.694  0.00  0.00    +0.004 C 
ENDBRANCH  17  18
ENDBRANCH  16  17
ENDBRANCH  13  16
ENDBRANCH  12  13
ENDBRANCH  11  12
ENDBRANCH   1  11
TORSDOF 9
