REMARK  Name = DB11801
REMARK                            x       y       z     vdW  Elec       q    Type
REMARK                         _______ _______ _______ _____ _____    ______ ____
ROOT
ATOM      1  C   LIG    1        1.378   0.018   0.250  0.00  0.00    +0.237 C 
ATOM      2  N   LIG    1        2.005  -1.048   0.802  0.00  0.00    -0.288 N 
ATOM      3  C   LIG    1        3.469  -1.228   0.734  0.00  0.00    +0.162 C 
ATOM      4  C   LIG    1        3.734  -2.369   1.729  0.00  0.00    +0.033 C 
ATOM      5  C   LIG    1        2.462  -3.201   1.697  0.00  0.00    +0.021 C 
ATOM      6  C   LIG    1        1.367  -2.154   1.520  0.00  0.00    +0.109 C 
ATOM      7  O   LIG    1        1.973   0.951  -0.292  0.00  0.00    -0.274 OA
ENDROOT
BRANCH   1  10
ATOM      8  C   LIG    1       -0.596   2.358   0.963  0.00  0.00    +0.204 C 
ATOM      9  N   LIG    1       -0.783   1.345   0.077  0.00  0.00    -0.291 N 
ATOM     10  C   LIG    1       -0.170   0.007   0.241  0.00  0.00    +0.162 C 
ATOM     11  C   LIG    1       -0.689  -0.777  -0.983  0.00  0.00    +0.033 C 
ATOM     12  C   LIG    1       -1.954  -0.060  -1.412  0.00  0.00    +0.021 C 
ATOM     13  C   LIG    1       -1.631   1.394  -1.115  0.00  0.00    +0.108 C 
ATOM     14  O   LIG    1       -0.004   2.209   2.036  0.00  0.00    -0.277 OA
BRANCH   8  15
ATOM     15  C   LIG    1       -1.131   3.769   0.583  0.00  0.00    +0.042 C 
BRANCH  15  16
ATOM     16  N   LIG    1       -2.432   3.877   1.333  0.00  0.00    +0.387 N 
ATOM     17  H   LIG    1       -2.248   3.795   2.322  0.00  0.00    -0.089 HD
ATOM     18  H   LIG    1       -2.842   4.779   1.139  0.00  0.00    -0.089 HD
ATOM     19  H   LIG    1       -3.057   3.145   1.027  0.00  0.00    -0.089 HD
ENDBRANCH  15  16
BRANCH  15  21
ATOM     20  C   LIG    1        1.244   4.737   0.147  0.00  0.00    +0.036 C 
ATOM     21  C   LIG    1       -0.075   4.865   0.936  0.00  0.00    +0.106 C 
BRANCH  21  22
ATOM     22  O   LIG    1       -0.593   6.149   0.636  0.00  0.00    -0.393 OA
ATOM     23  H   LIG    1       -0.546   6.287  -0.314  0.00  0.00    +0.210 HD
ENDBRANCH  21  22
ENDBRANCH  15  21
ENDBRANCH   8  15
ENDBRANCH   1  10
BRANCH   3  24
ATOM     24  C   LIG    1        4.001  -1.557  -0.678  0.00  0.00    +0.234 C 
ATOM     25  N   LIG    1        3.129  -2.094  -1.549  0.00  0.00    -0.300 N 
ATOM     26  H   LIG    1        2.184  -2.282  -1.246  0.00  0.00    +0.150 HD
ATOM     27  O   LIG    1        5.174  -1.299  -0.944  0.00  0.00    -0.274 OA
BRANCH  25  28
ATOM     28  C   LIG    1        3.392  -2.345  -2.969  0.00  0.00    +0.187 C 
BRANCH  28  29
ATOM     29  C   LIG    1        3.357  -1.044  -3.809  0.00  0.00    +0.233 C 
ATOM     30  N   LIG    1        4.226  -0.960  -4.819  0.00  0.00    -0.328 N 
ATOM     31  H   LIG    1        4.242  -0.137  -5.404  0.00  0.00    +0.145 HD
ATOM     32  H   LIG    1        4.879  -1.709  -4.998  0.00  0.00    +0.145 HD
ATOM     33  O   LIG    1        2.541  -0.157  -3.557  0.00  0.00    -0.274 OA
ENDBRANCH  28  29
BRANCH  28  34
ATOM     34  C   LIG    1        2.365  -3.355  -3.571  0.00  0.00    +0.141 C 
ATOM     35  C   LIG    1        2.430  -4.742  -2.909  0.00  0.00    +0.040 C 
BRANCH  34  36
ATOM     36  O   LIG    1        1.023  -2.901  -3.467  0.00  0.00    -0.390 OA
ATOM     37  H   LIG    1        0.937  -2.090  -3.974  0.00  0.00    +0.210 HD
ENDBRANCH  34  36
ENDBRANCH  28  34
ENDBRANCH  25  28
ENDBRANCH   3  24
TORSDOF 10
