REMARK  Name = DB11910
REMARK                            x       y       z     vdW  Elec       q    Type
REMARK                         _______ _______ _______ _____ _____    ______ ____
ROOT
ATOM      1  C   LIG    1       -4.411  -0.917   2.435  0.00  0.00    +0.086 C 
ATOM      2  C   LIG    1       -5.080  -0.318   1.198  0.00  0.00    +0.114 A 
ATOM      3  N   LIG    1       -4.316   0.117   0.119  0.00  0.00    -0.265 N 
ATOM      4  C   LIG    1       -4.841   0.673  -1.040  0.00  0.00    +0.267 A 
ATOM      5  O   LIG    1       -4.123   1.046  -1.972  0.00  0.00    -0.267 OA
ATOM      6  C   LIG    1       -6.372   0.771  -1.040  0.00  0.00    +0.077 A 
ATOM      7  C   LIG    1       -7.130   1.305  -2.121  0.00  0.00    +0.069 A 
ATOM      8  C   LIG    1       -8.529   1.334  -1.994  0.00  0.00    +0.013 A 
ATOM      9  C   LIG    1       -9.172   0.860  -0.855  0.00  0.00    +0.003 A 
ATOM     10  C   LIG    1       -8.428   0.342   0.197  0.00  0.00    +0.028 A 
ATOM     11  C   LIG    1       -7.039   0.297   0.105  0.00  0.00    +0.079 A 
ATOM     12  N   LIG    1       -6.358  -0.238   1.202  0.00  0.00    -0.233 NA
ENDROOT
BRANCH   3  13
ATOM     13  C   LIG    1       -2.905  -0.005   0.170  0.00  0.00    +0.051 A 
ATOM     14  C   LIG    1       -2.134   1.037   0.695  0.00  0.00    +0.030 A 
ATOM     15  C   LIG    1       -0.749   0.908   0.749  0.00  0.00    +0.047 A 
ATOM     16  C   LIG    1       -0.123  -0.249   0.285  0.00  0.00    +0.121 A 
ATOM     17  C   LIG    1       -0.903  -1.290  -0.245  0.00  0.00    +0.047 A 
ATOM     18  C   LIG    1       -2.289  -1.168  -0.302  0.00  0.00    +0.030 A 
BRANCH  16  19
ATOM     19  O   LIG    1        1.255  -0.284   0.386  0.00  0.00    -0.492 OA
BRANCH  19  20
ATOM     20  C   LIG    1        1.960  -1.441  -0.053  0.00  0.00    +0.227 C 
BRANCH  20  21
ATOM     21  C   LIG    1        3.456  -1.231   0.217  0.00  0.00    +0.022 C 
BRANCH  21  22
ATOM     22  C   LIG    1        4.306  -2.437  -0.220  0.00  0.00    -0.076 C 
BRANCH  22  23
ATOM     23  N   LIG    1        5.807  -2.151   0.001  0.00  0.00    +0.380 N 
ATOM     24  H   LIG    1        6.023  -1.271  -0.448  0.00  0.00    -0.082 HD
ATOM     25  C   LIG    1        6.726  -3.240  -0.586  0.00  0.00    -0.079 C 
ATOM     26  C   LIG    1        8.022  -3.164   0.230  0.00  0.00    -0.020 C 
ATOM     27  C   LIG    1        7.749  -2.246   1.423  0.00  0.00    -0.020 C 
ATOM     28  C   LIG    1        6.236  -2.060   1.475  0.00  0.00    -0.079 C 
ENDBRANCH  22  23
ENDBRANCH  21  22
ENDBRANCH  20  21
ENDBRANCH  19  20
ENDBRANCH  16  19
ENDBRANCH   3  13
BRANCH   7  29
ATOM     29  C   LIG    1       -6.521   1.857  -3.426  0.00  0.00    +0.418 C 
ATOM     30  F   LIG    1       -7.445   2.304  -4.280  0.00  0.00    -0.166 F 
ATOM     31  F   LIG    1       -5.840   0.901  -4.060  0.00  0.00    -0.166 F 
ATOM     32  F   LIG    1       -5.712   2.884  -3.162  0.00  0.00    -0.166 F 
ENDBRANCH   7  29
TORSDOF 7
