REMARK  Name = DB11998
REMARK                            x       y       z     vdW  Elec       q    Type
REMARK                         _______ _______ _______ _____ _____    ______ ____
ROOT
ATOM      1  C   LIG    1       -0.537   1.062   0.029  0.00  0.00    +0.106 A 
ATOM      2  N   LIG    1        0.136  -0.126  -0.146  0.00  0.00    -0.271 N 
ATOM      3  C   LIG    1       -0.556  -1.312  -0.286  0.00  0.00    +0.331 A 
ATOM      4  O   LIG    1       -0.067  -2.425  -0.483  0.00  0.00    -0.246 OA
ATOM      5  N   LIG    1       -1.916  -1.167  -0.202  0.00  0.00    -0.274 N 
ATOM      6  H   LIG    1       -2.443  -2.023  -0.295  0.00  0.00    +0.173 HD
ATOM      7  C   LIG    1       -2.670  -0.042  -0.025  0.00  0.00    +0.261 A 
ATOM      8  O   LIG    1       -3.899  -0.110   0.019  0.00  0.00    -0.267 OA
ATOM      9  C   LIG    1       -1.883   1.188   0.098  0.00  0.00    +0.056 A 
ENDROOT
BRANCH   2  10
ATOM     10  C1* LIG    1        1.595  -0.130  -0.225  0.00  0.00    +0.255 C 
ATOM     11  O4* LIG    1        2.156   0.676   0.772  0.00  0.00    -0.346 OA
ATOM     12  C4* LIG    1        3.417   1.215   0.379  0.00  0.00    +0.177 C 
ATOM     13  C3* LIG    1        3.648   0.642  -1.029  0.00  0.00    +0.178 C 
ATOM     14  C2* LIG    1        2.250   0.301  -1.545  0.00  0.00    +0.195 C 
BRANCH  13  15
ATOM     15  O3* LIG    1        4.498  -0.493  -1.010  0.00  0.00    -0.386 OA
ATOM     16  H3* LIG    1        4.628  -0.795  -1.912  0.00  0.00    +0.210 HD
ENDBRANCH  13  15
BRANCH  14  17
ATOM     17  O2* LIG    1        1.603   1.411  -2.148  0.00  0.00    -0.385 OA
ATOM     18  H2* LIG    1        0.781   1.109  -2.543  0.00  0.00    +0.210 HD
ENDBRANCH  14  17
BRANCH  12  19
ATOM     19  C5* LIG    1        3.334   2.756   0.433  0.00  0.00    +0.190 C 
BRANCH  19  20
ATOM     20  O5* LIG    1        3.016   3.204   1.736  0.00  0.00    -0.392 OA
ATOM     21  H5* LIG    1        2.986   4.164   1.732  0.00  0.00    +0.210 HD
ENDBRANCH  19  20
ENDBRANCH  12  19
ENDBRANCH   2  10
BRANCH   9  22
ATOM     22  C   LIG    1       -2.580   2.461   0.285  0.00  0.00    +0.022 C 
ATOM     23  C   LIG    1       -1.988   3.660   0.433  0.00  0.00    +0.052 C 
ATOM     24 BR   LIG    1       -3.052   5.302   0.677  0.00  0.00    -0.059 Br
ENDBRANCH   9  22
TORSDOF 6
