REMARK  Name = DB11678
REMARK                            x       y       z     vdW  Elec       q    Type
REMARK                         _______ _______ _______ _____ _____    ______ ____
ROOT
ATOM      1  C   LIG    1       -0.208  -0.149  -0.016  0.00  0.00    +0.173 C 
ENDROOT
BRANCH   1   2
ATOM      2  O   LIG    1       -0.903   1.075   0.156  0.00  0.00    -0.387 OA
ATOM      3  H   LIG    1       -0.526   1.540   0.905  0.00  0.00    +0.210 HD
ENDBRANCH   1   2
BRANCH   1   4
ATOM      4  C   LIG    1       -0.843  -0.905  -1.201  0.00  0.00    +0.227 C 
BRANCH   4   5
ATOM      5  O   LIG    1       -0.297  -2.212  -1.270  0.00  0.00    -0.236 OA
BRANCH   5   7
ATOM      6  C   LIG    1        0.277  -4.674  -2.159  0.00  0.00    +0.228 C 
ATOM      7  S   LIG    1       -0.605  -3.085  -2.656  0.00  0.00    +0.079 S 
ATOM      8  O   LIG    1       -2.049  -3.333  -2.733  0.00  0.00    -0.147 OA
ATOM      9  O   LIG    1        0.114  -2.455  -3.768  0.00  0.00    -0.147 OA
ENDBRANCH   5   7
ENDBRANCH   4   5
ENDBRANCH   1   4
BRANCH   1  10
ATOM     10  C   LIG    1        1.323   0.085  -0.157  0.00  0.00    +0.173 C 
BRANCH  10  11
ATOM     11  O   LIG    1        1.623   0.758  -1.369  0.00  0.00    -0.387 OA
ATOM     12  H   LIG    1        2.577   0.837  -1.444  0.00  0.00    +0.210 HD
ENDBRANCH  10  11
BRANCH  10  13
ATOM     13  C   LIG    1        1.941   0.883   1.011  0.00  0.00    +0.227 C 
BRANCH  13  14
ATOM     14  O   LIG    1        3.359   0.815   0.945  0.00  0.00    -0.236 OA
BRANCH  14  15
ATOM     15  S   LIG    1        4.239   2.177   1.351  0.00  0.00    +0.079 S 
ATOM     16  C   LIG    1        3.896   3.209  -0.194  0.00  0.00    +0.228 C 
ATOM     17  O   LIG    1        5.658   1.807   1.366  0.00  0.00    -0.147 OA
ATOM     18  O   LIG    1        3.614   2.814   2.516  0.00  0.00    -0.147 OA
ENDBRANCH  14  15
ENDBRANCH  13  14
ENDBRANCH  10  13
ENDBRANCH   1  10
TORSDOF 9
