REMARK  Name = DB11954
REMARK                            x       y       z     vdW  Elec       q    Type
REMARK                         _______ _______ _______ _____ _____    ______ ____
ROOT
ATOM      1  C   LIG    1       -0.561  -1.103   0.062  0.00  0.00    +0.223 C 
ATOM      2  N   LIG    1        0.133   0.070  -0.058  0.00  0.00    -0.267 N 
ATOM      3  O   LIG    1       -1.789  -1.112   0.191  0.00  0.00    -0.275 OA
ENDROOT
BRANCH   1   8
ATOM      4  C   LIG    1        0.881  -6.777   0.748  0.00  0.00    +0.007 C 
ATOM      5  C   LIG    1        0.241  -5.379   0.694  0.00  0.00    -0.014 C 
ATOM      6  C   LIG    1        0.080  -4.879  -0.760  0.00  0.00    +0.004 C 
ATOM      7  C   LIG    1       -0.629  -3.508  -0.808  0.00  0.00    +0.013 C 
ATOM      8  C   LIG    1        0.172  -2.478   0.039  0.00  0.00    +0.076 C 
ATOM      9  C   LIG    1        0.378  -2.961   1.500  0.00  0.00    +0.013 C 
ATOM     10  C   LIG    1        1.064  -4.344   1.494  0.00  0.00    +0.004 C 
ENDBRANCH   1   8
BRANCH   2  11
ATOM     11  C   LIG    1       -0.529   1.395  -0.055  0.00  0.00    +0.082 C 
ATOM     12  C   LIG    1       -1.131   1.836   1.305  0.00  0.00    +0.025 C 
ATOM     13  C   LIG    1       -1.767   3.239   1.281  0.00  0.00    +0.033 C 
ATOM     14  C   LIG    1       -2.740   3.433   0.104  0.00  0.00    +0.115 C 
ATOM     15  C   LIG    1       -2.067   3.109  -1.242  0.00  0.00    +0.033 C 
ATOM     16  C   LIG    1       -1.440   1.702  -1.273  0.00  0.00    +0.025 C 
BRANCH  14  17
ATOM     17  O   LIG    1       -3.273   4.743   0.098  0.00  0.00    -0.392 OA
ATOM     18  H   LIG    1       -4.231   4.682   0.107  0.00  0.00    +0.210 HD
ENDBRANCH  14  17
ENDBRANCH   2  11
BRANCH   2  19
ATOM     19  C   LIG    1        1.523   0.083  -0.103  0.00  0.00    +0.059 A 
ATOM     20  C   LIG    1        2.293   0.112   1.071  0.00  0.00    +0.049 A 
ATOM     21  C   LIG    1        3.657   0.126   0.840  0.00  0.00    +0.065 A 
ATOM     22  S   LIG    1        4.009   0.137  -0.853  0.00  0.00    -0.072 S 
ATOM     23  C   LIG    1        2.305   0.100  -1.281  0.00  0.00    +0.119 A 
BRANCH  21  24
ATOM     24  C   LIG    1        4.734   0.134   1.814  0.00  0.00    -0.059 C 
ATOM     25  C   LIG    1        5.632   0.125   2.641  0.00  0.00    -0.091 C 
BRANCH  25  26
ATOM     26  C   LIG    1        6.717   0.101   3.649  0.00  0.00    +0.024 C 
ATOM     27  C   LIG    1        8.046   0.538   2.991  0.00  0.00    +0.024 C 
ATOM     28  C   LIG    1        6.372   1.071   4.803  0.00  0.00    +0.024 C 
ATOM     29  C   LIG    1        6.870  -1.331   4.213  0.00  0.00    +0.024 C 
ENDBRANCH  25  26
ENDBRANCH  21  24
BRANCH  23  30
ATOM     30  C   LIG    1        1.918   0.072  -2.714  0.00  0.00    +0.345 C 
ATOM     31  O   LIG    1        0.857  -0.525  -3.009  0.00  0.00    -0.244 OA
BRANCH  30  32
ATOM     32  O   LIG    1        2.658   0.645  -3.548  0.00  0.00    -0.477 OA
ATOM     33  H   LIG    1        3.440   1.076  -3.262  0.00  0.00    +0.295 HD
ENDBRANCH  30  32
ENDBRANCH  23  30
ENDBRANCH   2  19
TORSDOF 8
