REMARK  Name = DB11683
REMARK                            x       y       z     vdW  Elec       q    Type
REMARK                         _______ _______ _______ _____ _____    ______ ____
ROOT
ATOM      1  C   LIG    1        1.430  -0.024  -0.104  0.00  0.00    +0.060 A 
ATOM      2  N   LIG    1        1.999   0.040  -1.379  0.00  0.00    -0.312 N 
ATOM      3  C   LIG    1        3.397   0.051  -1.492  0.00  0.00    +0.161 A 
ATOM      4  S   LIG    1        4.324   0.138  -2.884  0.00  0.00    -0.013 S 
ATOM      5  N   LIG    1        4.107  -0.033  -0.314  0.00  0.00    -0.303 N 
ATOM      6  H   LIG    1        5.109  -0.037  -0.440  0.00  0.00    +0.171 HD
ATOM      7  C   LIG    1        3.627  -0.127   0.957  0.00  0.00    +0.253 A 
ATOM      8  O   LIG    1        4.357  -0.223   1.941  0.00  0.00    -0.268 OA
ATOM      9  C   LIG    1        2.179  -0.108   1.022  0.00  0.00    +0.096 A 
ENDROOT
BRANCH   1  11
ATOM     10  C   LIG    1       -0.770  -1.209   0.186  0.00  0.00    +0.129 A 
ATOM     11  C   LIG    1       -0.045  -0.014   0.034  0.00  0.00    +0.042 A 
ATOM     12  C   LIG    1       -0.723   1.211  -0.007  0.00  0.00    +0.033 A 
ATOM     13  C   LIG    1       -2.111   1.258   0.100  0.00  0.00    +0.042 A 
ATOM     14 CL   LIG    1       -2.931   2.776   0.043  0.00  0.00    -0.084 Cl
ATOM     15  C   LIG    1       -2.834   0.078   0.250  0.00  0.00    +0.023 A 
ATOM     16  C   LIG    1       -2.171  -1.146   0.293  0.00  0.00    +0.048 A 
BRANCH  10  18
ATOM     17  C   LIG    1       -0.746  -3.632   0.310  0.00  0.00    +0.277 C 
ATOM     18  O   LIG    1       -0.053  -2.393   0.217  0.00  0.00    -0.494 OA
ENDBRANCH  10  18
ENDBRANCH   1  11
BRANCH   2  19
ATOM     19  C   LIG    1        1.167   0.069  -2.626  0.00  0.00    +0.219 C 
BRANCH  19  20
ATOM     20  C   LIG    1        0.827  -1.356  -3.118  0.00  0.00    +0.230 C 
ATOM     21  N   LIG    1        0.063  -1.435  -4.209  0.00  0.00    -0.328 N 
ATOM     22  H   LIG    1       -0.192  -2.338  -4.582  0.00  0.00    +0.145 HD
ATOM     23  H   LIG    1       -0.260  -0.598  -4.672  0.00  0.00    +0.145 HD
ATOM     24  O   LIG    1        1.234  -2.367  -2.547  0.00  0.00    -0.274 OA
ENDBRANCH  19  20
ENDBRANCH   2  19
TORSDOF 4
