REMARK  Name = DB11323
REMARK                            x       y       z     vdW  Elec       q    Type
REMARK                         _______ _______ _______ _____ _____    ______ ____
ROOT
ATOM      1  C   LIG    1        3.288  -1.410   0.000  0.00  0.00    +0.100 A 
ATOM      2  C   LIG    1        4.058  -2.598   0.000  0.00  0.00    +0.131 A 
ATOM      3  C   LIG    1        5.453  -2.537   0.000  0.00  0.00    +0.046 A 
ATOM      4  C   LIG    1        6.109  -1.310   0.000  0.00  0.00    +0.004 A 
ATOM      5  C   LIG    1        5.371  -0.132   0.000  0.00  0.00    +0.001 A 
ATOM      6  C   LIG    1        3.978  -0.181   0.000  0.00  0.00    +0.018 A 
ENDROOT
BRANCH   1   7
ATOM      7  C   LIG    1        1.776  -1.429   0.000  0.00  0.00    +0.343 C 
ATOM      8  O   LIG    1        1.099  -2.461   0.000  0.00  0.00    -0.245 OA
BRANCH   7   9
ATOM      9  O   LIG    1        1.222  -0.187   0.000  0.00  0.00    -0.459 OA
BRANCH   9  10
ATOM     10  C   LIG    1       -0.189  -0.008   0.000  0.00  0.00    +0.260 C 
BRANCH  10  11
ATOM     11  C   LIG    1       -0.512   1.491   0.000  0.00  0.00    +0.197 C 
BRANCH  11  12
ATOM     12  O   LIG    1       -1.912   1.678   0.000  0.00  0.00    -0.392 OA
ATOM     13  H   LIG    1       -2.095   2.620   0.000  0.00  0.00    +0.210 HD
ENDBRANCH  11  12
ENDBRANCH  10  11
ENDBRANCH   9  10
ENDBRANCH   7   9
ENDBRANCH   1   7
BRANCH   2  14
ATOM     14  O   LIG    1        3.495  -3.850   0.000  0.00  0.00    -0.506 OA
ATOM     15  H   LIG    1        4.149  -4.552   0.000  0.00  0.00    +0.292 HD
ENDBRANCH   2  14
TORSDOF 6
