REMARK  Name = DB11932
REMARK                            x       y       z     vdW  Elec       q    Type
REMARK                         _______ _______ _______ _____ _____    ______ ____
ROOT
ATOM      1  C   LIG    1       -4.287   0.152   0.000  0.00  0.00    +0.045 C 
ATOM      2  C   LIG    1       -2.772   0.071   0.000  0.00  0.00    -0.032 A 
ATOM      3  C   LIG    1       -1.987   1.225   0.000  0.00  0.00    +0.114 A 
ATOM      4  N   LIG    1       -0.630   1.192   0.000  0.00  0.00    -0.253 NA
ATOM      5  C   LIG    1        0.006  -0.015   0.000  0.00  0.00    +0.089 A 
ATOM      6  C   LIG    1       -0.729  -1.214   0.000  0.00  0.00    +0.030 A 
ATOM      7  C   LIG    1       -2.124  -1.166   0.000  0.00  0.00    +0.007 A 
ENDROOT
BRANCH   5   8
ATOM      8  C   LIG    1        1.510   0.021   0.000  0.00  0.00    +0.089 A 
ATOM      9  N   LIG    1        2.148  -1.185   0.000  0.00  0.00    -0.253 NA
ATOM     10  C   LIG    1        3.504  -1.217   0.000  0.00  0.00    +0.114 A 
ATOM     11  C   LIG    1        4.288  -0.062   0.000  0.00  0.00    -0.032 A 
ATOM     12  C   LIG    1        5.803  -0.140   0.000  0.00  0.00    +0.045 C 
ATOM     13  C   LIG    1        3.639   1.174   0.000  0.00  0.00    +0.007 A 
ATOM     14  C   LIG    1        2.244   1.221   0.000  0.00  0.00    +0.030 A 
ENDBRANCH   5   8
TORSDOF 1
