REMARK  Name = DB11446
REMARK                            x       y       z     vdW  Elec       q    Type
REMARK                         _______ _______ _______ _____ _____    ______ ____
ROOT
ATOM      1  C   LIG    1        1.922   0.006  -0.043  0.00  0.00    +0.046 A 
ATOM      2  C   LIG    1        2.614  -1.101  -0.542  0.00  0.00    +0.045 A 
ATOM      3  C   LIG    1        3.999  -1.162  -0.385  0.00  0.00    +0.066 A 
ATOM      4  N   LIG    1        4.945  -2.109  -0.762  0.00  0.00    -0.326 N 
ATOM      5  H   LIG    1        4.734  -2.967  -1.251  0.00  0.00    +0.169 HD
ATOM      6  C   LIG    1        6.263  -1.727  -0.376  0.00  0.00    +0.201 A 
ATOM      7  N   LIG    1        6.031  -0.484   0.261  0.00  0.00    -0.326 N 
ATOM      8  H   LIG    1        6.765   0.078   0.665  0.00  0.00    +0.169 HD
ATOM      9  N   LIG    1        7.401  -2.296  -0.524  0.00  0.00    -0.109 NA
ATOM     10  C   LIG    1        4.683  -0.138   0.260  0.00  0.00    +0.065 A 
ATOM     11  C   LIG    1        3.995   0.967   0.761  0.00  0.00    +0.029 A 
ATOM     12  C   LIG    1        2.608   1.037   0.609  0.00  0.00    +0.019 A 
ENDROOT
BRANCH   1  13
ATOM     13  S   LIG    1        0.112   0.081  -0.221  0.00  0.00    +0.086 S 
ATOM     14  O   LIG    1       -0.260   1.565  -0.197  0.00  0.00    -0.247 OA
BRANCH  13  16
ATOM     15  C   LIG    1       -0.149  -1.958   1.656  0.00  0.00    +0.017 A 
ATOM     16  C   LIG    1       -0.284  -0.587   1.429  0.00  0.00    +0.044 A 
ATOM     17  C   LIG    1       -0.702   0.269   2.449  0.00  0.00    +0.017 A 
ATOM     18  C   LIG    1       -0.989  -0.254   3.708  0.00  0.00    +0.001 A 
ATOM     19  C   LIG    1       -0.855  -1.623   3.935  0.00  0.00    +0.000 A 
ATOM     20  C   LIG    1       -0.437  -2.477   2.915  0.00  0.00    +0.001 A 
ENDBRANCH  13  16
ENDBRANCH   1  13
BRANCH   9  21
ATOM     21  C   LIG    1        7.442  -3.514  -1.181  0.00  0.00    +0.427 C 
ATOM     22  O   LIG    1        7.540  -4.598  -0.601  0.00  0.00    -0.224 OA
BRANCH  21  23
ATOM     23  O   LIG    1        7.418  -3.344  -2.528  0.00  0.00    -0.452 OA
ATOM     24  C   LIG    1        7.472  -4.465  -3.398  0.00  0.00    +0.282 C 
ENDBRANCH  21  23
ENDBRANCH   9  21
TORSDOF 4
