REMARK  Name = DB11822
REMARK                            x       y       z     vdW  Elec       q    Type
REMARK                         _______ _______ _______ _____ _____    ______ ____
ROOT
ATOM      1  C   LIG    1       -5.742   5.908  -0.082  0.00  0.00    +0.132 C 
ATOM      2  N   LIG    1       -5.147   4.562  -0.121  0.00  0.00    -0.299 N 
ATOM      3  C   LIG    1       -4.256   4.197   0.846  0.00  0.00    +0.244 C 
ATOM      4  O   LIG    1       -3.848   4.971   1.714  0.00  0.00    -0.270 OA
ATOM      5  C   LIG    1       -3.803   2.822   0.871  0.00  0.00    +0.035 C 
ATOM      6  C   LIG    1       -4.522   1.846   1.794  0.00  0.00    +0.162 C 
ATOM      7  N   LIG    1       -5.094   0.769   0.993  0.00  0.00    -0.335 N 
ATOM      8  C   LIG    1       -4.342  -0.130   0.256  0.00  0.00    +0.054 A 
ATOM      9  C   LIG    1       -2.835  -0.094   0.218  0.00  0.00    +0.006 A 
ATOM     10  C   LIG    1       -2.106   1.112   0.077  0.00  0.00    -0.012 A 
ATOM     11  C   LIG    1       -0.715   1.058  -0.063  0.00  0.00    +0.054 A 
ATOM     12  C   LIG    1       -0.019  -0.150  -0.032  0.00  0.00    +0.121 A 
ATOM     13  C   LIG    1       -0.742  -1.335   0.161  0.00  0.00    +0.046 A 
ATOM     14  C   LIG    1       -2.128  -1.300   0.288  0.00  0.00    +0.014 A 
ATOM     15  C   LIG    1       -5.200  -0.980  -0.447  0.00  0.00    -0.011 A 
ATOM     16  C   LIG    1       -6.536  -0.549  -0.127  0.00  0.00    +0.004 A 
ATOM     17  C   LIG    1       -7.814  -0.988  -0.507  0.00  0.00    +0.011 A 
ATOM     18  C   LIG    1       -8.934  -0.269  -0.102  0.00  0.00    +0.014 A 
ATOM     19  C   LIG    1       -8.833   0.887   0.682  0.00  0.00    +0.040 A 
ATOM     20  C   LIG    1       -7.569   1.298   1.148  0.00  0.00    +0.039 A 
ATOM     21  C   LIG    1      -10.094   1.689   0.979  0.00  0.00    +0.264 C 
ATOM     22  O   LIG    1      -11.190   1.139   0.841  0.00  0.00    -0.269 OA
ATOM     23  N   LIG    1       -9.879   2.964   1.223  0.00  0.00    -0.171 N 
ATOM     24  H   LIG    1       -8.969   3.245   1.469  0.00  0.00    +0.178 HD
ATOM     25  S   LIG    1      -11.005   4.065   1.141  0.00  0.00    +0.114 S 
ATOM     26  O   LIG    1      -12.365   3.601   1.447  0.00  0.00    -0.138 OA
ATOM     27  O   LIG    1      -10.595   5.305   1.809  0.00  0.00    -0.138 OA
ATOM     28  N   LIG    1      -11.007   4.462  -0.603  0.00  0.00    -0.165 NA
ATOM     29  C   LIG    1      -11.719   3.530  -1.509  0.00  0.00    +0.133 C 
ATOM     30  C   LIG    1       -9.808   5.147  -1.168  0.00  0.00    +0.138 C 
ATOM     31  C   LIG    1       -8.740   4.187  -1.729  0.00  0.00    +0.177 C 
ATOM     32  O   LIG    1       -7.587   4.939  -2.092  0.00  0.00    -0.377 OA
ATOM     33  C   LIG    1       -6.414   4.171  -2.360  0.00  0.00    +0.179 C 
ATOM     34  C   LIG    1       -6.439   0.581   0.728  0.00  0.00    +0.051 A 
ATOM     35  C   LIG    1       -2.727   2.457   0.137  0.00  0.00    +0.019 C 
ATOM     36  C   LIG    1       -5.725   3.604  -1.092  0.00  0.00    +0.135 C 
ENDROOT
BRANCH  15  37
ATOM     37  C   LIG    1       -4.845  -2.106  -1.412  0.00  0.00    +0.022 C 
ATOM     38  C   LIG    1       -5.228  -3.512  -0.884  0.00  0.00    +0.008 C 
ATOM     39  C   LIG    1       -4.874  -4.639  -1.876  0.00  0.00    +0.001 C 
ATOM     40  C   LIG    1       -5.431  -4.375  -3.285  0.00  0.00    +0.000 C 
ATOM     41  C   LIG    1       -4.971  -3.009  -3.821  0.00  0.00    +0.001 C 
ATOM     42  C   LIG    1       -5.332  -1.856  -2.864  0.00  0.00    +0.008 C 
ENDBRANCH  15  37
BRANCH  12  43
ATOM     43  O   LIG    1        1.353  -0.085  -0.183  0.00  0.00    -0.495 OA
ATOM     44  C   LIG    1        2.109  -1.291  -0.172  0.00  0.00    +0.277 C 
ENDBRANCH  12  43
TORSDOF 2
