REMARK  Name = DB11957
REMARK                            x       y       z     vdW  Elec       q    Type
REMARK                         _______ _______ _______ _____ _____    ______ ____
ROOT
ATOM      1  N   LIG    1        2.040  -0.922  -1.736  0.00  0.00    +0.382 N 
ATOM      2  H   LIG    1        1.682  -1.857  -1.873  0.00  0.00    -0.085 HD
ATOM      3  H   LIG    1        3.048  -0.982  -1.695  0.00  0.00    -0.085 HD
ENDROOT
BRANCH   1   4
ATOM      4  C   LIG    1        1.531  -0.390  -0.385  0.00  0.00    -0.047 C 
BRANCH   4   9
ATOM      5  C   LIG    1       -2.053   0.912  -0.332  0.00  0.00    +0.004 A 
ATOM      6  C   LIG    1       -2.764  -0.243  -0.010  0.00  0.00    +0.045 A 
ATOM      7  C   LIG    1       -2.103  -1.457   0.195  0.00  0.00    +0.121 A 
ATOM      8  C   LIG    1       -0.703  -1.495   0.071  0.00  0.00    +0.047 A 
ATOM      9  C   LIG    1        0.015  -0.341  -0.263  0.00  0.00    -0.061 A 
ATOM     10  C   LIG    1       -0.666   0.864  -0.455  0.00  0.00    +0.002 A 
BRANCH   7  11
ATOM     11  O   LIG    1       -2.892  -2.546   0.510  0.00  0.00    -0.486 OA
BRANCH  11  12
ATOM     12  C   LIG    1       -2.283  -3.820   0.714  0.00  0.00    +0.310 C 
BRANCH  12  13
ATOM     13  C   LIG    1       -3.372  -4.870   1.013  0.00  0.00    +0.341 C 
ATOM     14  F   LIG    1       -4.229  -4.934  -0.008  0.00  0.00    -0.196 F 
ATOM     15  F   LIG    1       -4.062  -4.496   2.092  0.00  0.00    -0.196 F 
BRANCH  13  16
ATOM     16  C   LIG    1       -2.755  -6.261   1.261  0.00  0.00    +0.413 C 
ATOM     17  F   LIG    1       -3.670  -7.205   1.486  0.00  0.00    -0.203 F 
ATOM     18  F   LIG    1       -1.954  -6.672   0.276  0.00  0.00    -0.203 F 
ENDBRANCH  13  16
ENDBRANCH  12  13
ENDBRANCH  11  12
ENDBRANCH   7  11
ENDBRANCH   4   9
ENDBRANCH   1   4
BRANCH   1  19
ATOM     19  C   LIG    1        1.654  -0.061  -2.950  0.00  0.00    -0.077 C 
BRANCH  19  20
ATOM     20  C   LIG    1        2.292  -0.637  -4.225  0.00  0.00    +0.018 C 
BRANCH  20  21
ATOM     21  C   LIG    1        1.903   0.153  -5.456  0.00  0.00    -0.024 A 
ATOM     22  C   LIG    1        2.327   1.487  -5.802  0.00  0.00    +0.003 A 
ATOM     23  C   LIG    1        3.170   2.430  -5.191  0.00  0.00    +0.013 A 
ATOM     24  C   LIG    1        3.370   3.664  -5.807  0.00  0.00    +0.039 A 
ATOM     25  C   LIG    1        2.752   3.977  -7.015  0.00  0.00    +0.125 A 
ATOM     26  F   LIG    1        2.975   5.187  -7.576  0.00  0.00    -0.205 F 
ATOM     27  C   LIG    1        1.908   3.074  -7.661  0.00  0.00    +0.064 A 
ATOM     28  C   LIG    1        1.707   1.835  -7.042  0.00  0.00    +0.049 A 
ATOM     29  N   LIG    1        0.947   0.751  -7.417  0.00  0.00    -0.360 N 
ATOM     30  H   LIG    1        0.374   0.655  -8.244  0.00  0.00    +0.165 HD
ATOM     31  C   LIG    1        1.063  -0.243  -6.482  0.00  0.00    +0.087 A 
ENDBRANCH  20  21
ENDBRANCH  19  20
ENDBRANCH   1  19
TORSDOF 9
