REMARK  Name = DB11441
REMARK                            x       y       z     vdW  Elec       q    Type
REMARK                         _______ _______ _______ _____ _____    ______ ____
ROOT
ATOM      1  C   LIG    1        1.338   0.053   0.135  0.00  0.00    +0.012 C 
ATOM      2  C   LIG    1        1.625  -0.910   1.312  0.00  0.00    +0.007 C 
ATOM      3  C   LIG    1        3.116  -0.898   1.705  0.00  0.00    +0.023 C 
ATOM      4  C   LIG    1        4.008  -1.243   0.485  0.00  0.00    +0.075 C 
ATOM      5  C   LIG    1        3.700  -0.345  -0.744  0.00  0.00    +0.023 C 
ATOM      6  C   LIG    1        2.196  -0.379  -1.080  0.00  0.00    +0.007 C 
ENDROOT
BRANCH   4   7
ATOM      7  N   LIG    1        5.439  -1.188   0.856  0.00  0.00    -0.315 N 
ATOM      8  C   LIG    1        6.067   0.117   1.084  0.00  0.00    +0.131 C 
BRANCH   7   9
ATOM      9  C   LIG    1        6.129  -2.363   1.272  0.00  0.00    +0.134 A 
ATOM     10  N   LIG    1        5.394  -3.492   1.504  0.00  0.00    -0.220 NA
ATOM     11  C   LIG    1        6.036  -4.617   1.901  0.00  0.00    +0.225 A 
ATOM     12  N   LIG    1        7.366  -4.785   2.103  0.00  0.00    -0.218 NA
ATOM     13  C   LIG    1        8.073  -3.679   1.856  0.00  0.00    +0.143 A 
ATOM     14  N   LIG    1        9.440  -3.550   1.961  0.00  0.00    -0.346 N 
ATOM     15  H   LIG    1       10.108  -4.255   2.237  0.00  0.00    +0.167 HD
ATOM     16  C   LIG    1        9.805  -2.273   1.614  0.00  0.00    +0.085 A 
ATOM     17  C   LIG    1        8.678  -1.548   1.277  0.00  0.00    +0.032 A 
ATOM     18  C   LIG    1        7.542  -2.422   1.433  0.00  0.00    +0.059 A 
ENDBRANCH   7   9
ENDBRANCH   4   7
BRANCH   1  19
ATOM     19  C   LIG    1       -0.176   0.099  -0.176  0.00  0.00    +0.188 C 
BRANCH  19  20
ATOM     20  S   LIG    1       -0.622   1.515  -1.356  0.00  0.00    +0.029 S 
ATOM     21  O   LIG    1       -0.260   1.116  -2.720  0.00  0.00    -0.158 OA
ATOM     22  O   LIG    1       -0.120   2.773  -0.792  0.00  0.00    -0.158 OA
BRANCH  20  24
ATOM     23  C   LIG    1       -3.051   2.398  -0.289  0.00  0.00    +0.127 C 
ATOM     24  N   LIG    1       -2.381   1.546  -1.286  0.00  0.00    -0.198 NA
ATOM     25  H   LIG    1       -2.873   1.407  -2.172  0.00  0.00    +0.147 HD
ENDBRANCH  20  24
ENDBRANCH  19  20
ENDBRANCH   1  19
TORSDOF 5
