REMARK  Name = DB11977
REMARK                            x       y       z     vdW  Elec       q    Type
REMARK                         _______ _______ _______ _____ _____    ______ ____
ROOT
ATOM      1  O   LIG    1        0.337   0.888  -0.488  0.00  0.00    -0.456 OA
ENDROOT
BRANCH   1   2
ATOM      2  C   LIG    1        1.097   0.750  -1.628  0.00  0.00    +0.131 A 
ATOM      3  C   LIG    1        0.823   1.492  -2.782  0.00  0.00    +0.086 A 
ATOM      4  C   LIG    1        1.620   1.353  -3.918  0.00  0.00    +0.148 A 
ATOM      5  F   LIG    1        1.322   2.078  -5.023  0.00  0.00    -0.203 F 
ATOM      6  C   LIG    1        2.717   0.481  -3.909  0.00  0.00    +0.069 A 
ATOM      7  C   LIG    1        2.995  -0.256  -2.745  0.00  0.00    +0.030 A 
ATOM      8  C   LIG    1        2.192  -0.114  -1.613  0.00  0.00    +0.048 A 
BRANCH   6   9
ATOM      9  N   LIG    1        3.477   0.391  -5.090  0.00  0.00    -0.282 N 
ATOM     10  H   LIG    1        3.001   0.716  -5.920  0.00  0.00    +0.155 HD
ATOM     11  C   LIG    1        4.778   0.051  -5.242  0.00  0.00    +0.232 C 
ATOM     12  O   LIG    1        5.524  -0.222  -4.298  0.00  0.00    -0.274 OA
BRANCH  11  13
ATOM     13  C   LIG    1        5.333   0.061  -6.694  0.00  0.00    +0.123 C 
ATOM     14  C   LIG    1        6.389  -1.005  -6.974  0.00  0.00    +0.027 C 
ATOM     15  C   LIG    1        6.803   0.443  -6.850  0.00  0.00    +0.027 C 
BRANCH  13  16
ATOM     16  C   LIG    1        4.422   0.351  -7.906  0.00  0.00    +0.232 C 
ATOM     17  N   LIG    1        4.527   1.586  -8.445  0.00  0.00    -0.285 N 
ATOM     18  H   LIG    1        5.164   2.220  -7.985  0.00  0.00    +0.155 HD
ATOM     19  O   LIG    1        3.595  -0.497  -8.245  0.00  0.00    -0.274 OA
BRANCH  17  20
ATOM     20  C   LIG    1        3.814   2.152  -9.519  0.00  0.00    +0.034 A 
ATOM     21  C   LIG    1        3.080   1.414 -10.462  0.00  0.00    +0.026 A 
ATOM     22  C   LIG    1        2.411   2.072 -11.492  0.00  0.00    +0.040 A 
ATOM     23  C   LIG    1        2.479   3.459 -11.588  0.00  0.00    +0.124 A 
ATOM     24  F   LIG    1        1.828   4.095 -12.589  0.00  0.00    -0.205 F 
ATOM     25  C   LIG    1        3.216   4.197 -10.665  0.00  0.00    +0.040 A 
ATOM     26  C   LIG    1        3.886   3.543  -9.634  0.00  0.00    +0.026 A 
ENDBRANCH  17  20
ENDBRANCH  13  16
ENDBRANCH  11  13
ENDBRANCH   6   9
ENDBRANCH   1   2
BRANCH   1  31
ATOM     27  C   LIG    1       -3.180   1.192   0.488  0.00  0.00    +0.130 A 
ATOM     28  N   LIG    1       -3.825   0.437  -0.446  0.00  0.00    -0.240 NA
ATOM     29  C   LIG    1       -3.087  -0.178  -1.402  0.00  0.00    +0.116 A 
ATOM     30  C   LIG    1       -1.699  -0.067  -1.473  0.00  0.00    +0.066 A 
ATOM     31  C   LIG    1       -1.033   0.717  -0.517  0.00  0.00    +0.133 A 
ATOM     32  C   LIG    1       -1.788   1.335   0.484  0.00  0.00    +0.090 A 
BRANCH  27  38
ATOM     33  C   LIG    1       -6.241   5.678   2.477  0.00  0.00    -0.066 C 
ATOM     34  C   LIG    1       -7.241   4.522   2.163  0.00  0.00    +0.004 C 
ATOM     35  C   LIG    1       -6.956   3.210   2.936  0.00  0.00    +0.108 C 
ATOM     36  N   LIG    1       -5.544   2.848   2.719  0.00  0.00    -0.285 N 
ATOM     37  C   LIG    1       -5.192   2.152   1.598  0.00  0.00    +0.308 C 
ATOM     38  N   LIG    1       -3.871   1.859   1.516  0.00  0.00    -0.254 N 
ATOM     39  H   LIG    1       -3.279   2.253   2.232  0.00  0.00    +0.158 HD
ATOM     40  O   LIG    1       -6.026   1.739   0.787  0.00  0.00    -0.252 OA
ATOM     41  C   LIG    1       -4.639   3.828   3.353  0.00  0.00    +0.108 C 
ATOM     42  C   LIG    1       -4.773   5.162   2.581  0.00  0.00    +0.004 C 
BRANCH  33  47
ATOM     43  C   LIG    1       -7.192  10.442   1.667  0.00  0.00    +0.104 C 
ATOM     44  N   LIG    1       -6.878   9.595   0.518  0.00  0.00    -0.309 NA
ATOM     45  C   LIG    1       -7.852   8.525   0.285  0.00  0.00    +0.065 C 
ATOM     46  C   LIG    1       -7.785   7.407   1.354  0.00  0.00    -0.063 C 
ATOM     47  N   LIG    1       -6.356   6.799   1.395  0.00  0.00    +0.383 N 
ATOM     48  H   LIG    1       -6.164   6.397   0.488  0.00  0.00    -0.081 HD
ATOM     49  C   LIG    1       -5.340   7.950   1.628  0.00  0.00    -0.063 C 
ATOM     50  C   LIG    1       -5.522   9.040   0.544  0.00  0.00    +0.065 C 
ENDBRANCH  33  47
ENDBRANCH  27  38
ENDBRANCH   1  31
TORSDOF 8
