REMARK  Name = DB11611
REMARK                            x       y       z     vdW  Elec       q    Type
REMARK                         _______ _______ _______ _____ _____    ______ ____
ROOT
ATOM      1  C   LIG    1       -1.762   3.076  -0.384  0.00  0.00    +0.074 A 
ATOM      2  C   LIG    1       -1.472   3.898  -1.492  0.00  0.00    +0.058 A 
ATOM      3 CL   LIG    1       -0.793   3.222  -2.945  0.00  0.00    -0.082 Cl
ATOM      4  C   LIG    1       -1.723   5.282  -1.434  0.00  0.00    -0.022 A 
ATOM      5  C   LIG    1       -1.459   6.256  -2.580  0.00  0.00    +0.056 C 
ATOM      6  C   LIG    1       -2.664   7.209  -2.761  0.00  0.00    +0.113 C 
ATOM      7  N   LIG    1       -3.029   7.873  -1.482  0.00  0.00    -0.293 N 
ATOM      8  C   LIG    1       -3.546   9.137  -1.474  0.00  0.00    +0.247 C 
ATOM      9  O   LIG    1       -3.521   9.860  -0.473  0.00  0.00    -0.270 OA
ATOM     10  C   LIG    1       -2.472   7.351  -0.210  0.00  0.00    +0.143 C 
ATOM     11  C   LIG    1       -2.248   5.844  -0.263  0.00  0.00    -0.024 A 
ATOM     12  C   LIG    1       -2.528   5.024   0.829  0.00  0.00    +0.026 A 
ATOM     13  C   LIG    1       -2.296   3.654   0.781  0.00  0.00    +0.055 A 
ATOM     14 CL   LIG    1       -2.688   2.720   2.190  0.00  0.00    -0.083 Cl
ENDROOT
BRANCH   8  15
ATOM     15  C   LIG    1       -4.195   9.690  -2.726  0.00  0.00    +0.040 A 
ATOM     16  C   LIG    1       -5.091   8.912  -3.478  0.00  0.00    +0.060 A 
ATOM     17  C   LIG    1       -5.666   9.498  -4.611  0.00  0.00    +0.135 A 
ATOM     18  O   LIG    1       -6.547   8.897  -5.463  0.00  0.00    -0.463 OA
ATOM     19  C   LIG    1       -6.840   9.827  -6.416  0.00  0.00    +0.196 A 
ATOM     20  C   LIG    1       -6.169  11.021  -6.198  0.00  0.00    +0.049 A 
ATOM     21  C   LIG    1       -5.394  10.826  -5.012  0.00  0.00    +0.020 A 
ATOM     22  C   LIG    1       -4.513  11.595  -4.239  0.00  0.00    +0.012 A 
ATOM     23  C   LIG    1       -3.936  11.017  -3.104  0.00  0.00    +0.014 A 
ENDBRANCH   8  15
BRANCH   1  26
ATOM     24  N   LIG    1       -0.353   1.204   0.129  0.00  0.00    -0.298 N 
ATOM     25  H   LIG    1        0.239   1.903   0.551  0.00  0.00    +0.150 HD
ATOM     26  C   LIG    1       -1.506   1.594  -0.444  0.00  0.00    +0.248 C 
ATOM     27  O   LIG    1       -2.318   0.838  -0.978  0.00  0.00    -0.270 OA
BRANCH  24  28
ATOM     28  CA  LIG    1        0.132  -0.177   0.226  0.00  0.00    +0.186 C 
BRANCH  28  29
ATOM     29  C   LIG    1       -0.745  -1.044   1.160  0.00  0.00    +0.326 C 
ATOM     30  OXT LIG    1       -1.233  -2.101   0.820  0.00  0.00    -0.249 OA
BRANCH  29  31
ATOM     31  O   LIG    1       -0.875  -0.454   2.386  0.00  0.00    -0.479 OA
ATOM     32  H   LIG    1       -1.419  -0.973   2.982  0.00  0.00    +0.295 HD
ENDBRANCH  29  31
ENDBRANCH  28  29
BRANCH  28  33
ATOM     33  C   LIG    1        1.631  -0.210   0.632  0.00  0.00    +0.069 C 
BRANCH  33  36
ATOM     34  C   LIG    1        2.837  -3.532  -0.860  0.00  0.00    +0.088 A 
ATOM     35  C   LIG    1        2.222  -2.284  -0.728  0.00  0.00    +0.030 A 
ATOM     36  C   LIG    1        2.293  -1.581   0.482  0.00  0.00    -0.043 A 
ATOM     37  C   LIG    1        2.999  -2.137   1.554  0.00  0.00    +0.004 A 
ATOM     38  C   LIG    1        3.614  -3.382   1.425  0.00  0.00    +0.002 A 
ATOM     39  C   LIG    1        3.534  -4.080   0.220  0.00  0.00    +0.027 A 
BRANCH  34  41
ATOM     40  O   LIG    1        3.052  -5.818  -2.156  0.00  0.00    -0.170 OA
ATOM     41  S   LIG    1        2.741  -4.408  -2.418  0.00  0.00    -0.006 S 
ATOM     42  C   LIG    1        4.155  -3.658  -3.415  0.00  0.00    +0.200 C 
ATOM     43  O   LIG    1        1.473  -4.035  -3.054  0.00  0.00    -0.170 OA
ENDBRANCH  34  41
ENDBRANCH  33  36
ENDBRANCH  28  33
ENDBRANCH  24  28
ENDBRANCH   1  26
TORSDOF 8
