REMARK  Name = DB11775
REMARK                            x       y       z     vdW  Elec       q    Type
REMARK                         _______ _______ _______ _____ _____    ______ ____
ROOT
ATOM      1  C   LIG    1       -3.435   1.172   0.363  0.00  0.00    +0.151 A 
ATOM      2  N   LIG    1       -4.225   0.161   0.695  0.00  0.00    -0.158 NA
ATOM      3  N   LIG    1       -3.414  -0.882   0.925  0.00  0.00    -0.277 N 
ATOM      4  H   LIG    1       -3.760  -1.790   1.200  0.00  0.00    +0.189 HD
ATOM      5  C   LIG    1       -2.103  -0.555   0.745  0.00  0.00    +0.066 A 
ATOM      6  C   LIG    1       -0.738  -1.183   0.826  0.00  0.00    +0.075 C 
ATOM      7  C   LIG    1       -0.649  -2.349  -0.188  0.00  0.00    +0.038 C 
ATOM      8  C   LIG    1       -0.480  -1.660   2.276  0.00  0.00    +0.038 C 
ATOM      9  N   LIG    1        0.117  -0.015   0.441  0.00  0.00    -0.270 N 
ATOM     10  C   LIG    1        1.474   0.039   0.331  0.00  0.00    +0.304 C 
ATOM     11  N   LIG    1        2.125  -1.110   0.598  0.00  0.00    -0.294 N 
ATOM     12  H   LIG    1        1.563  -1.920   0.816  0.00  0.00    +0.151 HD
ATOM     13  O   LIG    1        2.076   1.063  -0.001  0.00  0.00    -0.253 OA
ATOM     14  C   LIG    1       -0.684   1.197   0.165  0.00  0.00    +0.150 C 
ATOM     15  C   LIG    1       -2.097   0.749   0.385  0.00  0.00    +0.034 A 
ENDROOT
BRANCH   1  16
ATOM     16  N   LIG    1       -3.876   2.441   0.047  0.00  0.00    -0.282 N 
ATOM     17  H   LIG    1       -3.189   3.131  -0.222  0.00  0.00    +0.155 HD
BRANCH  16  21
ATOM     18  C   LIG    1       -8.652   1.948   0.746  0.00  0.00    +0.088 C 
ATOM     19  C   LIG    1       -7.470   2.812   0.349  0.00  0.00    +0.129 A 
ATOM     20  N   LIG    1       -6.250   2.223   0.383  0.00  0.00    -0.216 NA
ATOM     21  C   LIG    1       -5.176   2.980   0.034  0.00  0.00    +0.142 A 
ATOM     22  C   LIG    1       -5.370   4.323  -0.343  0.00  0.00    +0.078 A 
ATOM     23  S   LIG    1       -4.211   5.555  -0.844  0.00  0.00    -0.092 S 
ATOM     24  C   LIG    1       -5.509   6.711  -1.036  0.00  0.00    +0.048 A 
ATOM     25  C   LIG    1       -6.758   6.205  -0.740  0.00  0.00    +0.036 A 
ATOM     26  C   LIG    1       -6.700   4.842  -0.343  0.00  0.00    +0.083 A 
ATOM     27  N   LIG    1       -7.754   4.093   0.002  0.00  0.00    -0.232 NA
ENDBRANCH  16  21
ENDBRANCH   1  16
BRANCH  11  28
ATOM     28  C   LIG    1        3.571  -1.356   0.489  0.00  0.00    +0.088 C 
BRANCH  28  29
ATOM     29  C   LIG    1        4.062  -2.307   1.585  0.00  0.00    -0.029 A 
ATOM     30  C   LIG    1        3.297  -3.416   1.976  0.00  0.00    +0.005 A 
ATOM     31  C   LIG    1        3.749  -4.260   2.986  0.00  0.00    +0.000 A 
ATOM     32  C   LIG    1        4.967  -3.998   3.610  0.00  0.00    +0.000 A 
ATOM     33  C   LIG    1        5.736  -2.901   3.231  0.00  0.00    +0.000 A 
ATOM     34  C   LIG    1        5.284  -2.057   2.220  0.00  0.00    +0.005 A 
ENDBRANCH  28  29
BRANCH  28  35
ATOM     35  C   LIG    1        3.970  -1.904  -0.906  0.00  0.00    -0.052 C 
BRANCH  35  36
ATOM     36  N   LIG    1        3.730  -0.880  -2.042  0.00  0.00    +0.377 N 
ATOM     37  H   LIG    1        2.808  -0.491  -1.897  0.00  0.00    -0.083 HD
ATOM     38  C   LIG    1        3.710  -1.564  -3.423  0.00  0.00    -0.097 C 
ATOM     39  C   LIG    1        4.731   0.293  -2.031  0.00  0.00    -0.097 C 
ENDBRANCH  35  36
ENDBRANCH  28  35
ENDBRANCH  11  28
TORSDOF 6
