REMARK  Name = DB11179
REMARK                            x       y       z     vdW  Elec       q    Type
REMARK                         _______ _______ _______ _____ _____    ______ ____
ROOT
ATOM      1  C   LIG    1        1.545  -0.120  -0.004  0.00  0.00    -0.010 C 
ATOM      2  C   LIG    1        2.022  -1.567  -0.285  0.00  0.00    +0.013 C 
ATOM      3  C   LIG    1        2.172   0.360   1.332  0.00  0.00    +0.013 C 
ENDROOT
BRANCH   1   4
ATOM      4  C   LIG    1       -0.007  -0.159   0.116  0.00  0.00    +0.089 C 
BRANCH   4   5
ATOM      5  N   LIG    1       -0.591   1.150   0.413  0.00  0.00    -0.308 NA
ATOM      6  H   LIG    1       -0.194   1.491   1.277  0.00  0.00    +0.123 HD
BRANCH   5   7
ATOM      7  C   LIG    1       -2.051   1.136   0.530  0.00  0.00    +0.098 C 
ATOM      8  C   LIG    1       -2.677   1.028  -0.883  0.00  0.00    +0.030 C 
BRANCH   7  10
ATOM      9  N   LIG    1       -3.289   2.206   2.307  0.00  0.00    -0.095 NA
ATOM     10  C   LIG    1       -2.559   2.380   1.272  0.00  0.00    +0.071 C 
ATOM     11  C   LIG    1       -2.127   3.728   0.663  0.00  0.00    +0.066 C 
BRANCH   9  12
ATOM     12  O   LIG    1       -3.720   3.388   2.933  0.00  0.00    -0.409 OA
ATOM     13  H   LIG    1       -4.238   3.049   3.667  0.00  0.00    +0.328 HD
ENDBRANCH   9  12
ENDBRANCH   7  10
ENDBRANCH   5   7
ENDBRANCH   4   5
ENDBRANCH   1   4
BRANCH   1  14
ATOM     14  C   LIG    1        1.954   0.819  -1.179  0.00  0.00    +0.089 C 
BRANCH  14  15
ATOM     15  N   LIG    1        3.403   0.881  -1.388  0.00  0.00    -0.308 NA
ATOM     16  H   LIG    1        3.738  -0.055  -1.567  0.00  0.00    +0.123 HD
BRANCH  15  17
ATOM     17  C   LIG    1        3.807   1.752  -2.496  0.00  0.00    +0.098 C 
ATOM     18  C   LIG    1        5.308   1.489  -2.748  0.00  0.00    +0.030 C 
BRANCH  17  19
ATOM     19  C   LIG    1        3.532   3.249  -2.264  0.00  0.00    +0.071 C 
ATOM     20  N   LIG    1        2.924   3.899  -3.181  0.00  0.00    -0.095 NA
ATOM     21  C   LIG    1        4.048   3.804  -0.923  0.00  0.00    +0.066 C 
BRANCH  20  22
ATOM     22  O   LIG    1        2.711   5.258  -2.899  0.00  0.00    -0.409 OA
ATOM     23  H   LIG    1        2.254   5.558  -3.688  0.00  0.00    +0.328 HD
ENDBRANCH  20  22
ENDBRANCH  17  19
ENDBRANCH  15  17
ENDBRANCH  14  15
ENDBRANCH   1  14
TORSDOF 10
