REMARK  Name = DB11104
REMARK                            x       y       z     vdW  Elec       q    Type
REMARK                         _______ _______ _______ _____ _____    ______ ____
ROOT
ATOM      1  F   LIG    1       -0.509   0.689  -1.373  0.00  0.00    -0.072 F 
ATOM      2  S   LIG    1        0.000   0.000   0.000  0.00  0.00    +0.433 S 
ATOM      3  F   LIG    1        1.424  -0.329  -0.694  0.00  0.00    -0.072 F 
ATOM      4  F   LIG    1       -1.424   0.329   0.694  0.00  0.00    -0.072 F 
ATOM      5  F   LIG    1        0.509  -0.689   1.373  0.00  0.00    -0.072 F 
ATOM      6  F   LIG    1       -0.575  -1.427  -0.502  0.00  0.00    -0.072 F 
ATOM      7  F   LIG    1        0.575   1.427   0.503  0.00  0.00    -0.072 F 
ENDROOT
TORSDOF 0
