REMARK  Name = DB11616
REMARK                            x       y       z     vdW  Elec       q    Type
REMARK                         _______ _______ _______ _____ _____    ______ ____
ROOT
ATOM      1  C   LIG    1       -0.055   0.128   0.400  0.00  0.00    +0.158 C 
ATOM      2  C   LIG    1       -0.246  -0.663  -0.916  0.00  0.00    +0.030 A 
ATOM      3  C   LIG    1        0.421  -1.883  -1.117  0.00  0.00    +0.134 A 
ATOM      4  C   LIG    1        0.346  -2.587  -2.341  0.00  0.00    +0.078 A 
ATOM      5  C   LIG    1        1.106  -3.886  -2.552  0.00  0.00    +0.202 C 
ATOM      6  O   LIG    1        2.020  -4.234  -1.802  0.00  0.00    -0.286 OA
ATOM      7  C   LIG    1        0.585  -4.804  -3.632  0.00  0.00    +0.075 A 
ATOM      8  C   LIG    1        0.872  -6.193  -3.633  0.00  0.00    +0.132 A 
ATOM      9  C   LIG    1        0.377  -6.995  -4.675  0.00  0.00    +0.046 A 
ATOM     10  C   LIG    1       -0.393  -6.451  -5.693  0.00  0.00    +0.004 A 
ATOM     11  C   LIG    1       -0.686  -5.096  -5.688  0.00  0.00    +0.012 A 
ATOM     12  C   LIG    1       -0.211  -4.259  -4.669  0.00  0.00    +0.037 A 
ATOM     13  C   LIG    1       -0.571  -2.803  -4.700  0.00  0.00    +0.198 C 
ATOM     14  O   LIG    1       -1.064  -2.298  -5.712  0.00  0.00    -0.286 OA
ATOM     15  C   LIG    1       -0.457  -2.058  -3.383  0.00  0.00    +0.078 A 
ATOM     16  C   LIG    1       -1.154  -0.848  -3.159  0.00  0.00    +0.132 A 
ATOM     17  C   LIG    1       -1.051  -0.147  -1.947  0.00  0.00    +0.007 A 
ATOM     18  C   LIG    1       -1.826   1.160  -1.703  0.00  0.00    +0.082 C 
ATOM     19  C   LIG    1       -2.321   1.303  -0.238  0.00  0.00    +0.133 C 
ATOM     20  C   LIG    1       -1.083   1.262   0.688  0.00  0.00    +0.079 C 
ENDROOT
BRANCH   3  21
ATOM     21  O   LIG    1        1.142  -2.380  -0.054  0.00  0.00    -0.506 OA
ATOM     22  H   LIG    1        1.111  -1.811   0.718  0.00  0.00    +0.292 HD
ENDBRANCH   3  21
BRANCH   8  23
ATOM     23  O   LIG    1        1.627  -6.727  -2.599  0.00  0.00    -0.494 OA
ATOM     24  C   LIG    1        1.921  -8.120  -2.565  0.00  0.00    +0.277 C 
ENDBRANCH   8  23
BRANCH  16  25
ATOM     25  O   LIG    1       -1.966  -0.306  -4.130  0.00  0.00    -0.506 OA
ATOM     26  H   LIG    1       -2.387   0.511  -3.853  0.00  0.00    +0.292 HD
ENDBRANCH  16  25
BRANCH  19  27
ATOM     27  O   LIG    1       -2.958   2.563  -0.104  0.00  0.00    -0.381 OA
ATOM     28  H   LIG    1       -3.200   2.690   0.816  0.00  0.00    +0.211 HD
ENDBRANCH  19  27
BRANCH  19  29
ATOM     29  C   LIG    1       -3.378   0.232   0.174  0.00  0.00    +0.190 C 
ATOM     30  O   LIG    1       -3.617  -0.743  -0.544  0.00  0.00    -0.292 OA
BRANCH  29  31
ATOM     31  C   LIG    1       -4.120   0.439   1.512  0.00  0.00    +0.233 C 
BRANCH  31  32
ATOM     32  O   LIG    1       -5.058  -0.599   1.735  0.00  0.00    -0.387 OA
ATOM     33  H   LIG    1       -4.586  -1.435   1.774  0.00  0.00    +0.210 HD
ENDBRANCH  31  32
ENDBRANCH  29  31
ENDBRANCH  19  29
BRANCH   1  34
ATOM     34  O   LIG    1        1.297   0.569   0.599  0.00  0.00    -0.343 OA
BRANCH  34  38
ATOM     35  C   LIG    1        3.865  -0.854  -2.497  0.00  0.00    +0.040 C 
ATOM     36  C   LIG    1        3.507  -0.125  -1.193  0.00  0.00    +0.145 C 
ATOM     37  O   LIG    1        2.381   0.725  -1.466  0.00  0.00    -0.346 OA
ATOM     38  C   LIG    1        1.853   1.429  -0.364  0.00  0.00    +0.250 C 
ATOM     39  C   LIG    1        2.937   2.280   0.312  0.00  0.00    +0.048 C 
ATOM     40  C   LIG    1        4.172   1.424   0.644  0.00  0.00    -0.038 C 
ATOM     41  C   LIG    1        4.684   0.687  -0.607  0.00  0.00    +0.136 C 
BRANCH  40  42
ATOM     42  N   LIG    1        5.278   2.348   1.183  0.00  0.00    +0.382 N 
ATOM     43  H   LIG    1        4.966   2.818   2.021  0.00  0.00    -0.090 HD
ATOM     44  H   LIG    1        6.103   1.806   1.399  0.00  0.00    -0.090 HD
ATOM     45  H   LIG    1        5.521   3.040   0.489  0.00  0.00    -0.090 HD
ENDBRANCH  40  42
BRANCH  41  46
ATOM     46  O   LIG    1        5.774  -0.172  -0.254  0.00  0.00    -0.347 OA
BRANCH  46  47
ATOM     47  C   LIG    1        6.916  -0.094  -1.054  0.00  0.00    +0.250 C 
ATOM     48  O   LIG    1        7.556   1.149  -0.883  0.00  0.00    -0.351 OA
ATOM     49  C   LIG    1        8.726   1.294  -1.699  0.00  0.00    +0.163 C 
ATOM     50  C   LIG    1        9.768   0.192  -1.425  0.00  0.00    +0.028 C 
ATOM     51  C   LIG    1        9.125  -1.200  -1.459  0.00  0.00    +0.007 C 
ATOM     52  C   LIG    1        7.851  -1.217  -0.601  0.00  0.00    +0.061 C 
ENDBRANCH  46  47
ENDBRANCH  41  46
ENDBRANCH  34  38
ENDBRANCH   1  34
TORSDOF 12
