REMARK  Name = DB11740
REMARK                            x       y       z     vdW  Elec       q    Type
REMARK                         _______ _______ _______ _____ _____    ______ ____
ROOT
ATOM      1  N   LIG    1        0.799  -0.655  -0.649  0.00  0.00    -0.213 N 
ATOM      2  N   LIG    1        1.203  -1.369  -1.817  0.00  0.00    -0.238 N 
ATOM      3  C   LIG    1        2.357  -2.057  -1.635  0.00  0.00    +0.279 A 
ATOM      4  O   LIG    1        2.955  -2.778  -2.434  0.00  0.00    -0.265 OA
ATOM      5  C   LIG    1        2.761  -1.661  -0.260  0.00  0.00    +0.103 A 
ATOM      6  C   LIG    1        3.860  -1.988   0.534  0.00  0.00    +0.131 A 
ATOM      7  N   LIG    1        3.987  -1.483   1.795  0.00  0.00    -0.222 NA
ATOM      8  C   LIG    1        2.993  -0.657   2.246  0.00  0.00    +0.221 A 
ATOM      9  N   LIG    1        1.896  -0.287   1.528  0.00  0.00    -0.194 NA
ATOM     10  C   LIG    1        1.830  -0.803   0.274  0.00  0.00    +0.172 A 
ENDROOT
BRANCH   1  13
ATOM     11  C   LIG    1       -1.938   1.262   0.723  0.00  0.00    +0.075 A 
ATOM     12  N   LIG    1       -0.688   0.806   0.433  0.00  0.00    -0.230 NA
ATOM     13  C   LIG    1       -0.527  -0.229  -0.436  0.00  0.00    +0.155 A 
ATOM     14  C   LIG    1       -1.637  -0.852  -1.028  0.00  0.00    +0.048 A 
ATOM     15  C   LIG    1       -2.918  -0.384  -0.736  0.00  0.00    +0.005 A 
ATOM     16  C   LIG    1       -3.078   0.685   0.146  0.00  0.00    +0.026 A 
BRANCH  11  18
ATOM     17  C   LIG    1       -1.387   2.048   3.078  0.00  0.00    +0.048 C 
ATOM     18  C   LIG    1       -2.005   2.438   1.716  0.00  0.00    +0.102 C 
ATOM     19  C   LIG    1       -1.309   3.688   1.133  0.00  0.00    +0.048 C 
BRANCH  18  20
ATOM     20  O   LIG    1       -3.335   2.842   2.004  0.00  0.00    -0.383 OA
ATOM     21  H   LIG    1       -3.301   3.576   2.622  0.00  0.00    +0.211 HD
ENDBRANCH  18  20
ENDBRANCH  11  18
ENDBRANCH   1  13
BRANCH   8  22
ATOM     22  N   LIG    1        3.072  -0.097   3.530  0.00  0.00    -0.284 N 
ATOM     23  H   LIG    1        2.328   0.556   3.729  0.00  0.00    +0.155 HD
BRANCH  22  24
ATOM     24  C   LIG    1        3.968  -0.288   4.595  0.00  0.00    +0.034 A 
ATOM     25  C   LIG    1        4.670  -1.481   4.792  0.00  0.00    +0.025 A 
ATOM     26  C   LIG    1        5.534  -1.614   5.875  0.00  0.00    +0.025 A 
ATOM     27  C   LIG    1        5.709  -0.565   6.787  0.00  0.00    +0.030 A 
ATOM     28  C   LIG    1        4.987   0.621   6.590  0.00  0.00    +0.025 A 
ATOM     29  C   LIG    1        4.123   0.755   5.507  0.00  0.00    +0.025 A 
BRANCH  27  30
ATOM     30  N   LIG    1        6.590  -0.727   7.855  0.00  0.00    -0.333 N 
ATOM     31  C   LIG    1        6.545   0.115   9.066  0.00  0.00    +0.086 C 
ATOM     32  C   LIG    1        7.425   1.386   8.978  0.00  0.00    -0.060 C 
ATOM     33  N   LIG    1        8.883   0.963   8.710  0.00  0.00    +0.380 N 
ATOM     34  H   LIG    1        9.196   0.384   9.477  0.00  0.00    -0.082 HD
ATOM     35  C   LIG    1        9.797   2.197   8.590  0.00  0.00    -0.096 C 
ATOM     36  C   LIG    1        8.922   0.125   7.417  0.00  0.00    -0.060 C 
ATOM     37  C   LIG    1        7.994  -1.098   7.597  0.00  0.00    +0.086 C 
ENDBRANCH  27  30
ENDBRANCH  22  24
ENDBRANCH   8  22
BRANCH   2  38
ATOM     38  C   LIG    1        0.802  -0.942  -3.173  0.00  0.00    +0.172 C 
BRANCH  38  39
ATOM     39  C   LIG    1        1.590   0.253  -3.687  0.00  0.00    -0.011 C 
ATOM     40  C   LIG    1        2.321   0.261  -4.811  0.00  0.00    +0.006 C 
ENDBRANCH  38  39
ENDBRANCH   2  38
TORSDOF 8
