REMARK  Name = DB11904
REMARK                            x       y       z     vdW  Elec       q    Type
REMARK                         _______ _______ _______ _____ _____    ______ ____
ROOT
ATOM      1  N   LIG    1        1.395  -0.094   0.131  0.00  0.00    -0.280 N 
ATOM      2  H   LIG    1        1.706   0.731   0.622  0.00  0.00    +0.155 HD
ATOM      3  C   LIG    1        2.366  -0.908  -0.343  0.00  0.00    +0.248 C 
ATOM      4  O   LIG    1        2.155  -1.913  -1.025  0.00  0.00    -0.270 OA
ENDROOT
BRANCH   1   9
ATOM      5  C   LIG    1       -4.285  -0.046  -0.086  0.00  0.00    +0.067 C 
ATOM      6  C   LIG    1       -2.766  -0.171  -0.072  0.00  0.00    +0.059 A 
ATOM      7  N   LIG    1       -2.110   0.941   0.349  0.00  0.00    -0.256 NA
ATOM      8  C   LIG    1       -0.756   0.911   0.388  0.00  0.00    +0.134 A 
ATOM      9  C   LIG    1       -0.004  -0.205   0.018  0.00  0.00    +0.054 A 
ATOM     10  C   LIG    1       -0.701  -1.351  -0.405  0.00  0.00    +0.050 A 
ATOM     11  C   LIG    1       -2.103  -1.346  -0.470  0.00  0.00    +0.057 A 
BRANCH  11  12
ATOM     12  N   LIG    1       -2.861  -2.463  -0.880  0.00  0.00    -0.282 N 
ATOM     13  H   LIG    1       -3.842  -2.384  -0.652  0.00  0.00    +0.155 HD
BRANCH  12  14
ATOM     14  C   LIG    1       -2.549  -3.670  -1.525  0.00  0.00    +0.220 A 
ATOM     15  N   LIG    1       -3.564  -4.571  -1.576  0.00  0.00    -0.214 NA
ATOM     16  C   LIG    1       -3.338  -5.754  -2.219  0.00  0.00    +0.077 A 
ATOM     17  C   LIG    1       -2.093  -6.026  -2.804  0.00  0.00    +0.048 A 
ATOM     18  C   LIG    1       -1.109  -5.041  -2.710  0.00  0.00    +0.116 A 
ATOM     19  N   LIG    1       -1.322  -3.858  -2.079  0.00  0.00    -0.223 NA
BRANCH  16  20
ATOM     20  C   LIG    1       -4.472  -6.729  -2.247  0.00  0.00    +0.019 A 
ATOM     21  C   LIG    1       -5.488  -6.717  -1.275  0.00  0.00    +0.120 A 
ATOM     22  N   LIG    1       -6.535  -7.581  -1.263  0.00  0.00    -0.263 NA
ATOM     23  C   LIG    1       -6.601  -8.507  -2.249  0.00  0.00    +0.111 A 
ATOM     24  C   LIG    1       -5.647  -8.603  -3.260  0.00  0.00    +0.020 A 
ATOM     25  C   LIG    1       -4.578  -7.705  -3.252  0.00  0.00    +0.013 A 
ENDBRANCH  16  20
ENDBRANCH  12  14
ENDBRANCH  11  12
ENDBRANCH   1   9
BRANCH   3  26
ATOM     26  C   LIG    1        3.792  -0.508  -0.008  0.00  0.00    +0.038 A 
ATOM     27  C   LIG    1        4.868  -1.236  -0.538  0.00  0.00    +0.025 A 
ATOM     28  C   LIG    1        6.203  -0.909  -0.254  0.00  0.00    +0.057 A 
ATOM     29  C   LIG    1        6.468   0.196   0.585  0.00  0.00    -0.052 A 
ATOM     30  C   LIG    1        5.399   0.918   1.124  0.00  0.00    +0.003 A 
ATOM     31  C   LIG    1        4.083   0.576   0.833  0.00  0.00    +0.013 A 
BRANCH  28  32
ATOM     32  C   LIG    1        7.327  -1.765  -0.856  0.00  0.00    +0.418 C 
ATOM     33  F   LIG    1        8.050  -2.315   0.120  0.00  0.00    -0.166 F 
ATOM     34  F   LIG    1        8.122  -1.012  -1.615  0.00  0.00    -0.166 F 
ATOM     35  F   LIG    1        6.869  -2.757  -1.622  0.00  0.00    -0.166 F 
ENDBRANCH  28  32
BRANCH  29  36
ATOM     36  C   LIG    1        7.883   0.644   0.961  0.00  0.00    -0.042 C 
BRANCH  36  37
ATOM     37  N   LIG    1        8.250   2.068   0.480  0.00  0.00    +0.384 N 
ATOM     38  H   LIG    1        7.536   2.712   0.790  0.00  0.00    -0.081 HD
ATOM     39  C   LIG    1        9.598   2.524   1.088  0.00  0.00    -0.063 C 
ATOM     40  C   LIG    1        9.916   3.954   0.585  0.00  0.00    +0.065 C 
ATOM     41  N   LIG    1        9.965   4.044  -0.880  0.00  0.00    -0.309 NA
ATOM     42  C   LIG    1       11.144   3.411  -1.470  0.00  0.00    +0.104 C 
ATOM     43  C   LIG    1        8.697   3.595  -1.469  0.00  0.00    +0.065 C 
ATOM     44  C   LIG    1        8.330   2.147  -1.063  0.00  0.00    -0.063 C 
ENDBRANCH  36  37
ENDBRANCH  29  36
ENDBRANCH   3  26
TORSDOF 8
