REMARK  Name = DB11186
REMARK                            x       y       z     vdW  Elec       q    Type
REMARK                         _______ _______ _______ _____ _____    ______ ____
ROOT
ATOM      1  C   LIG    1       -3.839   0.921  -1.284  0.00  0.00    +0.318 C 
ATOM      2  O   LIG    1       -4.803   1.203  -0.566  0.00  0.00    -0.250 OA
ENDROOT
BRANCH   1   3
ATOM      3  C   LIG    1       -3.955   0.025  -2.565  0.00  0.00    +0.093 C 
ATOM      4  C   LIG    1       -3.728   0.979  -3.795  0.00  0.00    +0.023 C 
ATOM      5  C   LIG    1       -4.973   0.865  -4.683  0.00  0.00    +0.001 C 
ATOM      6  C   LIG    1       -6.096   0.524  -3.709  0.00  0.00    +0.001 C 
ATOM      7  C   LIG    1       -5.428  -0.461  -2.749  0.00  0.00    +0.023 C 
BRANCH   3   8
ATOM      8  C   LIG    1       -2.996  -1.203  -2.480  0.00  0.00    -0.031 A 
ATOM      9  C   LIG    1       -2.585  -1.765  -1.255  0.00  0.00    +0.005 A 
ATOM     10  C   LIG    1       -1.752  -2.879  -1.222  0.00  0.00    +0.000 A 
ATOM     11  C   LIG    1       -1.327  -3.459  -2.412  0.00  0.00    +0.000 A 
ATOM     12  C   LIG    1       -1.743  -2.942  -3.634  0.00  0.00    +0.000 A 
ATOM     13  C   LIG    1       -2.579  -1.830  -3.665  0.00  0.00    +0.005 A 
ENDBRANCH   3   8
ENDBRANCH   1   3
BRANCH   1  14
ATOM     14  O   LIG    1       -2.570   1.341  -1.075  0.00  0.00    -0.462 OA
BRANCH  14  15
ATOM     15  C   LIG    1       -2.214   2.087   0.082  0.00  0.00    +0.260 C 
BRANCH  15  16
ATOM     16  C   LIG    1       -0.702   1.974   0.303  0.00  0.00    +0.201 C 
BRANCH  16  17
ATOM     17  O   LIG    1       -0.399   0.618   0.600  0.00  0.00    -0.375 OA
BRANCH  17  18
ATOM     18  C   LIG    1        0.982   0.296   0.536  0.00  0.00    +0.175 C 
BRANCH  18  19
ATOM     19  C   LIG    1        1.137  -1.214   0.812  0.00  0.00    +0.112 C 
BRANCH  19  20
ATOM     20  N   LIG    1        2.320  -1.809   0.176  0.00  0.00    -0.301 NA
BRANCH  20  21
ATOM     21  C   LIG    1        2.248  -3.277   0.245  0.00  0.00    +0.081 C 
ATOM     22  C   LIG    1        2.588  -3.906  -1.116  0.00  0.00    +0.020 C 
ENDBRANCH  20  21
BRANCH  20  23
ATOM     23  C   LIG    1        3.560  -1.268   0.758  0.00  0.00    +0.081 C 
ATOM     24  C   LIG    1        4.843  -1.720   0.037  0.00  0.00    +0.020 C 
ENDBRANCH  20  23
ENDBRANCH  19  20
ENDBRANCH  18  19
ENDBRANCH  17  18
ENDBRANCH  16  17
ENDBRANCH  15  16
ENDBRANCH  14  15
ENDBRANCH   1  14
TORSDOF 11
