REMARK  Name = DB11184
REMARK                            x       y       z     vdW  Elec       q    Type
REMARK                         _______ _______ _______ _____ _____    ______ ____
ROOT
ATOM      1  C   LIG    1       -1.101   6.019   1.292  0.00  0.00    +0.001 A 
ATOM      2  C   LIG    1       -1.155   5.851  -0.095  0.00  0.00    +0.015 A 
ATOM      3  C   LIG    1       -1.748   4.701  -0.617  0.00  0.00    +0.067 A 
ATOM      4  C   LIG    1       -1.940   4.258  -2.013  0.00  0.00    +0.341 C 
ATOM      5  O   LIG    1       -2.571   3.053  -1.976  0.00  0.00    -0.440 OA
ATOM      6  C   LIG    1       -2.843   2.630  -0.645  0.00  0.00    +0.196 C 
ATOM      7  C   LIG    1       -4.372   2.489  -0.520  0.00  0.00    +0.048 A 
ATOM      8  C   LIG    1       -5.226   3.563  -0.236  0.00  0.00    +0.020 A 
ATOM      9  C   LIG    1       -6.596   3.380  -0.020  0.00  0.00    +0.009 A 
ATOM     10  C   LIG    1       -7.138   2.090  -0.113  0.00  0.00    +0.125 A 
ATOM     11  C   LIG    1       -6.311   1.009  -0.416  0.00  0.00    +0.092 A 
ATOM     12  C   LIG    1       -4.949   1.214  -0.627  0.00  0.00    +0.140 A 
ATOM     13  O   LIG    1       -4.191   0.099  -0.905  0.00  0.00    -0.455 OA
ATOM     14  C   LIG    1       -2.860   0.094  -0.556  0.00  0.00    +0.140 A 
ATOM     15  C   LIG    1       -2.290  -1.147  -0.280  0.00  0.00    +0.092 A 
ATOM     16  C   LIG    1       -0.953  -1.228   0.107  0.00  0.00    +0.125 A 
ATOM     17  C   LIG    1       -0.188  -0.059   0.222  0.00  0.00    +0.009 A 
ATOM     18  C   LIG    1       -0.778   1.177  -0.065  0.00  0.00    +0.020 A 
ATOM     19  C   LIG    1       -2.124   1.284  -0.439  0.00  0.00    +0.048 A 
ATOM     20  O   LIG    1       -1.621   4.809  -3.065  0.00  0.00    -0.245 OA
ATOM     21  C   LIG    1       -2.280   3.735   0.218  0.00  0.00    +0.019 A 
ATOM     22  C   LIG    1       -2.226   3.896   1.605  0.00  0.00    +0.009 A 
ATOM     23  C   LIG    1       -1.635   5.043   2.139  0.00  0.00    +0.000 A 
ENDROOT
BRANCH  10  24
ATOM     24  O   LIG    1       -8.474   1.859   0.099  0.00  0.00    -0.506 OA
ATOM     25  H   LIG    1       -8.712   0.934   0.006  0.00  0.00    +0.292 HD
ENDBRANCH  10  24
BRANCH  16  26
ATOM     26  O   LIG    1       -0.419  -2.461   0.385  0.00  0.00    -0.506 OA
ATOM     27  H   LIG    1       -1.049  -3.176   0.266  0.00  0.00    +0.292 HD
ENDBRANCH  16  26
BRANCH   9  28
ATOM     28  C   LIG    1       -7.460   4.595   0.317  0.00  0.00    +0.124 C 
BRANCH  28  29
ATOM     29  N   LIG    1       -7.042   5.318   1.542  0.00  0.00    -0.278 NA
BRANCH  29  30
ATOM     30  C   LIG    1       -7.529   4.566   2.727  0.00  0.00    +0.206 C 
BRANCH  30  31
ATOM     31  C   LIG    1       -6.586   3.423   3.149  0.00  0.00    +0.319 C 
ATOM     32  O   LIG    1       -5.372   3.414   2.953  0.00  0.00    -0.250 OA
BRANCH  31  33
ATOM     33  O   LIG    1       -7.266   2.454   3.826  0.00  0.00    -0.480 OA
ATOM     34  H   LIG    1       -6.689   1.745   4.118  0.00  0.00    +0.295 HD
ENDBRANCH  31  33
ENDBRANCH  30  31
ENDBRANCH  29  30
BRANCH  29  35
ATOM     35  C   LIG    1       -7.760   6.609   1.474  0.00  0.00    +0.206 C 
BRANCH  35  36
ATOM     36  C   LIG    1       -7.200   7.646   2.470  0.00  0.00    +0.319 C 
ATOM     37  O   LIG    1       -6.197   7.486   3.166  0.00  0.00    -0.250 OA
BRANCH  36  38
ATOM     38  O   LIG    1       -7.959   8.778   2.459  0.00  0.00    -0.480 OA
ATOM     39  H   LIG    1       -7.625   9.444   3.065  0.00  0.00    +0.295 HD
ENDBRANCH  36  38
ENDBRANCH  35  36
ENDBRANCH  29  35
ENDBRANCH  28  29
ENDBRANCH   9  28
BRANCH  17  40
ATOM     40  C   LIG    1        1.272  -0.090   0.667  0.00  0.00    +0.124 C 
BRANCH  40  41
ATOM     41  N   LIG    1        1.531   0.664   1.921  0.00  0.00    -0.278 NA
BRANCH  41  42
ATOM     42  C   LIG    1        2.991   0.892   1.982  0.00  0.00    +0.206 C 
BRANCH  42  43
ATOM     43  C   LIG    1        3.442   2.047   1.064  0.00  0.00    +0.319 C 
ATOM     44  O   LIG    1        4.442   1.974   0.355  0.00  0.00    -0.250 OA
BRANCH  43  45
ATOM     45  O   LIG    1        2.645   3.152   1.167  0.00  0.00    -0.480 OA
ATOM     46  H   LIG    1        2.940   3.870   0.603  0.00  0.00    +0.295 HD
ENDBRANCH  43  45
ENDBRANCH  42  43
ENDBRANCH  41  42
BRANCH  41  47
ATOM     47  C   LIG    1        1.183  -0.200   3.073  0.00  0.00    +0.206 C 
BRANCH  47  48
ATOM     48  C   LIG    1       -0.323  -0.195   3.402  0.00  0.00    +0.319 C 
ATOM     49  O   LIG    1       -1.088   0.736   3.156  0.00  0.00    -0.250 OA
BRANCH  48  50
ATOM     50  O   LIG    1       -0.680  -1.335   4.061  0.00  0.00    -0.480 OA
ATOM     51  H   LIG    1       -1.611  -1.343   4.294  0.00  0.00    +0.295 HD
ENDBRANCH  48  50
ENDBRANCH  47  48
ENDBRANCH  41  47
ENDBRANCH  40  41
ENDBRANCH  17  40
TORSDOF 18
