REMARK  Name = DB11823
REMARK                            x       y       z     vdW  Elec       q    Type
REMARK                         _______ _______ _______ _____ _____    ______ ____
ROOT
ATOM      1  C   LIG    1       -0.014   0.018  -0.043  0.00  0.00    +0.104 C 
ATOM      2  C   LIG    1       -0.604   1.476   0.031  0.00  0.00    +0.035 C 
ATOM      3  C   LIG    1       -0.250   2.251   1.321  0.00  0.00    +0.003 C 
ATOM      4  C   LIG    1       -0.682   1.467   2.574  0.00  0.00    +0.008 C 
ATOM      5  C   LIG    1       -0.194   0.002   2.572  0.00  0.00    +0.076 C 
ATOM      6  C   LIG    1       -0.540  -0.704   1.246  0.00  0.00    +0.158 C 
ATOM      7  O   LIG    1       -1.242  -1.717   1.240  0.00  0.00    -0.295 OA
ENDROOT
BRANCH   1   8
ATOM      8  C   LIG    1       -0.485  -0.796  -1.302  0.00  0.00    -0.002 A 
ATOM      9  C   LIG    1       -0.002  -2.099  -1.598  0.00  0.00    +0.046 A 
ATOM     10 CL   LIG    1        1.138  -2.941  -0.598  0.00  0.00    -0.083 Cl
ATOM     11  C   LIG    1       -0.439  -2.778  -2.737  0.00  0.00    +0.020 A 
ATOM     12  C   LIG    1       -1.350  -2.192  -3.608  0.00  0.00    +0.001 A 
ATOM     13  C   LIG    1       -1.828  -0.915  -3.346  0.00  0.00    +0.000 A 
ATOM     14  C   LIG    1       -1.399  -0.228  -2.213  0.00  0.00    +0.007 A 
ENDBRANCH   1   8
BRANCH   1  15
ATOM     15  N   LIG    1        1.452   0.048   0.104  0.00  0.00    -0.304 NA
ATOM     16  H   LIG    1        1.689   0.551   0.947  0.00  0.00    +0.123 HD
ATOM     17  C   LIG    1        2.175   0.640  -1.016  0.00  0.00    +0.102 C 
ENDBRANCH   1  15
TORSDOF 2
