REMARK  Name = DB11778
REMARK                            x       y       z     vdW  Elec       q    Type
REMARK                         _______ _______ _______ _____ _____    ______ ____
ROOT
ATOM      1  C   LIG    1        1.598  -0.003   0.167  0.00  0.00    +0.152 A 
ATOM      2  N   LIG    1        2.295  -1.118   0.031  0.00  0.00    -0.158 NA
ATOM      3  N   LIG    1        3.584  -0.748   0.064  0.00  0.00    -0.278 N 
ATOM      4  H   LIG    1        4.343  -1.410  -0.020  0.00  0.00    +0.189 HD
ATOM      5  C   LIG    1        3.723   0.597   0.235  0.00  0.00    +0.060 A 
ATOM      6  C   LIG    1        4.797   1.629   0.368  0.00  0.00    +0.163 C 
ATOM      7  N   LIG    1        4.002   2.855   0.541  0.00  0.00    -0.289 N 
ATOM      8  C   LIG    1        4.511   4.103   0.690  0.00  0.00    +0.250 C 
ATOM      9  O   LIG    1        3.782   5.089   0.824  0.00  0.00    -0.272 OA
ATOM     10  C   LIG    1        2.550   2.594   0.510  0.00  0.00    +0.148 C 
ATOM     11  C   LIG    1        2.467   1.104   0.308  0.00  0.00    +0.034 A 
ENDROOT
BRANCH   1  13
ATOM     12  C   LIG    1       -0.665   0.943   0.124  0.00  0.00    +0.249 C 
ATOM     13  N   LIG    1        0.215  -0.083   0.194  0.00  0.00    -0.265 N 
ATOM     14  H   LIG    1       -0.166  -1.018   0.185  0.00  0.00    +0.157 HD
ATOM     15  O   LIG    1       -0.339   2.127   0.019  0.00  0.00    -0.270 OA
BRANCH  12  19
ATOM     16  C   LIG    1       -4.889  -0.091   0.337  0.00  0.00    +0.030 A 
ATOM     17  C   LIG    1       -3.916  -1.083   0.144  0.00  0.00    +0.024 A 
ATOM     18  C   LIG    1       -2.562  -0.765   0.077  0.00  0.00    +0.015 A 
ATOM     19  C   LIG    1       -2.133   0.565   0.190  0.00  0.00    +0.037 A 
ATOM     20  C   LIG    1       -3.101   1.563   0.355  0.00  0.00    +0.015 A 
ATOM     21  C   LIG    1       -4.453   1.241   0.420  0.00  0.00    +0.024 A 
BRANCH  16  27
ATOM     22  C   LIG    1       -8.337  -0.138   4.230  0.00  0.00    -0.096 C 
ATOM     23  N   LIG    1       -8.062  -0.391   2.735  0.00  0.00    +0.380 N 
ATOM     24  H   LIG    1       -8.908  -0.712   2.285  0.00  0.00    -0.082 HD
ATOM     25  C   LIG    1       -7.600   0.904   2.036  0.00  0.00    -0.060 C 
ATOM     26  C   LIG    1       -7.318   0.580   0.551  0.00  0.00    +0.086 C 
ATOM     27  N   LIG    1       -6.249  -0.424   0.378  0.00  0.00    -0.333 N 
ATOM     28  C   LIG    1       -6.717  -1.662   1.036  0.00  0.00    +0.086 C 
ATOM     29  C   LIG    1       -6.973  -1.468   2.551  0.00  0.00    -0.060 C 
ENDBRANCH  16  27
ENDBRANCH  12  19
ENDBRANCH   1  13
BRANCH   8  30
ATOM     30  C   LIG    1        6.052   4.305   0.727  0.00  0.00    +0.233 C 
BRANCH  30  31
ATOM     31  C   LIG    1        6.559   4.704  -0.662  0.00  0.00    -0.010 A 
ATOM     32  C   LIG    1        7.232   3.765  -1.452  0.00  0.00    +0.006 A 
ATOM     33  C   LIG    1        7.683   4.113  -2.722  0.00  0.00    +0.000 A 
ATOM     34  C   LIG    1        7.458   5.399  -3.207  0.00  0.00    +0.000 A 
ATOM     35  C   LIG    1        6.786   6.341  -2.432  0.00  0.00    +0.000 A 
ATOM     36  C   LIG    1        6.336   5.995  -1.161  0.00  0.00    +0.006 A 
ENDBRANCH  30  31
BRANCH  30  37
ATOM     37  O   LIG    1        6.394   5.351   1.644  0.00  0.00    -0.366 OA
ATOM     38  C   LIG    1        6.315   5.015   3.026  0.00  0.00    +0.195 C 
ENDBRANCH  30  37
ENDBRANCH   8  30
TORSDOF 6
