REMARK  Name = DB11861
REMARK                            x       y       z     vdW  Elec       q    Type
REMARK                         _______ _______ _______ _____ _____    ______ ____
ROOT
ATOM      1  C   LIG    1        3.377  -0.569  -1.340  0.00  0.00    +0.151 C 
ATOM      2  S   LIG    1        3.941   1.142  -1.385  0.00  0.00    -0.055 S 
ATOM      3  C   LIG    1        4.888   0.836   0.107  0.00  0.00    +0.180 C 
ATOM      4  N   LIG    1        4.895  -0.351   0.547  0.00  0.00    -0.153 NA
ATOM      5  N   LIG    1        4.117  -1.178  -0.196  0.00  0.00    -0.168 N 
ATOM      6  C   LIG    1        3.979  -2.507   0.127  0.00  0.00    +0.242 C 
ATOM      7  O   LIG    1        3.150  -3.206  -0.465  0.00  0.00    -0.273 OA
ENDROOT
BRANCH   1   8
ATOM      8  C   LIG    1        3.757  -1.206  -2.705  0.00  0.00    -0.010 A 
ATOM      9  C   LIG    1        2.798  -1.411  -3.710  0.00  0.00    +0.007 A 
ATOM     10  C   LIG    1        3.156  -1.989  -4.925  0.00  0.00    +0.000 A 
ATOM     11  C   LIG    1        4.476  -2.369  -5.148  0.00  0.00    +0.000 A 
ATOM     12  C   LIG    1        5.442  -2.176  -4.166  0.00  0.00    +0.000 A 
ATOM     13  C   LIG    1        5.083  -1.597  -2.952  0.00  0.00    +0.007 A 
ENDBRANCH   1   8
BRANCH   3  14
ATOM     14  N   LIG    1        5.582   1.822   0.741  0.00  0.00    -0.263 N 
ATOM     15  H   LIG    1        6.197   1.505   1.477  0.00  0.00    +0.157 HD
ATOM     16  C   LIG    1        5.557   3.168   0.570  0.00  0.00    +0.224 C 
ATOM     17  O   LIG    1        4.790   3.757  -0.198  0.00  0.00    -0.275 OA
BRANCH  16  18
ATOM     18  C   LIG    1        6.547   4.022   1.423  0.00  0.00    +0.039 C 
ATOM     19  C   LIG    1        7.472   3.171   2.337  0.00  0.00    +0.020 C 
ATOM     20  C   LIG    1        7.440   4.852   0.467  0.00  0.00    +0.020 C 
ATOM     21  C   LIG    1        5.731   4.989   2.319  0.00  0.00    +0.020 C 
ENDBRANCH  16  18
ENDBRANCH   3  14
BRANCH   6  22
ATOM     22  C   LIG    1        4.816  -3.173   1.283  0.00  0.00    +0.040 C 
ATOM     23  C   LIG    1        4.329  -2.667   2.665  0.00  0.00    +0.020 C 
ATOM     24  C   LIG    1        4.590  -4.716   1.274  0.00  0.00    +0.020 C 
ATOM     25  C   LIG    1        6.345  -2.958   1.102  0.00  0.00    +0.020 C 
ENDBRANCH   6  22
BRANCH   1  26
ATOM     26  C   LIG    1        1.833  -0.518  -1.073  0.00  0.00    +0.149 C 
BRANCH  26  27
ATOM     27  N   LIG    1        1.465  -0.075   0.295  0.00  0.00    -0.191 NA
ATOM     28  H   LIG    1        1.880  -0.633   1.047  0.00  0.00    +0.148 HD
BRANCH  27  29
ATOM     29  S   LIG    1       -0.192   0.440   0.605  0.00  0.00    +0.028 S 
ATOM     30  O   LIG    1       -1.005   0.121  -0.575  0.00  0.00    -0.158 OA
ATOM     31  O   LIG    1       -0.566  -0.089   1.920  0.00  0.00    -0.158 OA
BRANCH  29  32
ATOM     32  C   LIG    1       -0.064   2.331   0.771  0.00  0.00    +0.166 C 
BRANCH  32  33
ATOM     33  C   LIG    1        0.672   3.006  -0.403  0.00  0.00    -0.058 C 
BRANCH  33  34
ATOM     34  N   LIG    1       -0.027   2.718  -1.741  0.00  0.00    +0.380 N 
ATOM     35  H   LIG    1       -0.133   1.717  -1.837  0.00  0.00    -0.086 HD
ATOM     36  H   LIG    1       -0.950   3.127  -1.726  0.00  0.00    -0.086 HD
BRANCH  34  38
ATOM     37  C   LIG    1        0.005   2.831  -4.244  0.00  0.00    -0.017 C 
ATOM     38  C   LIG    1        0.740   3.246  -2.963  0.00  0.00    -0.086 C 
ENDBRANCH  34  38
ENDBRANCH  33  34
ENDBRANCH  32  33
ENDBRANCH  29  32
ENDBRANCH  27  29
ENDBRANCH  26  27
ENDBRANCH   1  26
TORSDOF 11
