REMARK  Name = DB11719
REMARK                            x       y       z     vdW  Elec       q    Type
REMARK                         _______ _______ _______ _____ _____    ______ ____
ROOT
ATOM      1  C   LIG    1        1.716   0.066   0.149  0.00  0.00    -0.020 A 
ATOM      2  C   LIG    1        2.538  -0.410  -0.884  0.00  0.00    +0.130 A 
ATOM      3  C   LIG    1        3.931  -0.357  -0.736  0.00  0.00    +0.048 A 
ATOM      4  C   LIG    1        4.500   0.134   0.437  0.00  0.00    +0.032 A 
ATOM      5  C   LIG    1        3.682   0.589   1.473  0.00  0.00    +0.105 A 
ATOM      6  C   LIG    1        2.294   0.556   1.325  0.00  0.00    +0.033 A 
ENDROOT
BRANCH   5   7
ATOM      7  S   LIG    1        4.394   1.221   2.989  0.00  0.00    +0.056 S 
ATOM      8  O   LIG    1        5.841   0.984   2.941  0.00  0.00    -0.153 OA
ATOM      9  O   LIG    1        3.578   0.702   4.092  0.00  0.00    -0.153 OA
BRANCH   7  10
ATOM     10  N   LIG    1        4.133   2.953   2.907  0.00  0.00    -0.204 NA
ATOM     11  H   LIG    1        3.153   3.242   2.952  0.00  0.00    +0.144 HD
ATOM     12  H   LIG    1        4.668   3.432   2.178  0.00  0.00    +0.144 HD
ENDBRANCH   7  10
ENDBRANCH   5   7
BRANCH   1  13
ATOM     13  C   LIG    1        0.196   0.021   0.029  0.00  0.00    -0.040 C 
BRANCH  13  15
ATOM     14  C   LIG    1       -1.988   1.297  -0.305  0.00  0.00    -0.096 C 
ATOM     15  N   LIG    1       -0.453   1.347  -0.429  0.00  0.00    +0.379 N 
ATOM     16  H   LIG    1       -0.128   2.069   0.200  0.00  0.00    -0.082 HD
ATOM     17  C   LIG    1       -0.029   1.759  -1.853  0.00  0.00    -0.096 C 
ENDBRANCH  13  15
ENDBRANCH   1  13
BRANCH   2  18
ATOM     18  O   LIG    1        1.959  -0.868  -2.051  0.00  0.00    -0.456 OA
BRANCH  18  19
ATOM     19  C   LIG    1        2.411  -2.015  -2.669  0.00  0.00    +0.129 A 
ATOM     20  C   LIG    1        2.426  -2.042  -4.064  0.00  0.00    +0.047 A 
ATOM     21  C   LIG    1        2.855  -3.182  -4.738  0.00  0.00    +0.018 A 
ATOM     22  C   LIG    1        3.259  -4.300  -4.012  0.00  0.00    +0.008 A 
ATOM     23  C   LIG    1        3.231  -4.292  -2.618  0.00  0.00    +0.018 A 
ATOM     24  C   LIG    1        2.801  -3.151  -1.946  0.00  0.00    +0.047 A 
BRANCH  22  25
ATOM     25  S   LIG    1        3.807  -5.743  -4.863  0.00  0.00    -0.129 S 
ATOM     26  C   LIG    1        2.294  -6.687  -5.177  0.00  0.00    +0.090 C 
ENDBRANCH  22  25
ENDBRANCH  18  19
ENDBRANCH   2  18
TORSDOF 7
