REMARK  Name = DB11686
REMARK                            x       y       z     vdW  Elec       q    Type
REMARK                         _______ _______ _______ _____ _____    ______ ____
ROOT
ATOM      1  C   LIG    1        1.623   0.050   0.091  0.00  0.00    -0.026 A 
ATOM      2  C   LIG    1        2.359   0.581   1.171  0.00  0.00    +0.037 A 
ATOM      3  C   LIG    1        3.763   0.525   1.139  0.00  0.00    +0.023 A 
ATOM      4  C   LIG    1        4.425  -0.034   0.048  0.00  0.00    +0.002 A 
ATOM      5  C   LIG    1        3.696  -0.550  -1.020  0.00  0.00    +0.000 A 
ATOM      6  C   LIG    1        2.304  -0.510  -0.997  0.00  0.00    +0.005 A 
ENDROOT
BRANCH   2   7
ATOM      7  N   LIG    1        1.652   1.124   2.263  0.00  0.00    -0.282 N 
ATOM      8  H   LIG    1        0.706   0.786   2.362  0.00  0.00    +0.155 HD
ATOM      9  C   LIG    1        2.023   2.124   3.091  0.00  0.00    +0.241 C 
ATOM     10  O   LIG    1        3.087   2.741   3.015  0.00  0.00    -0.270 OA
BRANCH   9  11
ATOM     11  C   LIG    1        1.012   2.409   4.085  0.00  0.00    +0.068 C 
ATOM     12  C   LIG    1        1.134   3.409   4.986  0.00  0.00    +0.013 C 
BRANCH  12  13
ATOM     13  C   LIG    1        0.144   3.781   6.021  0.00  0.00    -0.025 A 
ATOM     14  C   LIG    1       -1.150   3.243   6.050  0.00  0.00    +0.008 A 
ATOM     15  C   LIG    1       -2.047   3.621   7.046  0.00  0.00    +0.001 A 
ATOM     16  C   LIG    1       -1.654   4.537   8.018  0.00  0.00    +0.000 A 
ATOM     17  C   LIG    1       -0.372   5.078   8.002  0.00  0.00    +0.001 A 
ATOM     18  C   LIG    1        0.524   4.700   7.005  0.00  0.00    +0.008 A 
ENDBRANCH  12  13
ENDBRANCH   9  11
ENDBRANCH   2   7
BRANCH   1  19
ATOM     19  C   LIG    1        0.093   0.074   0.065  0.00  0.00    +0.035 C 
BRANCH  19  20
ATOM     20  C   LIG    1       -0.480   1.471  -0.262  0.00  0.00    -0.011 C 
BRANCH  20  24
ATOM     21  C   LIG    1       -1.786   4.130   0.414  0.00  0.00    -0.096 C 
ATOM     22  N   LIG    1       -2.472   3.039  -0.443  0.00  0.00    +0.380 N 
ATOM     23  H   LIG    1       -2.243   3.197  -1.414  0.00  0.00    -0.082 HD
ATOM     24  C   LIG    1       -2.018   1.591  -0.075  0.00  0.00    -0.069 C 
ATOM     25  C   LIG    1       -2.804   0.583  -0.957  0.00  0.00    -0.015 C 
ATOM     26  C   LIG    1       -4.330   0.766  -0.888  0.00  0.00    -0.003 C 
ATOM     27  C   LIG    1       -4.730   2.212  -1.209  0.00  0.00    -0.019 C 
ATOM     28  C   LIG    1       -4.005   3.217  -0.301  0.00  0.00    -0.079 C 
ENDBRANCH  20  24
ENDBRANCH  19  20
ENDBRANCH   1  19
TORSDOF 6
