REMARK  Name = DB11670
REMARK                            x       y       z     vdW  Elec       q    Type
REMARK                         _______ _______ _______ _____ _____    ______ ____
ROOT
ATOM      1  C   LIG    1        1.553  -0.250  -0.111  0.00  0.00    +0.017 C 
ENDROOT
BRANCH   1   2
ATOM      2  C   LIG    1        0.070  -0.138  -0.516  0.00  0.00    +0.107 C 
BRANCH   2   5
ATOM      3  C   LIG    1       -0.940   3.602  -0.590  0.00  0.00    +0.109 C 
ATOM      4  C   LIG    1       -0.315   2.257  -0.978  0.00  0.00    +0.212 C 
ATOM      5  N   LIG    1       -0.545   1.162  -0.203  0.00  0.00    -0.302 N 
ATOM      6  O   LIG    1        0.377   2.218  -1.997  0.00  0.00    -0.276 OA
BRANCH   5   7
ATOM      7  C   LIG    1       -1.298   1.209   1.059  0.00  0.00    +0.109 C 
BRANCH   7   8
ATOM      8  C   LIG    1       -0.442   1.600   2.283  0.00  0.00    +0.041 C 
BRANCH   8   9
ATOM      9  C   LIG    1       -1.265   1.953   3.543  0.00  0.00    +0.131 C 
BRANCH   9  10
ATOM     10  N   LIG    1       -2.188   3.110   3.375  0.00  0.00    -0.260 N 
ATOM     11  C   LIG    1       -3.526   2.795   3.202  0.00  0.00    +0.330 A 
ATOM     12  O   LIG    1       -4.014   1.664   3.181  0.00  0.00    -0.246 OA
ATOM     13  N   LIG    1       -4.337   3.868   3.031  0.00  0.00    -0.307 N 
ATOM     14  H   LIG    1       -5.314   3.651   2.903  0.00  0.00    +0.170 HD
ATOM     15  C   LIG    1       -3.938   5.201   2.998  0.00  0.00    +0.056 A 
ATOM     16  C   LIG    1       -4.859   6.229   2.790  0.00  0.00    +0.026 A 
ATOM     17  C   LIG    1       -4.420   7.553   2.761  0.00  0.00    +0.002 A 
ATOM     18  C   LIG    1       -3.067   7.848   2.942  0.00  0.00    +0.001 A 
ATOM     19  C   LIG    1       -2.144   6.821   3.151  0.00  0.00    +0.015 A 
ATOM     20  C   LIG    1       -2.582   5.491   3.176  0.00  0.00    +0.063 A 
ATOM     21  C   LIG    1       -1.595   4.361   3.400  0.00  0.00    +0.264 A 
ATOM     22  O   LIG    1       -0.388   4.550   3.582  0.00  0.00    -0.267 OA
ENDBRANCH   9  10
ENDBRANCH   8   9
ENDBRANCH   7   8
ENDBRANCH   5   7
ENDBRANCH   2   5
ENDBRANCH   1   2
BRANCH   1  23
ATOM     23  C   LIG    1        2.175  -1.590  -0.534  0.00  0.00    -0.018 C 
BRANCH  23  24
ATOM     24  C   LIG    1        3.644  -1.716  -0.105  0.00  0.00    -0.083 C 
BRANCH  24  25
ATOM     25  N   LIG    1        4.197  -3.066  -0.587  0.00  0.00    +0.379 N 
ATOM     26  H   LIG    1        4.134  -3.102  -1.595  0.00  0.00    -0.086 HD
ATOM     27  H   LIG    1        3.622  -3.806  -0.211  0.00  0.00    -0.086 HD
BRANCH  25  28
ATOM     28  C   LIG    1        5.654  -3.315  -0.172  0.00  0.00    -0.081 C 
BRANCH  28  29
ATOM     29  C   LIG    1        6.108  -4.681  -0.712  0.00  0.00    +0.003 C 
BRANCH  29  30
ATOM     30  C   LIG    1        7.570  -5.042  -0.365  0.00  0.00    +0.128 C 
BRANCH  30  31
ATOM     31  N   LIG    1        7.856  -5.152   1.092  0.00  0.00    -0.261 N 
ATOM     32  C   LIG    1        7.482  -6.356   1.669  0.00  0.00    +0.330 A 
ATOM     33  O   LIG    1        6.938  -7.300   1.094  0.00  0.00    -0.246 OA
ATOM     34  N   LIG    1        7.755  -6.450   2.994  0.00  0.00    -0.307 N 
ATOM     35  H   LIG    1        7.487  -7.323   3.426  0.00  0.00    +0.170 HD
ATOM     36  C   LIG    1        8.357  -5.471   3.780  0.00  0.00    +0.056 A 
ATOM     37  C   LIG    1        8.594  -5.677   5.140  0.00  0.00    +0.026 A 
ATOM     38  C   LIG    1        9.200  -4.671   5.895  0.00  0.00    +0.002 A 
ATOM     39  C   LIG    1        9.568  -3.466   5.292  0.00  0.00    +0.001 A 
ATOM     40  C   LIG    1        9.331  -3.259   3.931  0.00  0.00    +0.015 A 
ATOM     41  C   LIG    1        8.724  -4.267   3.172  0.00  0.00    +0.063 A 
ATOM     42  C   LIG    1        8.452  -4.058   1.694  0.00  0.00    +0.264 A 
ATOM     43  O   LIG    1        8.725  -3.008   1.104  0.00  0.00    -0.267 OA
ENDBRANCH  30  31
ENDBRANCH  29  30
ENDBRANCH  28  29
ENDBRANCH  25  28
ENDBRANCH  24  25
ENDBRANCH  23  24
ENDBRANCH   1  23
TORSDOF 13
