REMARK  Name = DB11071
REMARK                            x       y       z     vdW  Elec       q    Type
REMARK                         _______ _______ _______ _____ _____    ______ ____
ROOT
ATOM      1  C   LIG    1        1.485  -0.190   0.000  0.00  0.00    +0.348 C 
ATOM      2  O   LIG    1        2.127  -1.245   0.000  0.00  0.00    -0.244 OA
ENDROOT
BRANCH   1   3
ATOM      3  C   LIG    1       -0.026  -0.128   0.000  0.00  0.00    +0.101 A 
ATOM      4  C   LIG    1       -0.830  -1.294   0.000  0.00  0.00    +0.131 A 
ATOM      5  C   LIG    1       -2.224  -1.192   0.000  0.00  0.00    +0.046 A 
ATOM      6  C   LIG    1       -2.845   0.053   0.000  0.00  0.00    +0.004 A 
ATOM      7  C   LIG    1       -2.073   1.209   0.000  0.00  0.00    +0.001 A 
ATOM      8  C   LIG    1       -0.682   1.120   0.000  0.00  0.00    +0.018 A 
BRANCH   4   9
ATOM      9  O   LIG    1       -0.306  -2.563   0.000  0.00  0.00    -0.506 OA
ATOM     10  H   LIG    1       -0.981  -3.246   0.000  0.00  0.00    +0.292 HD
ENDBRANCH   4   9
ENDBRANCH   1   3
BRANCH   1  11
ATOM     11  O   LIG    1        2.074   1.049   0.000  0.00  0.00    -0.422 OA
BRANCH  11  15
ATOM     12  C   LIG    1        6.210   1.439   0.000  0.00  0.00    +0.000 A 
ATOM     13  C   LIG    1        5.524   1.374   1.211  0.00  0.00    +0.004 A 
ATOM     14  C   LIG    1        4.138   1.238   1.212  0.00  0.00    +0.046 A 
ATOM     15  C   LIG    1        3.446   1.160   0.000  0.00  0.00    +0.132 A 
ATOM     16  C   LIG    1        4.138   1.238  -1.212  0.00  0.00    +0.046 A 
ATOM     17  C   LIG    1        5.524   1.374  -1.211  0.00  0.00    +0.004 A 
ENDBRANCH  11  15
ENDBRANCH   1  11
TORSDOF 4
