REMARK  Name = DB11460
REMARK                            x       y       z     vdW  Elec       q    Type
REMARK                         _______ _______ _______ _____ _____    ______ ____
ROOT
ATOM      1  C   LIG    1       -0.078  -0.760   0.789  0.00  0.00    +0.031 C 
ENDROOT
BRANCH   1   4
ATOM      2  C   LIG    1       -1.488   1.092  -0.325  0.00  0.00    -0.076 C 
ATOM      3  C   LIG    1       -1.715   0.371  -1.650  0.00  0.00    +0.039 C 
ATOM      4  C   LIG    1       -0.784   0.588   0.712  0.00  0.00    -0.028 C 
BRANCH   2   5
ATOM      5  C   LIG    1       -2.121   2.476  -0.246  0.00  0.00    +0.034 C 
BRANCH   5   6
ATOM      6  C   LIG    1       -1.317   3.549  -1.002  0.00  0.00    +0.031 C 
BRANCH   6   9
ATOM      7  C   LIG    1       -2.759   5.293  -2.212  0.00  0.00    -0.076 C 
ATOM      8  C   LIG    1       -3.053   4.426  -3.431  0.00  0.00    +0.039 C 
ATOM      9  C   LIG    1       -2.031   4.881  -1.151  0.00  0.00    -0.028 C 
BRANCH   7  10
ATOM     10  C   LIG    1       -3.373   6.688  -2.255  0.00  0.00    +0.034 C 
BRANCH  10  11
ATOM     11  C   LIG    1       -2.792   7.583  -3.364  0.00  0.00    +0.031 C 
BRANCH  11  15
ATOM     12  C   LIG    1       -3.450  11.480  -3.118  0.00  0.00    +0.038 C 
ATOM     13  C   LIG    1       -2.734  10.142  -3.033  0.00  0.00    -0.080 C 
ATOM     14  C   LIG    1       -1.298  10.241  -2.536  0.00  0.00    +0.038 C 
ATOM     15  C   LIG    1       -3.360   8.993  -3.368  0.00  0.00    -0.028 C 
ENDBRANCH  11  15
ENDBRANCH  10  11
ENDBRANCH   7  10
ENDBRANCH   6   9
ENDBRANCH   5   6
ENDBRANCH   2   5
ENDBRANCH   1   4
BRANCH   1  16
ATOM     16  C   LIG    1        1.451  -0.669   0.624  0.00  0.00    +0.031 C 
BRANCH  16  17
ATOM     17  C   LIG    1        1.889   0.016  -0.667  0.00  0.00    -0.028 C 
ATOM     18  C   LIG    1        2.707   1.083  -0.809  0.00  0.00    -0.076 C 
ATOM     19  C   LIG    1        3.421   1.779   0.345  0.00  0.00    +0.039 C 
BRANCH  18  20
ATOM     20  C   LIG    1        3.000   1.673  -2.186  0.00  0.00    +0.034 C 
BRANCH  20  21
ATOM     21  C   LIG    1        2.540   3.134  -2.356  0.00  0.00    +0.031 C 
BRANCH  21  22
ATOM     22  C   LIG    1        2.871   3.728  -3.716  0.00  0.00    -0.028 C 
ATOM     23  C   LIG    1        2.009   4.190  -4.648  0.00  0.00    -0.076 C 
ATOM     24  C   LIG    1        0.493   4.125  -4.502  0.00  0.00    +0.039 C 
BRANCH  23  25
ATOM     25  C   LIG    1        2.514   4.777  -5.963  0.00  0.00    +0.034 C 
BRANCH  25  26
ATOM     26  C   LIG    1        2.614   6.315  -6.003  0.00  0.00    +0.031 C 
BRANCH  26  27
ATOM     27  C   LIG    1        1.298   7.059  -5.824  0.00  0.00    -0.028 C 
ATOM     28  C   LIG    1        0.475   7.514  -6.792  0.00  0.00    -0.080 C 
ATOM     29  C   LIG    1        0.703   7.309  -8.282  0.00  0.00    +0.038 C 
ATOM     30  C   LIG    1       -0.790   8.285  -6.455  0.00  0.00    +0.038 C 
ENDBRANCH  26  27
ENDBRANCH  25  26
ENDBRANCH  23  25
ENDBRANCH  21  22
ENDBRANCH  20  21
ENDBRANCH  18  20
ENDBRANCH  16  17
ENDBRANCH   1  16
TORSDOF 15
