REMARK  Name = DB11883
REMARK                            x       y       z     vdW  Elec       q    Type
REMARK                         _______ _______ _______ _____ _____    ______ ____
ROOT
ATOM      1  C   LIG    1        1.609  -0.145  -0.388  0.00  0.00    +0.093 C 
ATOM      2  C   LIG    1        2.455   0.203   0.837  0.00  0.00    +0.128 C 
ATOM      3  N   LIG    1        2.542  -0.989   1.683  0.00  0.00    -0.313 N 
ATOM      4  C   LIG    1        2.206  -2.129   0.819  0.00  0.00    +0.108 C 
ATOM      5  C   LIG    1        1.989  -1.600  -0.605  0.00  0.00    +0.043 C 
ENDROOT
BRANCH   1   9
ATOM      6  N   LIG    1       -1.815   0.935   0.123  0.00  0.00    -0.268 N 
ATOM      7  H   LIG    1       -2.056   0.017   0.467  0.00  0.00    +0.156 HD
ATOM      8  C   LIG    1       -0.523   1.135  -0.205  0.00  0.00    +0.304 C 
ATOM      9  N   LIG    1        0.168  -0.015  -0.141  0.00  0.00    -0.295 N 
ATOM     10  H   LIG    1       -0.276  -0.810   0.294  0.00  0.00    +0.151 HD
ATOM     11  O   LIG    1       -0.021   2.216  -0.520  0.00  0.00    -0.252 OA
BRANCH   6  14
ATOM     12  C   LIG    1       -3.964   3.923  -0.554  0.00  0.00    +0.002 A 
ATOM     13  C   LIG    1       -2.878   3.050  -0.612  0.00  0.00    +0.024 A 
ATOM     14  C   LIG    1       -2.879   1.860   0.137  0.00  0.00    +0.049 A 
ATOM     15  C   LIG    1       -3.996   1.560   0.936  0.00  0.00    +0.039 A 
ATOM     16 BR   LIG    1       -4.082  -0.041   1.976  0.00  0.00    -0.048 Br
ATOM     17  C   LIG    1       -5.078   2.440   0.987  0.00  0.00    +0.017 A 
ATOM     18  C   LIG    1       -5.063   3.620   0.246  0.00  0.00    +0.001 A 
ENDBRANCH   6  14
ENDBRANCH   1   9
BRANCH   3  19
ATOM     19  C   LIG    1        3.146  -1.065   2.948  0.00  0.00    +0.121 A 
ATOM     20  N   LIG    1        3.236  -2.300   3.515  0.00  0.00    -0.240 NA
ATOM     21  C   LIG    1        3.787  -2.414   4.750  0.00  0.00    +0.125 A 
ATOM     22  C   LIG    1        4.261  -1.318   5.479  0.00  0.00    +0.073 A 
ATOM     23  C   LIG    1        4.152  -0.052   4.893  0.00  0.00    +0.017 A 
ATOM     24  C   LIG    1        3.589   0.081   3.623  0.00  0.00    +0.044 A 
BRANCH  22  25
ATOM     25  C   LIG    1        4.878  -1.475   6.865  0.00  0.00    +0.419 C 
ATOM     26  F   LIG    1        4.146  -0.807   7.757  0.00  0.00    -0.166 F 
ATOM     27  F   LIG    1        6.114  -0.974   6.866  0.00  0.00    -0.166 F 
ATOM     28  F   LIG    1        4.945  -2.751   7.250  0.00  0.00    -0.166 F 
ENDBRANCH  22  25
ENDBRANCH   3  19
TORSDOF 4
