REMARK  Name = DB11869
REMARK                            x       y       z     vdW  Elec       q    Type
REMARK                         _______ _______ _______ _____ _____    ______ ____
ROOT
ATOM      1  C   LIG    1        1.613   1.238  -0.942  0.00  0.00    +0.123 C 
ATOM      2  C   LIG    1        1.503   2.071   0.159  0.00  0.00    +0.136 C 
ATOM      3  N   LIG    1        0.263   2.448   0.646  0.00  0.00    -0.266 N 
ATOM      4  C   LIG    1       -0.465   3.450  -0.152  0.00  0.00    +0.138 C 
ATOM      5  C   LIG    1       -0.386   1.860   1.696  0.00  0.00    +0.241 C 
ATOM      6  O   LIG    1       -1.595   2.021   1.897  0.00  0.00    -0.273 OA
ATOM      7  C   LIG    1        0.374   0.972   2.729  0.00  0.00    +0.165 C 
ATOM      8  N   LIG    1       -0.227   1.119   4.099  0.00  0.00    -0.291 N 
ATOM      9  C   LIG    1       -1.277   0.159   4.490  0.00  0.00    +0.133 C 
ATOM     10  C   LIG    1        0.076   2.217   4.863  0.00  0.00    +0.236 C 
ATOM     11  O   LIG    1        0.927   3.039   4.521  0.00  0.00    -0.274 OA
ATOM     12  C   LIG    1       -0.731   2.506   6.169  0.00  0.00    +0.162 C 
ATOM     13  N   LIG    1       -0.050   3.406   7.157  0.00  0.00    -0.291 N 
ATOM     14  C   LIG    1        0.238   4.774   6.743  0.00  0.00    +0.133 C 
ATOM     15  C   LIG    1        0.249   2.983   8.420  0.00  0.00    +0.236 C 
ATOM     16  O   LIG    1       -0.031   1.839   8.789  0.00  0.00    -0.274 OA
ATOM     17  C   LIG    1        0.958   3.921   9.476  0.00  0.00    +0.162 C 
ATOM     18  N   LIG    1        0.108   5.056   9.931  0.00  0.00    -0.291 N 
ATOM     19  C   LIG    1       -1.200   4.688  10.508  0.00  0.00    +0.133 C 
ATOM     20  C   LIG    1        0.419   6.395   9.923  0.00  0.00    +0.236 C 
ATOM     21  O   LIG    1       -0.382   7.244  10.326  0.00  0.00    -0.274 OA
ATOM     22  C   LIG    1        1.782   6.991   9.452  0.00  0.00    +0.156 C 
ATOM     23  C   LIG    1        3.031   6.578  10.236  0.00  0.00    +0.038 C 
ATOM     24  N   LIG    1        2.080   7.039   8.020  0.00  0.00    -0.303 N 
ATOM     25  H   LIG    1        2.924   6.561   7.737  0.00  0.00    +0.149 HD
ATOM     26  C   LIG    1        1.440   7.813   7.122  0.00  0.00    +0.234 C 
ATOM     27  O   LIG    1        0.385   8.404   7.351  0.00  0.00    -0.274 OA
ATOM     28  C   LIG    1        2.115   8.021   5.750  0.00  0.00    +0.156 C 
ATOM     29  C   LIG    1        1.596   7.037   4.691  0.00  0.00    +0.038 C 
ATOM     30  N   LIG    1        3.577   7.955   5.774  0.00  0.00    -0.303 N 
ATOM     31  H   LIG    1        3.988   7.165   5.296  0.00  0.00    +0.149 HD
ATOM     32  C   LIG    1        4.390   8.857   6.352  0.00  0.00    +0.234 C 
ATOM     33  O   LIG    1        3.991   9.848   6.964  0.00  0.00    -0.274 OA
ATOM     34  C   LIG    1        5.914   8.635   6.227  0.00  0.00    +0.162 C 
ATOM     35  N   LIG    1        6.409   7.350   6.798  0.00  0.00    -0.291 N 
ATOM     36  C   LIG    1        7.126   7.536   8.068  0.00  0.00    +0.133 C 
ATOM     37  C   LIG    1        6.190   6.119   6.246  0.00  0.00    +0.237 C 
ATOM     38  O   LIG    1        5.609   5.968   5.168  0.00  0.00    -0.274 OA
ATOM     39  C   LIG    1        6.668   4.828   6.986  0.00  0.00    +0.162 C 
ATOM     40  N   LIG    1        5.798   3.678   6.708  0.00  0.00    -0.302 N 
ATOM     41  H   LIG    1        6.186   2.970   6.102  0.00  0.00    +0.150 HD
ATOM     42  C   LIG    1        4.515   3.576   7.096  0.00  0.00    +0.234 C 
ATOM     43  O   LIG    1        3.955   4.394   7.820  0.00  0.00    -0.274 OA
ATOM     44  C   LIG    1        3.687   2.402   6.523  0.00  0.00    +0.162 C 
ATOM     45  N   LIG    1        3.987   2.076   5.087  0.00  0.00    -0.292 N 
ATOM     46  C   LIG    1        3.949   3.265   4.221  0.00  0.00    +0.133 C 
ATOM     47  C   LIG    1        4.139   0.848   4.510  0.00  0.00    +0.233 C 
ATOM     48  O   LIG    1        4.037  -0.214   5.119  0.00  0.00    -0.274 OA
ATOM     49  C   LIG    1        4.519   0.719   3.013  0.00  0.00    +0.203 C 
ATOM     50  N   LIG    1        5.851   1.285   2.706  0.00  0.00    -0.294 N 
ATOM     51  C   LIG    1        6.961   0.678   3.468  0.00  0.00    +0.132 C 
ATOM     52  C   LIG    1        6.135   2.378   1.926  0.00  0.00    +0.236 C 
ATOM     53  O   LIG    1        7.240   2.925   2.002  0.00  0.00    -0.274 OA
ATOM     54  C   LIG    1        5.194   2.944   0.799  0.00  0.00    +0.162 C 
ATOM     55  N   LIG    1        3.864   2.361   0.550  0.00  0.00    -0.299 N 
ATOM     56  H   LIG    1        3.905   1.426   0.171  0.00  0.00    +0.150 HD
ATOM     57  C   LIG    1        2.623   2.883   0.685  0.00  0.00    +0.262 C 
ATOM     58  O   LIG    1        2.437   4.004   1.163  0.00  0.00    -0.269 OA
ENDROOT
BRANCH   7  59
ATOM     59  C   LIG    1        0.497  -0.490   2.163  0.00  0.00    +0.012 C 
ATOM     60  C   LIG    1        1.378  -1.409   3.027  0.00  0.00    +0.009 C 
ATOM     61  C   LIG    1       -0.787  -1.208   1.682  0.00  0.00    +0.009 C 
ENDBRANCH   7  59
BRANCH  39  62
ATOM     62  C   LIG    1        8.146   4.526   6.574  0.00  0.00    +0.012 C 
ATOM     63  C   LIG    1        8.754   3.412   7.446  0.00  0.00    +0.009 C 
ATOM     64  C   LIG    1        8.349   4.192   5.078  0.00  0.00    +0.009 C 
ENDBRANCH  39  62
BRANCH  54  65
ATOM     65  C   LIG    1        5.323   4.503   0.555  0.00  0.00    +0.012 C 
ATOM     66  C   LIG    1        5.278   5.392   1.819  0.00  0.00    +0.009 C 
ATOM     67  C   LIG    1        6.550   4.888  -0.300  0.00  0.00    +0.009 C 
ENDBRANCH  54  65
BRANCH   1  68
ATOM     68  C   LIG    1        0.373   0.515  -1.569  0.00  0.00    +0.057 C 
ATOM     69  C   LIG    1        0.462  -1.036  -1.684  0.00  0.00    +0.016 C 
BRANCH  68  70
ATOM     70  C   LIG    1       -0.099   1.152  -2.908  0.00  0.00    +0.038 C 
BRANCH  70  73
ATOM     71  C   LIG    1       -3.269  -0.247  -4.816  0.00  0.00    +0.035 C 
ATOM     72  C   LIG    1       -1.853   0.110  -4.417  0.00  0.00    -0.034 C 
ATOM     73  C   LIG    1       -1.520   0.794  -3.309  0.00  0.00    -0.031 C 
ENDBRANCH  70  73
ENDBRANCH  68  70
ENDBRANCH   1  68
BRANCH   1  74
ATOM     74  O   LIG    1        2.640   0.894  -1.657  0.00  0.00    -0.509 OA
ATOM     75  H   LIG    1        2.532   0.309  -2.381  0.00  0.00    +0.292 HD
ENDBRANCH   1  74
BRANCH  12  76
ATOM     76  C   LIG    1       -2.145   3.053   5.793  0.00  0.00    +0.035 C 
BRANCH  76  77
ATOM     77  C   LIG    1       -3.286   2.645   6.753  0.00  0.00    -0.015 C 
ATOM     78  C   LIG    1       -3.224   3.393   8.097  0.00  0.00    +0.007 C 
ATOM     79  C   LIG    1       -4.669   2.794   6.078  0.00  0.00    +0.007 C 
ENDBRANCH  76  77
ENDBRANCH  12  76
BRANCH  17  80
ATOM     80  C   LIG    1        1.405   3.028  10.697  0.00  0.00    +0.035 C 
BRANCH  80  81
ATOM     81  C   LIG    1        2.207   3.625  11.880  0.00  0.00    -0.015 C 
ATOM     82  C   LIG    1        1.333   4.449  12.850  0.00  0.00    +0.007 C 
ATOM     83  C   LIG    1        2.959   2.510  12.647  0.00  0.00    +0.007 C 
ENDBRANCH  80  81
ENDBRANCH  17  80
BRANCH  34  84
ATOM     84  C   LIG    1        6.456   8.897   4.791  0.00  0.00    +0.035 C 
BRANCH  84  85
ATOM     85  C   LIG    1        6.192  10.312   4.223  0.00  0.00    -0.015 C 
ATOM     86  C   LIG    1        6.811  11.424   5.098  0.00  0.00    +0.007 C 
ATOM     87  C   LIG    1        6.644  10.406   2.750  0.00  0.00    +0.007 C 
ENDBRANCH  84  85
ENDBRANCH  34  84
BRANCH  44  88
ATOM     88  C   LIG    1        3.555   1.237   7.558  0.00  0.00    +0.035 C 
BRANCH  88  89
ATOM     89  C   LIG    1        4.798   0.795   8.378  0.00  0.00    -0.015 C 
ATOM     90  C   LIG    1        4.409  -0.225   9.468  0.00  0.00    +0.007 C 
ATOM     91  C   LIG    1        5.974   0.287   7.525  0.00  0.00    +0.007 C 
ENDBRANCH  88  89
ENDBRANCH  44  88
TORSDOF 15
