REMARK  Name = DB11609
REMARK                            x       y       z     vdW  Elec       q    Type
REMARK                         _______ _______ _______ _____ _____    ______ ____
ROOT
ATOM      1  C   LIG    1        1.544   0.096   0.087  0.00  0.00    +0.080 C 
ENDROOT
BRANCH   1   2
ATOM      2  C   LIG    1        2.134   0.703   1.406  0.00  0.00    -0.030 A 
ATOM      3  C   LIG    1        2.455  -0.089   2.526  0.00  0.00    +0.005 A 
ATOM      4  C   LIG    1        2.947   0.485   3.694  0.00  0.00    +0.000 A 
ATOM      5  C   LIG    1        3.110   1.864   3.770  0.00  0.00    +0.000 A 
ATOM      6  C   LIG    1        2.775   2.673   2.690  0.00  0.00    +0.000 A 
ATOM      7  C   LIG    1        2.285   2.095   1.523  0.00  0.00    +0.005 A 
ENDBRANCH   1   2
BRANCH   1   8
ATOM      8  C   LIG    1        2.007   0.801  -1.229  0.00  0.00    -0.030 A 
ATOM      9  C   LIG    1        1.168   0.862  -2.356  0.00  0.00    +0.005 A 
ATOM     10  C   LIG    1        1.588   1.483  -3.529  0.00  0.00    +0.000 A 
ATOM     11  C   LIG    1        2.857   2.047  -3.596  0.00  0.00    +0.000 A 
ATOM     12  C   LIG    1        3.711   1.992  -2.500  0.00  0.00    +0.000 A 
ATOM     13  C   LIG    1        3.289   1.371  -1.329  0.00  0.00    +0.005 A 
ENDBRANCH   1   8
BRANCH   1  14
ATOM     14  C   LIG    1        2.022  -1.388  -0.105  0.00  0.00    +0.148 C 
ATOM     15  O   LIG    1        1.228  -2.318  -0.259  0.00  0.00    -0.296 OA
BRANCH  14  17
ATOM     16  C   LIG    1        4.019  -2.220  -1.474  0.00  0.00    +0.012 C 
ATOM     17  C   LIG    1        3.530  -1.692  -0.116  0.00  0.00    +0.072 C 
ENDBRANCH  14  17
ENDBRANCH   1  14
BRANCH   1  18
ATOM     18  C   LIG    1       -0.025   0.115   0.245  0.00  0.00    +0.039 C 
BRANCH  18  19
ATOM     19  C   LIG    1       -0.679   1.515   0.391  0.00  0.00    +0.085 C 
BRANCH  19  20
ATOM     20  N   LIG    1       -2.132   1.513   0.189  0.00  0.00    -0.308 NA
ATOM     21  C   LIG    1       -2.693   2.780   0.650  0.00  0.00    +0.104 C 
ATOM     22  C   LIG    1       -2.489   1.328  -1.217  0.00  0.00    +0.104 C 
ENDBRANCH  19  20
ENDBRANCH  18  19
ENDBRANCH   1  18
TORSDOF 7
