REMARK  Name = DB11789
REMARK                            x       y       z     vdW  Elec       q    Type
REMARK                         _______ _______ _______ _____ _____    ______ ____
ROOT
ATOM      1  C   LIG    1       -3.723  -1.788   5.658  0.00  0.00    +0.010 C 
ATOM      2  C   LIG    1       -3.540  -2.481   4.272  0.00  0.00    -0.024 C 
ATOM      3  C   LIG    1       -2.791  -3.817   4.571  0.00  0.00    +0.012 C 
ATOM      4  C   LIG    1       -2.761  -1.599   3.220  0.00  0.00    -0.001 C 
ATOM      5  C   LIG    1       -2.650  -2.314   1.830  0.00  0.00    -0.001 C 
ATOM      6  C   LIG    1       -1.871  -1.408   0.837  0.00  0.00    -0.001 C 
ATOM      7  C   LIG    1       -1.716  -1.855  -0.616  0.00  0.00    +0.004 C 
ATOM      8  C   LIG    1       -0.545  -1.006  -1.134  0.00  0.00    +0.004 C 
ATOM      9  C   LIG    1        0.069  -0.249   0.080  0.00  0.00    -0.002 C 
ATOM     10  C   LIG    1       -0.434  -1.070   1.317  0.00  0.00    -0.026 C 
ATOM     11  C   LIG    1        0.458  -2.333   1.543  0.00  0.00    +0.012 C 
ATOM     12  C   LIG    1       -0.620  -0.260   2.634  0.00  0.00    +0.007 C 
ATOM     13  C   LIG    1       -4.060  -2.680   1.298  0.00  0.00    +0.035 C 
ATOM     14  C   LIG    1       -4.889  -3.504   2.311  0.00  0.00    +0.119 C 
ATOM     15  C   LIG    1       -1.379  -1.069   3.715  0.00  0.00    +0.005 C 
ATOM     16  C   LIG    1       -4.973  -2.801   3.703  0.00  0.00    +0.026 C 
ATOM     17  C   LIG    1       -5.898  -1.540   3.689  0.00  0.00    +0.038 C 
ATOM     18  C   LIG    1       -5.953  -0.770   5.025  0.00  0.00    +0.115 C 
ATOM     19  C   LIG    1       -4.552  -0.494   5.604  0.00  0.00    +0.032 C 
ENDROOT
BRANCH   9  20
ATOM     20  C   LIG    1        1.606   0.023  -0.080  0.00  0.00    -0.010 C 
ATOM     21  C   LIG    1        2.241   0.694   1.160  0.00  0.00    +0.008 C 
BRANCH  20  22
ATOM     22  C   LIG    1        1.899   0.860  -1.359  0.00  0.00    +0.014 C 
BRANCH  22  23
ATOM     23  C   LIG    1        3.403   0.984  -1.735  0.00  0.00    +0.121 C 
BRANCH  23  24
ATOM     24  C   LIG    1        3.674   1.532  -3.158  0.00  0.00    +0.305 C 
ATOM     25  O   LIG    1        4.809   1.304  -3.634  0.00  0.00    -0.251 OA
BRANCH  24  26
ATOM     26  O   LIG    1        2.789   2.194  -3.748  0.00  0.00    -0.481 OA
ATOM     27  H   LIG    1        2.949   2.527  -4.610  0.00  0.00    +0.295 HD
ENDBRANCH  24  26
ENDBRANCH  23  24
ENDBRANCH  22  23
ENDBRANCH  20  22
ENDBRANCH   9  20
BRANCH  14  28
ATOM     28  O   LIG    1       -6.166  -3.781   1.767  0.00  0.00    -0.391 OA
ATOM     29  H   LIG    1       -6.636  -4.359   2.373  0.00  0.00    +0.210 HD
ENDBRANCH  14  28
BRANCH  18  30
ATOM     30  O   LIG    1       -6.681   0.433   4.883  0.00  0.00    -0.392 OA
ATOM     31  H   LIG    1       -7.466   0.381   5.432  0.00  0.00    +0.210 HD
ENDBRANCH  18  30
TORSDOF 7
