REMARK  Name = DB11911
REMARK                            x       y       z     vdW  Elec       q    Type
REMARK                         _______ _______ _______ _____ _____    ______ ____
ROOT
ATOM      1  C   LIG    1        1.585  -0.019  -0.077  0.00  0.00    +0.119 A 
ATOM      2  N   LIG    1        2.258  -1.020   0.466  0.00  0.00    -0.169 NA
ATOM      3  N   LIG    1        3.526  -0.831   0.102  0.00  0.00    -0.267 N 
ATOM      4  C   LIG    1        4.753  -1.528   0.426  0.00  0.00    +0.144 C 
ATOM      5  C   LIG    1        5.719  -0.941  -0.613  0.00  0.00    +0.029 C 
ATOM      6  C   LIG    1        5.157   0.427  -1.020  0.00  0.00    +0.057 C 
ATOM      7  C   LIG    1        3.701   0.282  -0.659  0.00  0.00    +0.048 A 
ATOM      8  C   LIG    1        2.445   0.846  -0.810  0.00  0.00    +0.033 A 
ENDROOT
BRANCH   8   9
ATOM      9  C   LIG    1        2.117   2.072  -1.596  0.00  0.00    -0.003 A 
ATOM     10  C   LIG    1        2.686   3.358  -1.329  0.00  0.00    +0.009 A 
ATOM     11  C   LIG    1        3.599   3.612  -0.270  0.00  0.00    +0.023 A 
ATOM     12  C   LIG    1        4.135   4.889  -0.054  0.00  0.00    +0.037 A 
ATOM     13  C   LIG    1        3.744   5.936  -0.900  0.00  0.00    +0.015 A 
ATOM     14  C   LIG    1        2.842   5.730  -1.939  0.00  0.00    +0.029 A 
ATOM     15  C   LIG    1        2.299   4.446  -2.170  0.00  0.00    +0.072 A 
ATOM     16  N   LIG    1        1.416   4.294  -3.195  0.00  0.00    -0.255 NA
ATOM     17  C   LIG    1        0.893   3.066  -3.416  0.00  0.00    +0.112 A 
ATOM     18  C   LIG    1        1.214   1.948  -2.654  0.00  0.00    +0.029 A 
BRANCH  12  19
ATOM     19  C   LIG    1        5.115   5.106   1.082  0.00  0.00    +0.242 C 
ATOM     20  N   LIG    1        5.708   6.303   1.168  0.00  0.00    -0.325 N 
ATOM     21  H   LIG    1        6.371   6.485   1.907  0.00  0.00    +0.145 HD
ATOM     22  H   LIG    1        5.497   7.028   0.499  0.00  0.00    +0.145 HD
ATOM     23  O   LIG    1        5.370   4.215   1.892  0.00  0.00    -0.270 OA
ENDBRANCH  12  19
ENDBRANCH   8   9
BRANCH   1  27
ATOM     24  C   LIG    1       -2.265   2.934   0.088  0.00  0.00    +0.065 C 
ATOM     25  C   LIG    1       -1.752   1.515   0.239  0.00  0.00    +0.039 A 
ATOM     26  N   LIG    1       -0.419   1.348   0.046  0.00  0.00    -0.250 NA
ATOM     27  C   LIG    1        0.106   0.096   0.155  0.00  0.00    +0.092 A 
ATOM     28  C   LIG    1       -0.694  -1.012   0.472  0.00  0.00    +0.030 A 
ATOM     29  C   LIG    1       -2.063  -0.824   0.672  0.00  0.00    +0.004 A 
ATOM     30  C   LIG    1       -2.607   0.456   0.554  0.00  0.00    +0.023 A 
ENDBRANCH   1  27
TORSDOF 3
