REMARK  Name = DB11481
REMARK                            x       y       z     vdW  Elec       q    Type
REMARK                         _______ _______ _______ _____ _____    ______ ____
ROOT
ATOM      1  C   LIG    1       -4.106  -2.358  -0.707  0.00  0.00    +0.000 A 
ATOM      2  C   LIG    1       -3.030  -1.797  -1.397  0.00  0.00    +0.004 A 
ATOM      3  C   LIG    1       -1.981  -1.210  -0.687  0.00  0.00    -0.044 A 
ATOM      4  C   LIG    1       -0.675  -0.640  -1.195  0.00  0.00    +0.044 C 
ATOM      5  C   LIG    1       -0.055   0.079   0.029  0.00  0.00    +0.000 C 
ATOM      6  C   LIG    1       -0.687  -0.659   1.236  0.00  0.00    +0.044 C 
ATOM      7  C   LIG    1       -1.989  -1.219   0.709  0.00  0.00    -0.044 A 
ATOM      8  C   LIG    1       -3.046  -1.815   1.400  0.00  0.00    +0.004 A 
ATOM      9  C   LIG    1       -4.114  -2.366   0.690  0.00  0.00    +0.000 A 
ENDROOT
BRANCH   5  10
ATOM     10  C   LIG    1       -0.475   1.559   0.004  0.00  0.00    +0.064 C 
ATOM     11  N   LIG    1       -0.013   2.440  -0.968  0.00  0.00    -0.290 NA
ATOM     12  H   LIG    1        0.620   2.190  -1.715  0.00  0.00    +0.124 HD
ATOM     13  C   LIG    1       -0.537   3.697  -0.771  0.00  0.00    +0.155 C 
ATOM     14  N   LIG    1       -1.346   3.624   0.336  0.00  0.00    -0.293 NA
ATOM     15  H   LIG    1       -1.874   4.389   0.732  0.00  0.00    +0.124 HD
ATOM     16  C   LIG    1       -1.319   2.326   0.817  0.00  0.00    +0.096 C 
ENDBRANCH   5  10
BRANCH   5  17
ATOM     17  C   LIG    1        1.497  -0.045   0.029  0.00  0.00    +0.006 C 
ATOM     18  C   LIG    1        2.208   0.614   1.226  0.00  0.00    +0.004 C 
ENDBRANCH   5  17
TORSDOF 2
