REMARK  Name = DB11967
REMARK                            x       y       z     vdW  Elec       q    Type
REMARK                         _______ _______ _______ _____ _____    ______ ____
ROOT
ATOM      1  C   LIG    1       -2.790   3.814  -0.204  0.00  0.00    +0.150 C 
ATOM      2  N   LIG    1       -3.040   2.396  -0.013  0.00  0.00    -0.333 N 
ATOM      3  C   LIG    1       -2.114   1.372  -0.052  0.00  0.00    +0.072 A 
ATOM      4  C   LIG    1       -0.736   1.334  -0.266  0.00  0.00    +0.043 A 
ATOM      5  C   LIG    1       -0.102   0.079  -0.240  0.00  0.00    +0.065 A 
ATOM      6  C   LIG    1       -0.843  -1.102   0.021  0.00  0.00    +0.082 A 
ATOM      7  C   LIG    1       -2.237  -1.043   0.203  0.00  0.00    +0.172 A 
ATOM      8  F   LIG    1       -2.976  -2.163   0.394  0.00  0.00    -0.201 F 
ATOM      9  C   LIG    1       -2.874   0.203   0.179  0.00  0.00    +0.126 A 
ATOM     10  N   LIG    1       -4.202   0.500   0.347  0.00  0.00    -0.233 NA
ATOM     11  C   LIG    1       -4.258   1.801   0.226  0.00  0.00    +0.200 A 
ENDROOT
BRANCH   5  12
ATOM     12  C   LIG    1        1.392   0.045  -0.501  0.00  0.00    +0.269 C 
ATOM     13  N   LIG    1        2.115   0.957   0.181  0.00  0.00    -0.190 N 
ATOM     14  H   LIG    1        1.784   1.471   0.984  0.00  0.00    +0.183 HD
ATOM     15  O   LIG    1        1.878  -0.777  -1.282  0.00  0.00    -0.268 OA
BRANCH  13  16
ATOM     16  O   LIG    1        3.511   0.939   0.094  0.00  0.00    -0.277 OA
BRANCH  16  17
ATOM     17  C   LIG    1        3.981   1.832  -0.917  0.00  0.00    +0.218 C 
BRANCH  17  18
ATOM     18  C   LIG    1        3.751   3.314  -0.559  0.00  0.00    +0.186 C 
BRANCH  18  19
ATOM     19  O   LIG    1        4.321   4.155  -1.539  0.00  0.00    -0.393 OA
ATOM     20  H   LIG    1        4.168   5.069  -1.286  0.00  0.00    +0.209 HD
ENDBRANCH  18  19
ENDBRANCH  17  18
ENDBRANCH  16  17
ENDBRANCH  13  16
ENDBRANCH   5  12
BRANCH   6  21
ATOM     21  N   LIG    1       -0.213  -2.364   0.027  0.00  0.00    -0.309 N 
ATOM     22  H   LIG    1        0.529  -2.471  -0.651  0.00  0.00    +0.152 HD
BRANCH  21  23
ATOM     23  C   LIG    1       -0.378  -3.452   0.900  0.00  0.00    +0.067 A 
ATOM     24  C   LIG    1       -0.722  -3.296   2.255  0.00  0.00    +0.145 A 
ATOM     25  F   LIG    1       -0.938  -2.069   2.788  0.00  0.00    -0.204 F 
ATOM     26  C   LIG    1       -0.830  -4.414   3.082  0.00  0.00    +0.055 A 
ATOM     27  C   LIG    1       -0.579  -5.689   2.577  0.00  0.00    +0.021 A 
ATOM     28 BR   LIG    1       -0.726  -7.210   3.712  0.00  0.00    -0.050 Br
ATOM     29  C   LIG    1       -0.210  -5.848   1.242  0.00  0.00    +0.017 A 
ATOM     30  C   LIG    1       -0.102  -4.732   0.411  0.00  0.00    +0.027 A 
ENDBRANCH  21  23
ENDBRANCH   6  21
TORSDOF 7
