REMARK  Name = DB11431
REMARK                            x       y       z     vdW  Elec       q    Type
REMARK                         _______ _______ _______ _____ _____    ______ ____
ROOT
ATOM      1  O   LIG    1       -3.060   9.078   3.470  0.00  0.00    -0.366 OA
ATOM      2  C   LIG    1       -3.154   7.833   4.160  0.00  0.00    +0.194 C 
ATOM      3  C   LIG    1       -1.832   7.113   3.929  0.00  0.00    -0.009 C 
ATOM      4  C   LIG    1       -1.282   6.098   4.626  0.00  0.00    +0.004 C 
ATOM      5  C   LIG    1       -1.915   5.435   5.750  0.00  0.00    -0.004 C 
ATOM      6  C   LIG    1       -1.334   4.426   6.424  0.00  0.00    -0.023 C 
ATOM      7  C   LIG    1       -1.970   3.670   7.584  0.00  0.00    +0.013 C 
ATOM      8  C   LIG    1       -1.240   3.957   8.908  0.00  0.00    +0.012 C 
ATOM      9  C   LIG    1       -2.081   2.145   7.329  0.00  0.00    +0.037 C 
ATOM     10  C   LIG    1       -2.725   1.737   6.003  0.00  0.00    -0.076 C 
ATOM     11  C   LIG    1       -4.175   2.182   5.838  0.00  0.00    +0.039 C 
ATOM     12  C   LIG    1       -2.023   1.047   5.075  0.00  0.00    -0.025 C 
ATOM     13  C   LIG    1       -2.484   0.586   3.698  0.00  0.00    +0.059 C 
ATOM     14  C   LIG    1       -1.890   1.404   2.533  0.00  0.00    +0.129 C 
ATOM     15  C   LIG    1       -2.177   2.914   2.655  0.00  0.00    +0.076 C 
ATOM     16  C   LIG    1       -1.701   3.658   1.405  0.00  0.00    +0.184 C 
ATOM     17  C   LIG    1       -2.266   2.987   0.141  0.00  0.00    +0.110 C 
ATOM     18  C   LIG    1       -1.906   1.490   0.113  0.00  0.00    +0.180 C 
ATOM     19  C   LIG    1       -2.543   0.771  -1.091  0.00  0.00    +0.119 C 
ATOM     20  C   LIG    1       -2.075  -0.691  -1.202  0.00  0.00    +0.068 C 
ATOM     21  C   LIG    1       -0.536  -0.755  -1.227  0.00  0.00    +0.067 C 
ATOM     22  C   LIG    1        0.007  -2.208  -1.276  0.00  0.00    +0.017 C 
ATOM     23  C   LIG    1        0.016   0.057  -0.016  0.00  0.00    +0.155 C 
ATOM     24  N   LIG    1       -2.821  -1.725  -1.290  0.00  0.00    -0.094 NA
ATOM     25  O   LIG    1       -0.504   1.394   0.019  0.00  0.00    -0.340 OA
ATOM     26  O   LIG    1       -2.076   5.024   1.543  0.00  0.00    -0.461 OA
ATOM     27  C   LIG    1       -1.447   6.022   0.884  0.00  0.00    +0.317 C 
ATOM     28  C   LIG    1       -1.934   7.406   1.368  0.00  0.00    +0.159 C 
ATOM     29  C   LIG    1       -1.846   8.494   0.304  0.00  0.00    -0.008 C 
ATOM     30  C   LIG    1       -1.695   9.810   0.563  0.00  0.00    -0.045 C 
ATOM     31  C   LIG    1       -1.615  10.822  -0.571  0.00  0.00    +0.041 C 
ATOM     32  C   LIG    1       -1.510  10.347   1.989  0.00  0.00    +0.172 C 
ATOM     33  O   LIG    1       -0.569   5.887   0.028  0.00  0.00    -0.250 OA
ATOM     34  O   LIG    1       -2.392   0.878   1.294  0.00  0.00    -0.344 OA
ATOM     35  C   LIG    1       -1.276   7.855   2.727  0.00  0.00    +0.134 C 
ATOM     36  C   LIG    1       -1.701   9.280   3.107  0.00  0.00    +0.188 C 
ENDROOT
BRANCH  23  37
ATOM     37  C   LIG    1        1.544   0.158  -0.037  0.00  0.00    -0.047 C 
ATOM     38  C   LIG    1        2.138   0.945  -1.204  0.00  0.00    +0.041 C 
ATOM     39  C   LIG    1        2.281  -0.401   0.949  0.00  0.00    -0.023 C 
BRANCH  39  40
ATOM     40  C   LIG    1        3.798  -0.427   1.090  0.00  0.00    +0.006 C 
ATOM     41  C   LIG    1        4.292   0.625   2.097  0.00  0.00    +0.011 C 
ATOM     42  C   LIG    1        4.310  -1.831   1.455  0.00  0.00    +0.011 C 
ENDBRANCH  39  40
ENDBRANCH  23  37
BRANCH  24  43
ATOM     43  O   LIG    1       -4.189  -1.406  -1.255  0.00  0.00    -0.397 OA
ATOM     44  C   LIG    1       -4.942  -2.605  -1.342  0.00  0.00    +0.313 C 
ENDBRANCH  24  43
BRANCH  32  45
ATOM     45  O   LIG    1       -2.334  11.469   2.246  0.00  0.00    -0.385 OA
ATOM     46  H   LIG    1       -3.246  11.172   2.276  0.00  0.00    +0.210 HD
ENDBRANCH  32  45
BRANCH  35  47
ATOM     47  O   LIG    1        0.141   7.767   2.614  0.00  0.00    -0.380 OA
ATOM     48  H   LIG    1        0.419   8.296   1.863  0.00  0.00    +0.211 HD
ENDBRANCH  35  47
TORSDOF 5
