REMARK  Name = DB11586
REMARK                            x       y       z     vdW  Elec       q    Type
REMARK                         _______ _______ _______ _____ _____    ______ ____
ROOT
ATOM      1  C   LIG    1       -0.519   2.171   0.852  0.00  0.00    +0.237 C 
ATOM      2  N   LIG    1       -0.277   1.358  -0.211  0.00  0.00    -0.285 N 
ATOM      3  C   LIG    1       -0.644   1.661  -1.603  0.00  0.00    +0.153 C 
ATOM      4  C   LIG    1       -0.251   0.417  -2.402  0.00  0.00    +0.195 C 
ATOM      5  C   LIG    1       -0.210  -0.709  -1.372  0.00  0.00    +0.078 C 
ATOM      6  C   LIG    1        0.212  -0.028  -0.062  0.00  0.00    +0.166 C 
ATOM      7  O   LIG    1       -0.284   1.818   2.012  0.00  0.00    -0.274 OA
ENDROOT
BRANCH   6   8
ATOM      8  C   LIG    1        1.742  -0.079   0.155  0.00  0.00    +0.234 C 
ATOM      9  N   LIG    1        2.179  -1.009   1.023  0.00  0.00    -0.299 N 
ATOM     10  H   LIG    1        1.499  -1.644   1.414  0.00  0.00    +0.150 HD
ATOM     11  O   LIG    1        2.500   0.607  -0.536  0.00  0.00    -0.274 OA
BRANCH   9  12
ATOM     12  C   LIG    1        3.585  -1.364   1.227  0.00  0.00    +0.119 C 
ATOM     13  C   LIG    1        4.112  -1.446   2.654  0.00  0.00    +0.046 C 
ATOM     14  C   LIG    1        4.534  -0.296   1.772  0.00  0.00    +0.046 C 
BRANCH  12  15
ATOM     15  C   LIG    1        4.106  -2.485   0.306  0.00  0.00    +0.256 C 
ATOM     16  O   LIG    1        4.950  -2.281  -0.566  0.00  0.00    -0.272 OA
ATOM     17  N   LIG    1        3.470  -3.731   0.502  0.00  0.00    -0.188 N 
ATOM     18  H   LIG    1        2.789  -3.833   1.258  0.00  0.00    +0.176 HD
BRANCH  17  19
ATOM     19  S   LIG    1        3.595  -5.109  -0.584  0.00  0.00    +0.048 S 
ATOM     20  O   LIG    1        2.818  -6.205   0.006  0.00  0.00    -0.155 OA
ATOM     21  O   LIG    1        5.011  -5.307  -0.912  0.00  0.00    -0.155 OA
BRANCH  19  22
ATOM     22  C   LIG    1        2.703  -4.501  -2.143  0.00  0.00    +0.151 C 
ATOM     23  C   LIG    1        2.173  -5.540  -3.089  0.00  0.00    +0.030 C 
ATOM     24  C   LIG    1        1.218  -4.719  -2.227  0.00  0.00    +0.030 C 
ENDBRANCH  19  22
ENDBRANCH  17  19
ENDBRANCH  12  15
BRANCH  14  25
ATOM     25  C   LIG    1        6.006  -0.194   1.404  0.00  0.00    -0.028 C 
ATOM     26  C   LIG    1        6.658   0.961   1.207  0.00  0.00    +0.004 C 
ENDBRANCH  14  25
ENDBRANCH   9  12
ENDBRANCH   6   8
BRANCH   1  27
ATOM     27  C   LIG    1       -1.057   3.618   0.612  0.00  0.00    +0.168 C 
BRANCH  27  29
ATOM     28  C   LIG    1       -3.315   4.519   1.226  0.00  0.00    +0.401 C 
ATOM     29  N   LIG    1       -2.167   3.813   1.565  0.00  0.00    -0.269 N 
ATOM     30  H   LIG    1       -2.084   3.413   2.488  0.00  0.00    +0.153 HD
ATOM     31  O   LIG    1       -3.556   5.042   0.137  0.00  0.00    -0.226 OA
BRANCH  28  32
ATOM     32  O   LIG    1       -4.143   4.535   2.305  0.00  0.00    -0.445 OA
BRANCH  32  34
ATOM     33  C   LIG    1       -6.415   4.537   1.333  0.00  0.00    +0.055 C 
ATOM     34  C   LIG    1       -5.436   5.166   2.356  0.00  0.00    +0.107 C 
ATOM     35  C   LIG    1       -5.943   4.882   3.785  0.00  0.00    +0.055 C 
ATOM     36  C   LIG    1       -5.325   6.697   2.146  0.00  0.00    +0.055 C 
ENDBRANCH  32  34
ENDBRANCH  28  32
ENDBRANCH  27  29
BRANCH  27  37
ATOM     37  C   LIG    1        0.083   4.713   0.753  0.00  0.00    -0.011 C 
ATOM     38  C   LIG    1        1.280   4.428  -0.196  0.00  0.00    +0.013 C 
ATOM     39  C   LIG    1       -0.469   6.110   0.365  0.00  0.00    +0.013 C 
ATOM     40  C   LIG    1        0.628   4.829   2.203  0.00  0.00    +0.013 C 
ENDBRANCH  27  37
ENDBRANCH   1  27
BRANCH   4  41
ATOM     41  O   LIG    1       -1.221   0.194  -3.432  0.00  0.00    -0.471 OA
BRANCH  41  42
ATOM     42  C   LIG    1       -1.063  -0.824  -4.362  0.00  0.00    +0.223 A 
ATOM     43  C   LIG    1       -2.116  -1.071  -5.281  0.00  0.00    +0.049 A 
ATOM     44  C   LIG    1       -3.326  -0.328  -5.290  0.00  0.00    +0.034 A 
ATOM     45  C   LIG    1       -4.323  -0.618  -6.217  0.00  0.00    +0.042 A 
ATOM     46 CL   LIG    1       -5.787   0.296  -6.213  0.00  0.00    -0.084 Cl
ATOM     47  C   LIG    1       -4.147  -1.638  -7.145  0.00  0.00    +0.021 A 
ATOM     48  C   LIG    1       -2.974  -2.386  -7.163  0.00  0.00    +0.014 A 
ATOM     49  C   LIG    1       -1.931  -2.123  -6.234  0.00  0.00    +0.030 A 
ATOM     50  C   LIG    1       -0.714  -2.869  -6.221  0.00  0.00    +0.146 A 
ATOM     51  C   LIG    1        0.251  -2.520  -5.264  0.00  0.00    +0.160 A 
ATOM     52  N   LIG    1        0.097  -1.530  -4.357  0.00  0.00    -0.217 NA
BRANCH  50  53
ATOM     53  O   LIG    1       -0.553  -3.886  -7.145  0.00  0.00    -0.493 OA
ATOM     54  C   LIG    1        0.618  -4.693  -7.096  0.00  0.00    +0.277 C 
ENDBRANCH  50  53
ENDBRANCH  41  42
ENDBRANCH   4  41
TORSDOF 14
