REMARK  Name = DB11986
REMARK                            x       y       z     vdW  Elec       q    Type
REMARK                         _______ _______ _______ _____ _____    ______ ____
ROOT
ATOM      1  C   LIG    1        1.471   0.217  -0.479  0.00  0.00    +0.251 C 
ATOM      2  N   LIG    1        2.174   1.131   0.230  0.00  0.00    -0.264 N 
ATOM      3  H   LIG    1        1.648   1.802   0.770  0.00  0.00    +0.157 HD
ATOM      4  O   LIG    1        1.967  -0.558  -1.300  0.00  0.00    -0.270 OA
ENDROOT
BRANCH   2   5
ATOM      5  C   LIG    1        3.543   1.348   0.153  0.00  0.00    +0.155 A 
ATOM      6  N   LIG    1        4.456   0.473  -0.207  0.00  0.00    -0.157 NA
ATOM      7  N   LIG    1        5.647   1.095  -0.152  0.00  0.00    -0.275 N 
ATOM      8  H   LIG    1        6.491   0.599  -0.395  0.00  0.00    +0.189 HD
ATOM      9  C   LIG    1        5.525   2.410   0.254  0.00  0.00    +0.068 A 
ATOM     10  C   LIG    1        6.466   3.425   0.450  0.00  0.00    +0.028 A 
ATOM     11  C   LIG    1        5.976   4.665   0.866  0.00  0.00    +0.006 A 
ATOM     12  C   LIG    1        4.614   4.893   1.083  0.00  0.00    -0.042 A 
ATOM     13  C   LIG    1        3.685   3.865   0.897  0.00  0.00    +0.017 A 
ATOM     14  C   LIG    1        4.140   2.607   0.469  0.00  0.00    +0.042 A 
BRANCH  12  15
ATOM     15  C   LIG    1        4.134   6.267   1.537  0.00  0.00    +0.070 C 
BRANCH  15  16
ATOM     16  C   LIG    1        3.160   6.926   0.569  0.00  0.00    -0.038 A 
ATOM     17  C   LIG    1        3.625   7.467  -0.635  0.00  0.00    +0.042 A 
ATOM     18  C   LIG    1        2.736   8.073  -1.523  0.00  0.00    +0.126 A 
ATOM     19  F   LIG    1        3.189   8.586  -2.689  0.00  0.00    -0.205 F 
ATOM     20  C   LIG    1        1.379   8.149  -1.209  0.00  0.00    +0.076 A 
ATOM     21  C   LIG    1        0.910   7.621  -0.006  0.00  0.00    +0.126 A 
ATOM     22  F   LIG    1       -0.405   7.695   0.299  0.00  0.00    -0.205 F 
ATOM     23  C   LIG    1        1.799   7.014   0.882  0.00  0.00    +0.042 A 
ENDBRANCH  15  16
ENDBRANCH  12  15
ENDBRANCH   2   5
BRANCH   1  27
ATOM     24  C   LIG    1       -2.812   0.300   0.288  0.00  0.00    +0.032 A 
ATOM     25  C   LIG    1       -2.151  -0.923   0.131  0.00  0.00    +0.046 A 
ATOM     26  C   LIG    1       -0.768  -1.002  -0.109  0.00  0.00    +0.041 A 
ATOM     27  C   LIG    1       -0.021   0.200  -0.201  0.00  0.00    +0.058 A 
ATOM     28  C   LIG    1       -0.690   1.424  -0.044  0.00  0.00    +0.017 A 
ATOM     29  C   LIG    1       -2.058   1.473   0.196  0.00  0.00    +0.024 A 
BRANCH  24  34
ATOM     30  C   LIG    1       -8.466   0.200   0.984  0.00  0.00    +0.105 C 
ATOM     31  N   LIG    1       -7.044   0.468   1.172  0.00  0.00    -0.302 NA
ATOM     32  C   LIG    1       -6.309  -0.788   1.311  0.00  0.00    +0.103 C 
ATOM     33  C   LIG    1       -4.808  -0.515   1.559  0.00  0.00    +0.120 C 
ATOM     34  N   LIG    1       -4.183   0.337   0.530  0.00  0.00    -0.327 N 
ATOM     35  C   LIG    1       -5.015   1.514   0.218  0.00  0.00    +0.120 C 
ATOM     36  C   LIG    1       -6.510   1.181   0.012  0.00  0.00    +0.103 C 
ENDBRANCH  24  34
BRANCH  26  37
ATOM     37  N   LIG    1       -0.128  -2.255  -0.251  0.00  0.00    -0.340 N 
ATOM     38  H   LIG    1        0.870  -2.254  -0.094  0.00  0.00    +0.146 HD
BRANCH  37  39
ATOM     39  C   LIG    1       -0.795  -3.548  -0.104  0.00  0.00    +0.075 C 
ATOM     40  C   LIG    1        0.050  -4.621  -0.819  0.00  0.00    +0.050 C 
ATOM     41  C   LIG    1       -0.496  -6.030  -0.519  0.00  0.00    +0.161 C 
ATOM     42  O   LIG    1       -0.559  -6.240   0.892  0.00  0.00    -0.380 OA
ATOM     43  C   LIG    1       -1.432  -5.339   1.573  0.00  0.00    +0.161 C 
ATOM     44  C   LIG    1       -0.937  -3.891   1.396  0.00  0.00    +0.050 C 
ENDBRANCH  37  39
ENDBRANCH  26  37
ENDBRANCH   1  27
TORSDOF 7
