REMARK  Name = DB11859
REMARK                            x       y       z     vdW  Elec       q    Type
REMARK                         _______ _______ _______ _____ _____    ______ ____
ROOT
ATOM      1  C   LIG    1       -3.490  -1.790   5.633  0.00  0.00    +0.010 C 
ATOM      2  C   LIG    1       -4.361  -2.554   6.660  0.00  0.00    +0.032 C 
ATOM      3  C   LIG    1       -5.764  -2.892   6.105  0.00  0.00    +0.115 C 
ATOM      4  C   LIG    1       -5.646  -3.593   4.733  0.00  0.00    +0.035 C 
ATOM      5  C   LIG    1       -4.792  -2.783   3.721  0.00  0.00    -0.002 C 
ATOM      6  C   LIG    1       -4.773  -3.434   2.316  0.00  0.00    +0.004 C 
ATOM      7  C   LIG    1       -4.036  -2.544   1.302  0.00  0.00    +0.004 C 
ATOM      8  C   LIG    1       -2.597  -2.210   1.767  0.00  0.00    -0.004 C 
ATOM      9  C   LIG    1       -2.633  -1.578   3.206  0.00  0.00    -0.001 C 
ATOM     10  C   LIG    1       -1.236  -1.031   3.651  0.00  0.00    +0.005 C 
ATOM     11  C   LIG    1       -0.547  -0.161   2.570  0.00  0.00    +0.008 C 
ATOM     12  C   LIG    1       -0.440  -0.904   1.214  0.00  0.00    -0.019 C 
ATOM     13  C   LIG    1        0.486  -2.161   1.333  0.00  0.00    +0.012 C 
ATOM     14  C   LIG    1       -0.059  -0.002   0.001  0.00  0.00    +0.061 C 
ATOM     15  C   LIG    1       -0.632  -0.741  -1.239  0.00  0.00    +0.012 C 
ATOM     16  C   LIG    1       -1.791  -1.607  -0.707  0.00  0.00    +0.005 C 
ATOM     17  C   LIG    1       -1.888  -1.242   0.782  0.00  0.00    -0.001 C 
ATOM     18  C   LIG    1       -3.336  -2.524   4.260  0.00  0.00    -0.026 C 
ATOM     19  C   LIG    1       -2.535  -3.849   4.461  0.00  0.00    +0.012 C 
ENDROOT
BRANCH  14  20
ATOM     20  C   LIG    1        1.448   0.326  -0.111  0.00  0.00    +0.134 C 
ATOM     21  O   LIG    1        2.224  -0.349  -0.787  0.00  0.00    -0.297 OA
ATOM     22  C   LIG    1        1.940   1.574   0.615  0.00  0.00    +0.086 C 
ENDBRANCH  14  20
BRANCH   3  23
ATOM     23  O   LIG    1       -6.550  -1.719   5.996  0.00  0.00    -0.392 OA
ATOM     24  H   LIG    1       -7.339  -1.829   6.531  0.00  0.00    +0.210 HD
ENDBRANCH   3  23
TORSDOF 2
