REMARK  Name = DB11183
REMARK                            x       y       z     vdW  Elec       q    Type
REMARK                         _______ _______ _______ _____ _____    ______ ____
ROOT
ATOM      1  C   LIG    1       -0.880   1.027   0.325  0.00  0.00    -0.017 C 
ATOM      2  C   LIG    1       -0.324   2.336  -0.025  0.00  0.00    +0.010 C 
ATOM      3  C   LIG    1       -1.084   3.399  -0.387  0.00  0.00    +0.026 C 
ATOM      4  C   LIG    1       -2.494   3.333  -0.452  0.00  0.00    +0.038 C 
ATOM      5  C   LIG    1       -3.078   2.091  -0.127  0.00  0.00    +0.026 C 
ATOM      6  N   LIG    1       -3.247   4.408  -0.809  0.00  0.00    -0.367 N 
ATOM      7  C   LIG    1       -2.342   1.013   0.235  0.00  0.00    +0.010 C 
ATOM      8  C   LIG    1       -0.128  -0.054   0.688  0.00  0.00    -0.004 C 
ENDROOT
BRANCH   8   9
ATOM      9  C   LIG    1       -0.711  -1.405   0.928  0.00  0.00    -0.017 A 
ATOM     10  C   LIG    1       -1.493  -2.031  -0.051  0.00  0.00    +0.010 A 
ATOM     11  C   LIG    1       -2.035  -3.292   0.178  0.00  0.00    +0.030 A 
ATOM     12  C   LIG    1       -1.792  -3.945   1.388  0.00  0.00    +0.117 A 
ATOM     13  C   LIG    1       -1.009  -3.332   2.368  0.00  0.00    +0.030 A 
ATOM     14  C   LIG    1       -0.467  -2.071   2.135  0.00  0.00    +0.010 A 
BRANCH  12  15
ATOM     15  S   LIG    1       -2.521  -5.561   1.683  0.00  0.00    +0.110 S 
ATOM     16  O   LIG    1       -2.450  -6.207   0.367  0.00  0.00    -0.142 OA
ATOM     17  O   LIG    1       -3.872  -5.209   2.132  0.00  0.00    -0.142 OA
BRANCH  15  18
ATOM     18  O   LIG    1       -1.656  -6.153   2.710  0.00  0.00    -0.250 OA
ATOM     19  H   LIG    1       -1.764  -5.668   3.543  0.00  0.00    +0.245 HD
ENDBRANCH  15  18
ENDBRANCH  12  15
ENDBRANCH   8   9
BRANCH   8  20
ATOM     20  C   LIG    1        1.350   0.007   0.879  0.00  0.00    -0.017 A 
ATOM     21  C   LIG    1        1.926   0.949   1.736  0.00  0.00    +0.010 A 
ATOM     22  C   LIG    1        3.305   0.995   1.913  0.00  0.00    +0.024 A 
ATOM     23  C   LIG    1        4.156   0.099   1.244  0.00  0.00    +0.030 A 
ATOM     24  C   LIG    1        3.562  -0.849   0.394  0.00  0.00    +0.024 A 
ATOM     25  C   LIG    1        2.182  -0.898   0.218  0.00  0.00    +0.010 A 
BRANCH  23  26
ATOM     26  N   LIG    1        5.571   0.144   1.422  0.00  0.00    -0.326 N 
BRANCH  26  27
ATOM     27  C   LIG    1        6.210   1.189   2.229  0.00  0.00    +0.102 C 
ATOM     28  C   LIG    1        6.381   2.520   1.480  0.00  0.00    +0.024 C 
ENDBRANCH  26  27
BRANCH  26  29
ATOM     29  C   LIG    1        6.462  -0.665   0.575  0.00  0.00    +0.140 C 
BRANCH  29  30
ATOM     30  C   LIG    1        6.525  -2.145   0.963  0.00  0.00    -0.028 A 
ATOM     31  C   LIG    1        6.293  -2.586   2.274  0.00  0.00    +0.005 A 
ATOM     32  C   LIG    1        6.388  -3.940   2.590  0.00  0.00    +0.002 A 
ATOM     33  C   LIG    1        6.731  -4.866   1.606  0.00  0.00    +0.029 A 
ATOM     34  C   LIG    1        6.995  -4.437   0.301  0.00  0.00    +0.117 A 
ATOM     35  C   LIG    1        6.894  -3.078  -0.011  0.00  0.00    +0.034 A 
BRANCH  34  36
ATOM     36  S   LIG    1        7.432  -5.611  -0.985  0.00  0.00    +0.110 S 
ATOM     37  O   LIG    1        7.885  -6.795  -0.244  0.00  0.00    -0.142 OA
ATOM     38  O   LIG    1        8.483  -4.908  -1.731  0.00  0.00    -0.142 OA
BRANCH  36  39
ATOM     39  O   LIG    1        6.161  -5.769  -1.699  0.00  0.00    -0.250 OA
ATOM     40  H   LIG    1        5.942  -4.943  -2.157  0.00  0.00    +0.245 HD
ENDBRANCH  36  39
ENDBRANCH  34  36
ENDBRANCH  29  30
ENDBRANCH  26  29
ENDBRANCH  23  26
ENDBRANCH   8  20
BRANCH   6  41
ATOM     41  C   LIG    1       -2.646   5.745  -1.160  0.00  0.00    +0.113 C 
ATOM     42  C   LIG    1       -2.168   5.775  -2.622  0.00  0.00    +0.027 C 
ENDBRANCH   6  41
BRANCH   6  43
ATOM     43  C   LIG    1       -4.753   4.358  -0.897  0.00  0.00    +0.151 C 
BRANCH  43  44
ATOM     44  C   LIG    1       -5.460   4.437   0.451  0.00  0.00    -0.026 A 
ATOM     45  C   LIG    1       -5.314   5.564   1.266  0.00  0.00    +0.005 A 
ATOM     46  C   LIG    1       -5.965   5.631   2.497  0.00  0.00    +0.002 A 
ATOM     47  C   LIG    1       -6.768   4.573   2.922  0.00  0.00    +0.029 A 
ATOM     48  C   LIG    1       -6.921   3.441   2.115  0.00  0.00    +0.117 A 
ATOM     49  C   LIG    1       -6.275   3.384   0.876  0.00  0.00    +0.035 A 
BRANCH  48  50
ATOM     50  S   LIG    1       -7.954   2.067   2.634  0.00  0.00    +0.110 S 
ATOM     51  O   LIG    1       -8.102   2.262   4.081  0.00  0.00    -0.142 OA
ATOM     52  O   LIG    1       -7.160   0.895   2.244  0.00  0.00    -0.142 OA
BRANCH  50  53
ATOM     53  O   LIG    1       -9.172   2.284   1.846  0.00  0.00    -0.250 OA
ATOM     54  H   LIG    1       -8.981   2.134   0.907  0.00  0.00    +0.245 HD
ENDBRANCH  50  53
ENDBRANCH  48  50
ENDBRANCH  43  44
ENDBRANCH   6  43
TORSDOF 15
