REMARK  Name = DB11667
REMARK                            x       y       z     vdW  Elec       q    Type
REMARK                         _______ _______ _______ _____ _____    ______ ____
ROOT
ATOM      1  C   LIG    1        1.551  -0.157  -0.126  0.00  0.00    +0.243 C 
ATOM      2  O   LIG    1        2.134   1.047   0.284  0.00  0.00    -0.347 OA
ATOM      3  C   LIG    1        3.435   1.232  -0.270  0.00  0.00    +0.176 C 
ATOM      4  C   LIG    1        3.599   0.047  -1.236  0.00  0.00    +0.167 C 
ATOM      5  C   LIG    1        2.176  -0.437  -1.495  0.00  0.00    +0.172 C 
ENDROOT
BRANCH   1  11
ATOM      6  C   LIG    1       -1.935   1.036   0.389  0.00  0.00    +0.061 A 
ATOM      7  C   LIG    1       -2.645  -0.153   0.020  0.00  0.00    +0.123 A 
ATOM      8  N   LIG    1       -2.018  -1.224  -0.329  0.00  0.00    -0.178 NA
ATOM      9  C   LIG    1       -0.607  -1.309  -0.361  0.00  0.00    +0.352 A 
ATOM     10  O   LIG    1        0.020  -2.329  -0.655  0.00  0.00    -0.244 OA
ATOM     11  N   LIG    1        0.089  -0.155  -0.025  0.00  0.00    -0.271 N 
ATOM     12  C   LIG    1       -0.596   0.981   0.349  0.00  0.00    +0.096 A 
BRANCH   7  13
ATOM     13  N   LIG    1       -3.984  -0.112   0.048  0.00  0.00    -0.343 N 
ATOM     14  H   LIG    1       -4.524  -0.926  -0.210  0.00  0.00    +0.144 HD
ATOM     15  H   LIG    1       -4.467   0.728   0.331  0.00  0.00    +0.144 HD
ENDBRANCH   7  13
ENDBRANCH   1  11
BRANCH   4  16
ATOM     16  O   LIG    1        4.417  -0.981  -0.706  0.00  0.00    -0.388 OA
ATOM     17  H   LIG    1        4.359  -1.748  -1.282  0.00  0.00    +0.210 HD
ENDBRANCH   4  16
BRANCH   5  18
ATOM     18  C   LIG    1        1.518   0.286  -2.600  0.00  0.00    +0.073 C 
ATOM     19  N   LIG    1        1.001   0.853  -3.466  0.00  0.00    -0.196 NA
ENDBRANCH   5  18
BRANCH   3  20
ATOM     20  C   LIG    1        3.475   2.612  -0.959  0.00  0.00    +0.190 C 
BRANCH  20  21
ATOM     21  O   LIG    1        3.346   3.654  -0.013  0.00  0.00    -0.392 OA
ATOM     22  H   LIG    1        3.367   4.494  -0.477  0.00  0.00    +0.210 HD
ENDBRANCH  20  21
ENDBRANCH   3  20
TORSDOF 6
