REMARK  Name = DB11781
REMARK                            x       y       z     vdW  Elec       q    Type
REMARK                         _______ _______ _______ _____ _____    ______ ____
ROOT
ATOM      1  C   LIG    1        1.131  -0.206  -0.051  0.00  0.00    +0.220 C 
ATOM      2  N   LIG    1        1.837   0.942  -0.063  0.00  0.00    -0.299 N 
ATOM      3  H   LIG    1        1.344   1.804  -0.243  0.00  0.00    +0.150 HD
ATOM      4  O   LIG    1        1.650  -1.312   0.106  0.00  0.00    -0.275 OA
ENDROOT
BRANCH   1   5
ATOM      5  C   LIG    1       -0.400  -0.083  -0.237  0.00  0.00    +0.113 C 
BRANCH   5   6
ATOM      6  C   LIG    1       -1.153  -0.530   1.060  0.00  0.00    +0.018 C 
BRANCH   6   8
ATOM      7  C   LIG    1       -1.516  -0.465   3.581  0.00  0.00    +0.007 C 
ATOM      8  C   LIG    1       -0.726   0.130   2.402  0.00  0.00    -0.016 C 
ATOM      9  C   LIG    1       -0.853   1.666   2.381  0.00  0.00    +0.007 C 
ENDBRANCH   6   8
ENDBRANCH   5   6
BRANCH   5  10
ATOM     10  C   LIG    1       -0.870  -0.831  -1.535  0.00  0.00    +0.214 C 
BRANCH  10  11
ATOM     11  C   LIG    1       -2.399  -0.777  -1.764  0.00  0.00    +0.265 C 
ATOM     12  N   LIG    1       -3.095  -1.844  -1.329  0.00  0.00    -0.195 N 
ATOM     13  H   LIG    1       -2.753  -2.547  -0.689  0.00  0.00    +0.182 HD
ATOM     14  O   LIG    1       -2.923   0.203  -2.302  0.00  0.00    -0.271 OA
BRANCH  12  15
ATOM     15  O   LIG    1       -4.491  -1.761  -1.344  0.00  0.00    -0.295 OA
ATOM     16  H   LIG    1       -4.652  -0.815  -1.400  0.00  0.00    +0.241 HD
ENDBRANCH  12  15
ENDBRANCH  10  11
BRANCH  10  17
ATOM     17  O   LIG    1       -0.242  -0.256  -2.676  0.00  0.00    -0.382 OA
ATOM     18  H   LIG    1       -0.468  -0.780  -3.448  0.00  0.00    +0.210 HD
ENDBRANCH  10  17
ENDBRANCH   5  10
ENDBRANCH   1   5
BRANCH   2  19
ATOM     19  C   LIG    1        3.295   1.089   0.119  0.00  0.00    +0.213 C 
BRANCH  19  20
ATOM     20  C   LIG    1        3.730   2.512  -0.173  0.00  0.00    -0.017 A 
ATOM     21  C   LIG    1        2.921   3.617   0.140  0.00  0.00    +0.006 A 
ATOM     22  C   LIG    1        3.355   4.910  -0.143  0.00  0.00    +0.000 A 
ATOM     23  C   LIG    1        4.597   5.106  -0.740  0.00  0.00    +0.000 A 
ATOM     24  C   LIG    1        5.410   4.021  -1.055  0.00  0.00    +0.000 A 
ATOM     25  C   LIG    1        4.977   2.728  -0.772  0.00  0.00    +0.006 A 
ENDBRANCH  19  20
BRANCH  19  26
ATOM     26  C   LIG    1        3.689   0.741   1.554  0.00  0.00    +0.332 C 
ATOM     27  O   LIG    1        2.938   0.864   2.527  0.00  0.00    -0.248 OA
BRANCH  26  28
ATOM     28  O   LIG    1        4.966   0.292   1.609  0.00  0.00    -0.460 OA
BRANCH  28  29
ATOM     29  C   LIG    1        5.587  -0.054   2.848  0.00  0.00    +0.177 C 
ATOM     30  C   LIG    1        6.906  -0.789   2.524  0.00  0.00    +0.044 C 
ATOM     31  C   LIG    1        7.969  -0.165   3.429  0.00  0.00    +0.004 C 
ATOM     32  C   LIG    1        7.520   1.285   3.574  0.00  0.00    +0.004 C 
ATOM     33  C   LIG    1        5.995   1.192   3.670  0.00  0.00    +0.044 C 
ENDBRANCH  28  29
ENDBRANCH  26  28
ENDBRANCH  19  26
ENDBRANCH   2  19
TORSDOF 12
