REMARK  Name = DB11709
REMARK                            x       y       z     vdW  Elec       q    Type
REMARK                         _______ _______ _______ _____ _____    ______ ____
ROOT
ATOM      1  C   LIG    1        1.688  -0.006   0.183  0.00  0.00    +0.159 C 
ENDROOT
BRANCH   1   3
ATOM      2  C   LIG    1       -0.586   0.989   0.376  0.00  0.00    +0.234 C 
ATOM      3  N   LIG    1        0.228  -0.061   0.189  0.00  0.00    -0.302 N 
ATOM      4  H   LIG    1       -0.175  -0.971   0.016  0.00  0.00    +0.150 HD
ATOM      5  O   LIG    1       -0.207   2.145   0.570  0.00  0.00    -0.274 OA
BRANCH   2   6
ATOM      6  C   LIG    1       -2.087   0.681   0.317  0.00  0.00    +0.160 C 
BRANCH   6   8
ATOM      7  C   LIG    1       -3.839   0.849   2.071  0.00  0.00    +0.234 C 
ATOM      8  N   LIG    1       -2.742   1.317   1.456  0.00  0.00    -0.302 N 
ATOM      9  H   LIG    1       -2.284   2.141   1.819  0.00  0.00    +0.150 HD
ATOM     10  O   LIG    1       -4.461  -0.152   1.709  0.00  0.00    -0.274 OA
BRANCH   7  11
ATOM     11  C   LIG    1       -4.278   1.637   3.327  0.00  0.00    +0.157 C 
BRANCH  11  12
ATOM     12  N   LIG    1       -5.725   1.763   3.400  0.00  0.00    -0.335 N 
ATOM     13  H   LIG    1       -6.023   1.832   4.362  0.00  0.00    +0.147 HD
BRANCH  12  15
ATOM     14  C   LIG    1       -7.993   2.024   2.615  0.00  0.00    +0.027 C 
ATOM     15  C   LIG    1       -6.657   2.242   2.485  0.00  0.00    +0.019 C 
ATOM     16  C   LIG    1       -6.054   3.063   1.342  0.00  0.00    +0.062 C 
BRANCH  14  19
ATOM     17  C   LIG    1       -9.220   0.185   3.618  0.00  0.00    +0.214 C 
ATOM     18  C   LIG    1       -9.664  -0.394   4.958  0.00  0.00    +0.109 C 
ATOM     19  N   LIG    1       -8.486   1.315   3.680  0.00  0.00    -0.288 N 
ATOM     20  H   LIG    1       -8.175   1.617   4.591  0.00  0.00    +0.155 HD
ATOM     21  O   LIG    1       -9.528  -0.401   2.578  0.00  0.00    -0.276 OA
ENDBRANCH  14  19
BRANCH  14  22
ATOM     22  C   LIG    1       -9.051   2.560   1.630  0.00  0.00    +0.063 C 
BRANCH  22  23
ATOM     23  C   LIG    1       -9.557   3.998   1.933  0.00  0.00    +0.126 C 
BRANCH  23  24
ATOM     24  C   LIG    1      -10.351   4.143   3.253  0.00  0.00    +0.305 C 
ATOM     25  O   LIG    1      -10.118   5.157   3.948  0.00  0.00    -0.251 OA
BRANCH  24  26
ATOM     26  O   LIG    1      -11.207   3.274   3.540  0.00  0.00    -0.481 OA
ATOM     27  H   LIG    1      -11.698   3.345   4.335  0.00  0.00    +0.295 HD
ENDBRANCH  24  26
ENDBRANCH  23  24
ENDBRANCH  22  23
ENDBRANCH  14  22
ENDBRANCH  12  15
ENDBRANCH  11  12
BRANCH  11  28
ATOM     28  C   LIG    1       -3.685   0.988   4.602  0.00  0.00    +0.043 C 
BRANCH  28  29
ATOM     29  C   LIG    1       -3.974   1.777   5.902  0.00  0.00    +0.123 C 
BRANCH  29  30
ATOM     30  C   LIG    1       -3.348   1.198   7.185  0.00  0.00    +0.305 C 
ATOM     31  O   LIG    1       -3.585   1.820   8.243  0.00  0.00    -0.251 OA
BRANCH  30  32
ATOM     32  O   LIG    1       -2.649   0.162   7.113  0.00  0.00    -0.481 OA
ATOM     33  H   LIG    1       -2.512  -0.255   6.285  0.00  0.00    +0.295 HD
ENDBRANCH  30  32
ENDBRANCH  29  30
ENDBRANCH  28  29
ENDBRANCH  11  28
ENDBRANCH   7  11
ENDBRANCH   6   8
BRANCH   6  34
ATOM     34  C   LIG    1       -2.760   1.129  -1.005  0.00  0.00    +0.042 C 
BRANCH  34  35
ATOM     35  C   LIG    1       -2.047   0.693  -2.301  0.00  0.00    +0.071 C 
BRANCH  35  36
ATOM     36  S   LIG    1       -1.834  -1.098  -2.503  0.00  0.00    -0.164 S 
ATOM     37  C   LIG    1       -0.733  -1.112  -3.941  0.00  0.00    +0.084 C 
ENDBRANCH  35  36
ENDBRANCH  34  35
ENDBRANCH   6  34
ENDBRANCH   2   6
ENDBRANCH   1   3
BRANCH   1  38
ATOM     38  C   LIG    1        2.212  -0.661  -1.100  0.00  0.00    +0.234 C 
ATOM     39  N   LIG    1        3.200  -0.005  -1.732  0.00  0.00    -0.302 N 
ATOM     40  H   LIG    1        3.529   0.874  -1.358  0.00  0.00    +0.150 HD
ATOM     41  O   LIG    1        1.744  -1.739  -1.470  0.00  0.00    -0.274 OA
BRANCH  39  42
ATOM     42  C   LIG    1        3.914  -0.511  -2.904  0.00  0.00    +0.159 C 
BRANCH  42  43
ATOM     43  C   LIG    1        4.896  -1.622  -2.493  0.00  0.00    +0.234 C 
ATOM     44  O   LIG    1        5.716  -1.403  -1.601  0.00  0.00    -0.274 OA
ATOM     45  N   LIG    1        4.779  -2.782  -3.157  0.00  0.00    -0.302 N 
ATOM     46  H   LIG    1        4.085  -2.867  -3.885  0.00  0.00    +0.150 HD
BRANCH  45  47
ATOM     47  C   LIG    1        5.586  -3.981  -2.908  0.00  0.00    +0.159 C 
BRANCH  47  48
ATOM     48  C   LIG    1        6.137  -4.545  -4.233  0.00  0.00    +0.231 C 
ATOM     49  N   LIG    1        7.334  -5.135  -4.178  0.00  0.00    -0.328 N 
ATOM     50  H   LIG    1        7.739  -5.535  -5.012  0.00  0.00    +0.145 HD
ATOM     51  H   LIG    1        7.844  -5.182  -3.308  0.00  0.00    +0.145 HD
ATOM     52  O   LIG    1        5.477  -4.477  -5.270  0.00  0.00    -0.274 OA
ENDBRANCH  47  48
BRANCH  47  53
ATOM     53  C   LIG    1        4.723  -5.040  -2.184  0.00  0.00    +0.033 C 
BRANCH  53  54
ATOM     54  C   LIG    1        4.181  -4.589  -0.809  0.00  0.00    +0.017 C 
BRANCH  54  55
ATOM     55  C   LIG    1        3.440  -5.676  -0.006  0.00  0.00    +0.084 C 
BRANCH  55  56
ATOM     56  N   LIG    1        2.290  -6.252  -0.729  0.00  0.00    -0.283 NA
ATOM     57  H   LIG    1        1.458  -5.678  -0.737  0.00  0.00    +0.125 HD
BRANCH  56  58
ATOM     58  C   LIG    1        2.244  -7.416  -1.410  0.00  0.00    +0.167 C 
BRANCH  58  59
ATOM     59  N   LIG    1        3.294  -8.251  -1.491  0.00  0.00    -0.297 NA
ATOM     60  H   LIG    1        4.162  -8.015  -1.031  0.00  0.00    +0.121 HD
ATOM     61  H   LIG    1        3.220  -9.115  -2.009  0.00  0.00    +0.121 HD
ENDBRANCH  58  59
BRANCH  58  62
ATOM     62  N   LIG    1        1.106  -7.753  -2.030  0.00  0.00    -0.297 NA
ATOM     63  H   LIG    1        1.046  -8.619  -2.548  0.00  0.00    +0.121 HD
ATOM     64  H   LIG    1        0.302  -7.143  -1.985  0.00  0.00    +0.121 HD
ENDBRANCH  58  62
ENDBRANCH  56  58
ENDBRANCH  55  56
ENDBRANCH  54  55
ENDBRANCH  53  54
ENDBRANCH  47  53
ENDBRANCH  45  47
ENDBRANCH  42  43
BRANCH  42  65
ATOM     65  C   LIG    1        4.617   0.670  -3.609  0.00  0.00    +0.033 C 
BRANCH  65  66
ATOM     66  C   LIG    1        5.380   0.285  -4.896  0.00  0.00    +0.017 C 
BRANCH  66  67
ATOM     67  C   LIG    1        6.000   1.482  -5.641  0.00  0.00    +0.084 C 
BRANCH  67  68
ATOM     68  N   LIG    1        7.145   2.072  -4.922  0.00  0.00    -0.283 NA
ATOM     69  H   LIG    1        7.379   1.633  -4.042  0.00  0.00    +0.125 HD
BRANCH  68  70
ATOM     70  C   LIG    1        7.894   3.122  -5.313  0.00  0.00    +0.167 C 
BRANCH  70  71
ATOM     71  N   LIG    1        8.899   3.527  -4.525  0.00  0.00    -0.297 NA
ATOM     72  H   LIG    1        9.474   4.312  -4.797  0.00  0.00    +0.121 HD
ATOM     73  H   LIG    1        9.089   3.048  -3.656  0.00  0.00    +0.121 HD
ENDBRANCH  70  71
BRANCH  70  74
ATOM     74  N   LIG    1        7.670   3.777  -6.465  0.00  0.00    -0.297 NA
ATOM     75  H   LIG    1        6.919   3.486  -7.074  0.00  0.00    +0.121 HD
ATOM     76  H   LIG    1        8.252   4.560  -6.728  0.00  0.00    +0.121 HD
ENDBRANCH  70  74
ENDBRANCH  68  70
ENDBRANCH  67  68
ENDBRANCH  66  67
ENDBRANCH  65  66
ENDBRANCH  42  65
ENDBRANCH  39  42
ENDBRANCH   1  38
BRANCH   1  77
ATOM     77  C   LIG    1        2.238  -0.736   1.428  0.00  0.00    +0.041 C 
BRANCH  77  78
ATOM     78  C   LIG    1        1.868  -0.050   2.760  0.00  0.00    +0.098 C 
BRANCH  78  79
ATOM     79  C   LIG    1        2.408  -0.785   3.990  0.00  0.00    +0.211 C 
ATOM     80  N   LIG    1        1.739  -0.615   5.133  0.00  0.00    -0.329 N 
ATOM     81  H   LIG    1        2.053  -1.068   5.979  0.00  0.00    +0.145 HD
ATOM     82  H   LIG    1        0.911  -0.037   5.162  0.00  0.00    +0.145 HD
ATOM     83  O   LIG    1        3.422  -1.478   3.924  0.00  0.00    -0.276 OA
ENDBRANCH  78  79
ENDBRANCH  77  78
ENDBRANCH   1  77
TORSDOF 40
