REMARK  Name = DB11936
REMARK                            x       y       z     vdW  Elec       q    Type
REMARK                         _______ _______ _______ _____ _____    ______ ____
ROOT
ATOM      1  C   LIG    1        1.523   0.093   0.262  0.00  0.00    +0.115 C 
ENDROOT
BRANCH   1   2
ATOM      2  O   LIG    1        1.958   0.637   1.496  0.00  0.00    -0.392 OA
ATOM      3  H   LIG    1        1.610   1.528   1.575  0.00  0.00    +0.210 HD
ENDBRANCH   1   2
BRANCH   1   4
ATOM      4  C   LIG    1       -0.018   0.152   0.181  0.00  0.00    +0.031 C 
BRANCH   4   5
ATOM      5  C   LIG    1       -0.597   1.582   0.202  0.00  0.00    +0.002 C 
BRANCH   5   6
ATOM      6  C   LIG    1       -2.132   1.611   0.079  0.00  0.00    +0.000 C 
BRANCH   6   7
ATOM      7  C   LIG    1       -2.704   3.040   0.074  0.00  0.00    +0.001 C 
BRANCH   7   8
ATOM      8  C   LIG    1       -4.248   3.068  -0.025  0.00  0.00    +0.017 C 
BRANCH   8  10
ATOM      9  C   LIG    1       -4.541   5.222  -1.355  0.00  0.00    +0.022 C 
ATOM     10  C   LIG    1       -4.933   4.474  -0.050  0.00  0.00    +0.062 C 
ATOM     11  C   LIG    1       -6.472   4.285  -0.056  0.00  0.00    +0.022 C 
BRANCH  10  12
ATOM     12  C   LIG    1       -4.541   5.321   1.196  0.00  0.00    +0.310 C 
ATOM     13  O   LIG    1       -4.063   6.453   1.136  0.00  0.00    -0.250 OA
BRANCH  12  14
ATOM     14  O   LIG    1       -4.792   4.664   2.367  0.00  0.00    -0.480 OA
ATOM     15  H   LIG    1       -4.551   5.186   3.136  0.00  0.00    +0.295 HD
ENDBRANCH  12  14
ENDBRANCH  10  12
ENDBRANCH   8  10
ENDBRANCH   7   8
ENDBRANCH   6   7
ENDBRANCH   5   6
ENDBRANCH   4   5
ENDBRANCH   1   4
BRANCH   1  16
ATOM     16  C   LIG    1        2.066  -1.345   0.104  0.00  0.00    +0.031 C 
BRANCH  16  17
ATOM     17  C   LIG    1        3.606  -1.437   0.070  0.00  0.00    +0.002 C 
BRANCH  17  18
ATOM     18  C   LIG    1        4.118  -2.875  -0.140  0.00  0.00    +0.000 C 
BRANCH  18  19
ATOM     19  C   LIG    1        5.652  -3.015  -0.090  0.00  0.00    +0.001 C 
BRANCH  19  20
ATOM     20  C   LIG    1        6.391  -2.330  -1.268  0.00  0.00    +0.017 C 
BRANCH  20  21
ATOM     21  C   LIG    1        7.949  -2.456  -1.300  0.00  0.00    +0.062 C 
ATOM     22  C   LIG    1        8.557  -1.700  -0.085  0.00  0.00    +0.022 C 
ATOM     23  C   LIG    1        8.483  -1.783  -2.591  0.00  0.00    +0.022 C 
BRANCH  21  24
ATOM     24  C   LIG    1        8.400  -3.945  -1.289  0.00  0.00    +0.310 C 
ATOM     25  O   LIG    1        9.177  -4.424  -0.463  0.00  0.00    -0.250 OA
BRANCH  24  26
ATOM     26  O   LIG    1        7.836  -4.664  -2.305  0.00  0.00    -0.480 OA
ATOM     27  H   LIG    1        8.116  -5.582  -2.298  0.00  0.00    +0.295 HD
ENDBRANCH  24  26
ENDBRANCH  21  24
ENDBRANCH  20  21
ENDBRANCH  19  20
ENDBRANCH  18  19
ENDBRANCH  17  18
ENDBRANCH  16  17
ENDBRANCH   1  16
TORSDOF 17
