REMARK  Name = DB11875
REMARK                            x       y       z     vdW  Elec       q    Type
REMARK                         _______ _______ _______ _____ _____    ______ ____
ROOT
ATOM      1  C   LIG    1       -0.278  -0.394   0.000  0.00  0.00    +0.074 C 
ENDROOT
BRANCH   1   2
ATOM      2  C   LIG    1       -0.810   1.022  -0.115  0.00  0.00    -0.018 A 
ATOM      3  C   LIG    1       -0.597   2.113   0.805  0.00  0.00    +0.003 A 
ATOM      4  C   LIG    1        0.109   2.245   2.014  0.00  0.00    +0.010 A 
ATOM      5  C   LIG    1        0.118   3.477   2.666  0.00  0.00    +0.001 A 
ATOM      6  C   LIG    1       -0.560   4.574   2.141  0.00  0.00    +0.002 A 
ATOM      7  C   LIG    1       -1.276   4.493   0.947  0.00  0.00    +0.026 A 
ATOM      8  C   LIG    1       -1.285   3.256   0.293  0.00  0.00    +0.047 A 
ATOM      9  N   LIG    1       -1.889   2.859  -0.878  0.00  0.00    -0.360 N 
ATOM     10  H   LIG    1       -2.458   3.417  -1.499  0.00  0.00    +0.165 HD
ATOM     11  C   LIG    1       -1.613   1.538  -1.116  0.00  0.00    +0.087 A 
ENDBRANCH   1   2
BRANCH   1  12
ATOM     12  C   LIG    1        1.234  -0.423   0.115  0.00  0.00    -0.018 A 
ATOM     13  C   LIG    1        2.191   0.141  -0.805  0.00  0.00    +0.003 A 
ATOM     14  C   LIG    1        2.080   0.850  -2.014  0.00  0.00    +0.010 A 
ATOM     15  C   LIG    1        3.238   1.269  -2.666  0.00  0.00    +0.001 A 
ATOM     16  C   LIG    1        4.499   0.997  -2.142  0.00  0.00    +0.002 A 
ATOM     17  C   LIG    1        4.662   0.295  -0.947  0.00  0.00    +0.026 A 
ATOM     18  C   LIG    1        3.499  -0.126  -0.293  0.00  0.00    +0.047 A 
ATOM     19  N   LIG    1        3.325  -0.827   0.879  0.00  0.00    -0.360 N 
ATOM     20  H   LIG    1        4.041  -1.176   1.500  0.00  0.00    +0.165 HD
ATOM     21  C   LIG    1        1.988  -1.008   1.116  0.00  0.00    +0.087 A 
ENDBRANCH   1  12
TORSDOF 2
