REMARK  Name = DB11975
REMARK                            x       y       z     vdW  Elec       q    Type
REMARK                         _______ _______ _______ _____ _____    ______ ____
ROOT
ATOM      1  C   LIG    1        0.613  -0.754   0.752  0.00  0.00    +0.165 C 
ENDROOT
BRANCH   1   4
ATOM      2  C   LIG    1        0.183  -0.276  -1.654  0.00  0.00    +0.236 C 
ATOM      3  O   LIG    1        0.361   0.939  -1.571  0.00  0.00    -0.274 OA
ATOM      4  N   LIG    1        0.270  -1.129  -0.620  0.00  0.00    -0.302 N 
ATOM      5  H   LIG    1        0.113  -2.114  -0.780  0.00  0.00    +0.150 HD
BRANCH   2   6
ATOM      6  C   LIG    1       -0.164  -0.910  -3.016  0.00  0.00    +0.187 C 
BRANCH   6   9
ATOM      7  C   LIG    1       -2.365   0.222  -3.418  0.00  0.00    +0.234 C 
ATOM      8  O   LIG    1       -2.889  -0.099  -2.351  0.00  0.00    -0.274 OA
ATOM      9  N   LIG    1       -1.114  -0.104  -3.785  0.00  0.00    -0.300 N 
ATOM     10  H   LIG    1       -0.786   0.193  -4.692  0.00  0.00    +0.150 HD
BRANCH   7  11
ATOM     11  C   LIG    1       -3.171   0.991  -4.476  0.00  0.00    +0.168 C 
BRANCH  11  14
ATOM     12  C   LIG    1       -3.044  -0.240  -6.648  0.00  0.00    +0.234 C 
ATOM     13  O   LIG    1       -2.223   0.518  -7.163  0.00  0.00    -0.274 OA
ATOM     14  N   LIG    1       -3.615   0.001  -5.453  0.00  0.00    -0.302 N 
ATOM     15  H   LIG    1       -4.302  -0.656  -5.112  0.00  0.00    +0.150 HD
BRANCH  12  16
ATOM     16  C   LIG    1       -3.409  -1.567  -7.358  0.00  0.00    +0.164 C 
ATOM     17  N   LIG    1       -3.991  -2.608  -6.477  0.00  0.00    -0.286 N 
ATOM     18  C   LIG    1       -3.274  -3.274  -5.532  0.00  0.00    +0.237 C 
ATOM     19  O   LIG    1       -2.071  -3.069  -5.358  0.00  0.00    -0.274 OA
ATOM     20  C   LIG    1       -5.351  -2.932  -6.924  0.00  0.00    +0.140 C 
ATOM     21  C   LIG    1       -5.301  -2.641  -8.432  0.00  0.00    +0.134 C 
ATOM     22  C   LIG    1       -4.437  -1.385  -8.492  0.00  0.00    +0.065 C 
BRANCH  21  23
ATOM     23  O   LIG    1       -4.637  -3.695  -9.111  0.00  0.00    -0.390 OA
ATOM     24  H   LIG    1       -4.976  -4.533  -8.785  0.00  0.00    +0.210 HD
ENDBRANCH  21  23
BRANCH  18  25
ATOM     25  C   LIG    1       -3.986  -4.296  -4.604  0.00  0.00    +0.163 C 
BRANCH  25  26
ATOM     26  N   LIG    1       -3.885  -3.912  -3.185  0.00  0.00    -0.304 N 
ATOM     27  H   LIG    1       -4.746  -3.556  -2.795  0.00  0.00    +0.149 HD
ATOM     28  C   LIG    1       -2.806  -3.930  -2.380  0.00  0.00    +0.211 C 
ATOM     29  O   LIG    1       -1.697  -4.343  -2.713  0.00  0.00    -0.276 OA
ATOM     30  C   LIG    1       -3.008  -3.392  -0.967  0.00  0.00    +0.109 C 
ENDBRANCH  25  26
BRANCH  25  31
ATOM     31  C   LIG    1       -3.497  -5.753  -4.832  0.00  0.00    +0.067 C 
BRANCH  31  32
ATOM     32  C   LIG    1       -3.824  -6.317  -6.206  0.00  0.00    -0.045 A 
ATOM     33  C   LIG    1       -2.839  -6.343  -7.216  0.00  0.00    +0.007 A 
ATOM     34  C   LIG    1       -3.151  -6.839  -8.496  0.00  0.00    +0.045 A 
ATOM     35  C   LIG    1       -4.449  -7.311  -8.771  0.00  0.00    +0.117 A 
ATOM     36  C   LIG    1       -5.434  -7.290  -7.764  0.00  0.00    +0.045 A 
ATOM     37  C   LIG    1       -5.121  -6.795  -6.483  0.00  0.00    +0.007 A 
BRANCH  35  38
ATOM     38  O   LIG    1       -4.755  -7.785 -10.013  0.00  0.00    -0.507 OA
ATOM     39  H   LIG    1       -4.011  -7.761 -10.619  0.00  0.00    +0.292 HD
ENDBRANCH  35  38
ENDBRANCH  31  32
ENDBRANCH  25  31
ENDBRANCH  18  25
ENDBRANCH  12  16
ENDBRANCH  11  14
BRANCH  11  40
ATOM     40  C   LIG    1       -4.400   1.722  -3.880  0.00  0.00    +0.127 C 
BRANCH  40  41
ATOM     41  C   LIG    1       -5.128   2.628  -4.882  0.00  0.00    +0.213 C 
ATOM     42  O   LIG    1       -4.509   3.225  -5.760  0.00  0.00    -0.276 OA
ATOM     43  N   LIG    1       -6.449   2.751  -4.735  0.00  0.00    -0.329 N 
ATOM     44  H   LIG    1       -6.976   3.343  -5.361  0.00  0.00    +0.145 HD
ATOM     45  H   LIG    1       -6.931   2.259  -3.997  0.00  0.00    +0.145 HD
ENDBRANCH  40  41
ENDBRANCH  11  40
ENDBRANCH   7  11
ENDBRANCH   6   9
BRANCH   6  46
ATOM     46  C   LIG    1        1.145  -1.101  -3.834  0.00  0.00    +0.141 C 
ATOM     47  C   LIG    1        2.333  -1.754  -3.102  0.00  0.00    +0.040 C 
BRANCH  46  48
ATOM     48  O   LIG    1        0.859  -1.895  -4.968  0.00  0.00    -0.390 OA
ATOM     49  H   LIG    1        0.172  -1.466  -5.484  0.00  0.00    +0.210 HD
ENDBRANCH  46  48
ENDBRANCH   6  46
ENDBRANCH   2   6
ENDBRANCH   1   4
BRANCH   1  50
ATOM     50  C   LIG    1        2.070  -0.253   0.880  0.00  0.00    +0.250 C 
ATOM     51  O   LIG    1        2.986  -0.943   0.421  0.00  0.00    -0.272 OA
ATOM     52  N   LIG    1        2.226   0.926   1.517  0.00  0.00    -0.232 N 
ATOM     53  H   LIG    1        1.499   1.404   2.031  0.00  0.00    +0.173 HD
BRANCH  52  54
ATOM     54  N   LIG    1        3.513   1.339   1.841  0.00  0.00    -0.218 N 
ATOM     55  H   LIG    1        3.764   1.083   2.785  0.00  0.00    +0.174 HD
ATOM     56  C   LIG    1        3.989   2.450   1.247  0.00  0.00    +0.317 C 
ATOM     57  O   LIG    1        3.404   3.104   0.377  0.00  0.00    -0.251 OA
ATOM     58  N   LIG    1        5.216   2.745   1.709  0.00  0.00    -0.287 N 
ATOM     59  H   LIG    1        5.612   2.167   2.436  0.00  0.00    +0.151 HD
BRANCH  58  60
ATOM     60  C   LIG    1        6.086   3.830   1.234  0.00  0.00    +0.161 C 
BRANCH  60  61
ATOM     61  C   LIG    1        6.530   3.588  -0.226  0.00  0.00    +0.234 C 
ATOM     62  O   LIG    1        7.155   2.566  -0.514  0.00  0.00    -0.274 OA
ATOM     63  N   LIG    1        6.194   4.544  -1.107  0.00  0.00    -0.302 N 
ATOM     64  H   LIG    1        5.696   5.360  -0.781  0.00  0.00    +0.150 HD
BRANCH  63  65
ATOM     65  C   LIG    1        6.467   4.507  -2.544  0.00  0.00    +0.159 C 
BRANCH  65  66
ATOM     66  C   LIG    1        6.997   5.872  -3.007  0.00  0.00    +0.234 C 
ATOM     67  O   LIG    1        6.644   6.901  -2.427  0.00  0.00    -0.274 OA
ATOM     68  N   LIG    1        7.819   5.845  -4.068  0.00  0.00    -0.302 N 
ATOM     69  H   LIG    1        8.054   4.960  -4.494  0.00  0.00    +0.150 HD
BRANCH  68  70
ATOM     70  C   LIG    1        8.421   7.026  -4.690  0.00  0.00    +0.163 C 
BRANCH  70  71
ATOM     71  C   LIG    1        8.718   6.760  -6.180  0.00  0.00    +0.231 C 
ATOM     72  O   LIG    1        9.126   5.660  -6.552  0.00  0.00    -0.274 OA
ATOM     73  N   LIG    1        8.539   7.785  -7.020  0.00  0.00    -0.328 N 
ATOM     74  H   LIG    1        8.728   7.673  -8.005  0.00  0.00    +0.145 HD
ATOM     75  H   LIG    1        8.219   8.678  -6.673  0.00  0.00    +0.145 HD
ENDBRANCH  70  71
BRANCH  70  76
ATOM     76  C   LIG    1        9.684   7.436  -3.895  0.00  0.00    +0.069 C 
BRANCH  76  77
ATOM     77  C   LIG    1       10.415   8.652  -4.388  0.00  0.00    -0.020 A 
ATOM     78  C   LIG    1       10.020  10.054  -4.280  0.00  0.00    +0.003 A 
ATOM     79  C   LIG    1        8.926  10.736  -3.695  0.00  0.00    +0.010 A 
ATOM     80  C   LIG    1        8.822  12.141  -3.761  0.00  0.00    +0.001 A 
ATOM     81  C   LIG    1        9.811  12.900  -4.415  0.00  0.00    +0.002 A 
ATOM     82  C   LIG    1       10.910  12.254  -5.011  0.00  0.00    +0.026 A 
ATOM     83  C   LIG    1       11.003  10.852  -4.941  0.00  0.00    +0.047 A 
ATOM     84  N   LIG    1       11.921   9.940  -5.416  0.00  0.00    -0.360 N 
ATOM     85  H   LIG    1       12.754  10.161  -5.942  0.00  0.00    +0.165 HD
ATOM     86  C   LIG    1       11.567   8.645  -5.097  0.00  0.00    +0.087 A 
ENDBRANCH  76  77
ENDBRANCH  70  76
ENDBRANCH  68  70
ENDBRANCH  65  66
BRANCH  65  87
ATOM     87  C   LIG    1        5.207   4.124  -3.351  0.00  0.00    +0.033 C 
BRANCH  87  88
ATOM     88  C   LIG    1        4.728   2.673  -3.115  0.00  0.00    +0.017 C 
BRANCH  88  89
ATOM     89  C   LIG    1        3.404   2.323  -3.818  0.00  0.00    +0.084 C 
BRANCH  89  90
ATOM     90  N   LIG    1        2.233   2.999  -3.231  0.00  0.00    -0.283 NA
ATOM     91  H   LIG    1        2.314   3.238  -2.253  0.00  0.00    +0.125 HD
BRANCH  90  92
ATOM     92  C   LIG    1        1.030   3.209  -3.779  0.00  0.00    +0.169 C 
BRANCH  92  93
ATOM     93  N   LIG    1        0.715   2.752  -4.996  0.00  0.00    -0.297 NA
ATOM     94  H   LIG    1        1.448   2.517  -5.649  0.00  0.00    +0.121 HD
ATOM     95  H   LIG    1       -0.254   2.660  -5.265  0.00  0.00    +0.121 HD
ENDBRANCH  92  93
BRANCH  92  96
ATOM     96  N   LIG    1        0.162   3.911  -3.040  0.00  0.00    -0.286 NA
ATOM     97  H   LIG    1        0.481   4.175  -2.118  0.00  0.00    +0.125 HD
ATOM     98  C   LIG    1       -1.212   4.300  -3.385  0.00  0.00    +0.104 C 
ENDBRANCH  92  96
ENDBRANCH  90  92
ENDBRANCH  89  90
ENDBRANCH  88  89
ENDBRANCH  87  88
ENDBRANCH  65  87
ENDBRANCH  63  65
ENDBRANCH  60  61
BRANCH  60  99
ATOM     99  C   LIG    1        7.316   3.948   2.174  0.00  0.00    +0.034 C 
BRANCH  99 100
ATOM    100  C   LIG    1        6.996   4.365   3.630  0.00  0.00    -0.015 C 
ATOM    101  C   LIG    1        8.253   4.268   4.523  0.00  0.00    +0.007 C 
ATOM    102  C   LIG    1        6.330   5.755   3.710  0.00  0.00    +0.007 C 
ENDBRANCH  99 100
ENDBRANCH  60  99
ENDBRANCH  58  60
ENDBRANCH  52  54
ENDBRANCH   1  50
BRANCH   1 103
ATOM    103  C   LIG    1        0.320  -1.962   1.672  0.00  0.00    +0.067 C 
BRANCH 103 104
ATOM    104  C   LIG    1        0.655  -1.763   3.142  0.00  0.00    -0.045 A 
ATOM    105  C   LIG    1       -0.217  -1.024   3.969  0.00  0.00    +0.004 A 
ATOM    106  C   LIG    1        0.136  -0.753   5.284  0.00  0.00    +0.000 A 
ATOM    107  C   LIG    1        1.358  -1.185   5.784  0.00  0.00    +0.000 A 
ATOM    108  C   LIG    1        2.243  -1.883   4.972  0.00  0.00    +0.000 A 
ATOM    109  C   LIG    1        1.908  -2.164   3.654  0.00  0.00    +0.004 A 
ENDBRANCH 103 104
ENDBRANCH   1 103
TORSDOF 37
