REMARK  Name = DB11701
REMARK                            x       y       z     vdW  Elec       q    Type
REMARK                         _______ _______ _______ _____ _____    ______ ____
ROOT
ATOM      1  N   LIG    1        0.107   0.147  -0.123  0.00  0.00    -0.262 N 
ATOM      2  C   LIG    1       -0.721  -0.942  -0.038  0.00  0.00    +0.223 C 
ATOM      3  O   LIG    1       -0.273  -2.091  -0.102  0.00  0.00    -0.275 OA
ENDROOT
BRANCH   1   6
ATOM      4  C   LIG    1       -0.315   1.533  -2.655  0.00  0.00    +0.045 C 
ATOM      5  C   LIG    1       -0.583   2.172  -1.296  0.00  0.00    -0.029 A 
ATOM      6  C   LIG    1       -0.376   1.477  -0.084  0.00  0.00    +0.043 A 
ATOM      7  C   LIG    1       -0.625   2.129   1.147  0.00  0.00    -0.029 A 
ATOM      8  C   LIG    1       -0.430   1.460   2.504  0.00  0.00    +0.045 C 
ATOM      9  C   LIG    1       -1.095   3.445   1.142  0.00  0.00    +0.005 A 
ATOM     10  C   LIG    1       -1.311   4.120  -0.055  0.00  0.00    +0.001 A 
ATOM     11  C   LIG    1       -1.056   3.486  -1.266  0.00  0.00    +0.005 A 
ENDBRANCH   1   6
BRANCH   2  12
ATOM     12  C   LIG    1       -2.261  -0.783   0.150  0.00  0.00    +0.079 C 
ATOM     13  C   LIG    1       -2.950  -1.263  -1.155  0.00  0.00    +0.035 C 
ATOM     14  C   LIG    1       -4.457  -0.938  -1.104  0.00  0.00    +0.166 C 
ATOM     15  S   LIG    1       -5.240  -1.927   0.305  0.00  0.00    -0.031 S 
ATOM     16  O   LIG    1       -6.614  -1.460   0.513  0.00  0.00    -0.174 OA
ATOM     17  O   LIG    1       -5.003  -3.357   0.083  0.00  0.00    -0.174 OA
ATOM     18  C   LIG    1       -4.161  -1.331   1.740  0.00  0.00    +0.166 C 
ATOM     19  C   LIG    1       -2.686  -1.616   1.393  0.00  0.00    +0.035 C 
ENDBRANCH   2  12
BRANCH   1  20
ATOM     20  C   LIG    1        1.571  -0.026  -0.281  0.00  0.00    +0.209 C 
BRANCH  20  21
ATOM     21  C   LIG    1        2.285  -0.007   1.079  0.00  0.00    +0.235 C 
ATOM     22  N   LIG    1        2.155  -1.131   1.816  0.00  0.00    -0.284 N 
ATOM     23  H   LIG    1        1.670  -1.896   1.368  0.00  0.00    +0.155 HD
ATOM     24  O   LIG    1        2.806   1.040   1.462  0.00  0.00    -0.274 OA
BRANCH  22  25
ATOM     25  C   LIG    1        2.579  -1.411   3.128  0.00  0.00    +0.033 A 
ATOM     26  C   LIG    1        2.275  -2.687   3.602  0.00  0.00    +0.024 A 
ATOM     27  C   LIG    1        2.651  -3.071   4.886  0.00  0.00    +0.013 A 
ATOM     28  C   LIG    1        3.339  -2.184   5.724  0.00  0.00    +0.023 A 
ATOM     29  C   LIG    1        3.638  -0.902   5.245  0.00  0.00    +0.013 A 
ATOM     30  C   LIG    1        3.265  -0.514   3.961  0.00  0.00    +0.024 A 
BRANCH  28  31
ATOM     31  C   LIG    1        3.751  -2.603   7.111  0.00  0.00    +0.202 A 
ATOM     32  N   LIG    1        4.386  -1.790   7.934  0.00  0.00    -0.056 NA
ATOM     33  O   LIG    1        4.577  -2.558   9.079  0.00  0.00    -0.341 OA
ATOM     34  C   LIG    1        4.017  -3.754   8.784  0.00  0.00    +0.343 A 
ATOM     35  N   LIG    1        3.504  -3.812   7.587  0.00  0.00    -0.194 NA
ENDBRANCH  28  31
ENDBRANCH  22  25
ENDBRANCH  20  21
ENDBRANCH   1  20
TORSDOF 6
