REMARK  Name = DB11764
REMARK                            x       y       z     vdW  Elec       q    Type
REMARK                         _______ _______ _______ _____ _____    ______ ____
ROOT
ATOM      1  C   LIG    1        1.925  -0.582  -0.910  0.00  0.00    +0.221 A 
ATOM      2  N   LIG    1        3.171  -0.086  -1.127  0.00  0.00    -0.196 NA
ATOM      3  C   LIG    1        4.204  -0.971  -1.199  0.00  0.00    +0.164 A 
ATOM      4  C   LIG    1        3.987  -2.347  -1.046  0.00  0.00    +0.181 A 
ATOM      5  F   LIG    1        4.999  -3.245  -1.112  0.00  0.00    -0.200 F 
ATOM      6  C   LIG    1        2.677  -2.770  -0.818  0.00  0.00    +0.156 A 
ATOM      7  N   LIG    1        1.636  -1.902  -0.745  0.00  0.00    -0.220 NA
ENDROOT
BRANCH   1   8
ATOM      8  N   LIG    1        0.907   0.381  -0.829  0.00  0.00    -0.284 N 
ATOM      9  H   LIG    1        1.247   1.330  -0.890  0.00  0.00    +0.155 HD
BRANCH   8  13
ATOM     10  C   LIG    1       -3.285   0.233  -0.460  0.00  0.00    +0.121 A 
ATOM     11  C   LIG    1       -2.555   1.356  -0.043  0.00  0.00    +0.047 A 
ATOM     12  C   LIG    1       -1.169   1.380  -0.173  0.00  0.00    +0.027 A 
ATOM     13  C   LIG    1       -0.491   0.286  -0.712  0.00  0.00    +0.034 A 
ATOM     14  C   LIG    1       -1.218  -0.830  -1.141  0.00  0.00    +0.027 A 
ATOM     15  C   LIG    1       -2.604  -0.853  -1.010  0.00  0.00    +0.047 A 
BRANCH  10  16
ATOM     16  O   LIG    1       -4.659   0.118  -0.370  0.00  0.00    -0.490 OA
BRANCH  16  17
ATOM     17  C   LIG    1       -5.416   1.189   0.190  0.00  0.00    +0.257 C 
BRANCH  17  18
ATOM     18  C   LIG    1       -6.904   0.815   0.192  0.00  0.00    +0.200 C 
BRANCH  18  20
ATOM     19  C   LIG    1       -8.453  -0.776   1.037  0.00  0.00    +0.194 C 
ATOM     20  O   LIG    1       -7.100  -0.348   0.986  0.00  0.00    -0.380 OA
ENDBRANCH  18  20
ENDBRANCH  17  18
ENDBRANCH  16  17
ENDBRANCH  10  16
ENDBRANCH   8  13
ENDBRANCH   1   8
BRANCH   3  21
ATOM     21  N   LIG    1        5.513  -0.510  -1.429  0.00  0.00    -0.297 N 
ATOM     22  H   LIG    1        6.220  -1.210  -1.256  0.00  0.00    +0.154 HD
BRANCH  21  23
ATOM     23  C   LIG    1        6.035   0.753  -1.758  0.00  0.00    +0.034 A 
ATOM     24  C   LIG    1        7.386   0.990  -1.488  0.00  0.00    +0.046 A 
ATOM     25  C   LIG    1        7.985   2.214  -1.802  0.00  0.00    +0.035 A 
ATOM     26  C   LIG    1        7.204   3.224  -2.389  0.00  0.00    +0.023 A 
ATOM     27  C   LIG    1        5.860   2.992  -2.675  0.00  0.00    +0.004 A 
ATOM     28  C   LIG    1        5.279   1.763  -2.369  0.00  0.00    +0.023 A 
BRANCH  25  29
ATOM     29  N   LIG    1        9.346   2.348  -1.470  0.00  0.00    -0.282 N 
ATOM     30  H   LIG    1        9.699   1.628  -0.857  0.00  0.00    +0.155 HD
ATOM     31  C   LIG    1       10.246   3.255  -1.907  0.00  0.00    +0.241 C 
ATOM     32  O   LIG    1       10.012   4.146  -2.727  0.00  0.00    -0.271 OA
BRANCH  31  33
ATOM     33  C   LIG    1       11.547   3.066  -1.306  0.00  0.00    +0.060 C 
ATOM     34  C   LIG    1       12.606   3.843  -1.600  0.00  0.00    +0.013 C 
ENDBRANCH  31  33
ENDBRANCH  25  29
ENDBRANCH  21  23
ENDBRANCH   3  21
TORSDOF 10
