REMARK  Name = DB11851
REMARK                            x       y       z     vdW  Elec       q    Type
REMARK                         _______ _______ _______ _____ _____    ______ ____
ROOT
ATOM      1  C   LIG    1        1.615   0.162  -0.301  0.00  0.00    +0.248 C 
ATOM      2  O   LIG    1        2.158  -0.945  -0.280  0.00  0.00    -0.270 OA
ATOM      3  N   LIG    1        2.279   1.339  -0.370  0.00  0.00    -0.281 N 
ATOM      4  H   LIG    1        1.716   2.167  -0.495  0.00  0.00    +0.155 HD
ENDROOT
BRANCH   3   5
ATOM      5  C   LIG    1        3.666   1.571  -0.326  0.00  0.00    +0.035 A 
ATOM      6  C   LIG    1        4.593   0.695   0.260  0.00  0.00    +0.047 A 
ATOM      7  C   LIG    1        5.959   1.011   0.296  0.00  0.00    +0.038 A 
ATOM      8  C   LIG    1        6.402   2.212  -0.287  0.00  0.00    -0.029 A 
ATOM      9  C   LIG    1        7.877   2.598  -0.296  0.00  0.00    +0.045 C 
ATOM     10  C   LIG    1        5.474   3.086  -0.860  0.00  0.00    +0.007 A 
ATOM     11  C   LIG    1        4.117   2.774  -0.871  0.00  0.00    +0.024 A 
BRANCH   7  12
ATOM     12  N   LIG    1        6.889   0.128   0.878  0.00  0.00    -0.283 N 
ATOM     13  H   LIG    1        7.773   0.074   0.394  0.00  0.00    +0.155 HD
BRANCH  12  14
ATOM     14  C   LIG    1        6.784  -0.736   1.979  0.00  0.00    +0.220 A 
ATOM     15  N   LIG    1        7.832  -1.579   2.161  0.00  0.00    -0.214 NA
ATOM     16  C   LIG    1        7.794  -2.423   3.234  0.00  0.00    +0.079 A 
ATOM     17  C   LIG    1        6.699  -2.418   4.112  0.00  0.00    +0.048 A 
ATOM     18  C   LIG    1        5.670  -1.512   3.853  0.00  0.00    +0.116 A 
ATOM     19  N   LIG    1        5.698  -0.661   2.796  0.00  0.00    -0.223 NA
BRANCH  16  20
ATOM     20  C   LIG    1        8.960  -3.344   3.403  0.00  0.00    +0.037 A 
ATOM     21  C   LIG    1        9.828  -3.674   2.346  0.00  0.00    +0.124 A 
ATOM     22  N   LIG    1       10.894  -4.504   2.483  0.00  0.00    -0.243 NA
ATOM     23  C   LIG    1       11.091  -5.016   3.723  0.00  0.00    +0.221 A 
ATOM     24  N   LIG    1       10.329  -4.776   4.818  0.00  0.00    -0.243 NA
ATOM     25  C   LIG    1        9.273  -3.941   4.636  0.00  0.00    +0.124 A 
ENDBRANCH  16  20
ENDBRANCH  12  14
ENDBRANCH   7  12
ENDBRANCH   3   5
BRANCH   1  29
ATOM     26  C   LIG    1       -2.713   0.415  -0.305  0.00  0.00    -0.022 A 
ATOM     27  C   LIG    1       -1.939   1.474   0.181  0.00  0.00    +0.006 A 
ATOM     28  C   LIG    1       -0.550   1.405   0.180  0.00  0.00    +0.013 A 
ATOM     29  C   LIG    1        0.106   0.266  -0.303  0.00  0.00    +0.038 A 
ATOM     30  C   LIG    1       -0.670  -0.801  -0.774  0.00  0.00    +0.025 A 
ATOM     31  C   LIG    1       -2.073  -0.749  -0.785  0.00  0.00    +0.060 A 
BRANCH  31  32
ATOM     32  C   LIG    1       -2.864  -1.956  -1.311  0.00  0.00    +0.418 C 
ATOM     33  F   LIG    1       -3.627  -1.596  -2.344  0.00  0.00    -0.166 F 
ATOM     34  F   LIG    1       -3.643  -2.443  -0.345  0.00  0.00    -0.166 F 
ATOM     35  F   LIG    1       -2.075  -2.950  -1.727  0.00  0.00    -0.166 F 
ENDBRANCH  31  32
BRANCH  26  36
ATOM     36  C   LIG    1       -4.239   0.565  -0.263  0.00  0.00    +0.120 C 
BRANCH  36  40
ATOM     37  C   LIG    1       -5.913   1.262  -3.094  0.00  0.00    -0.054 C 
ATOM     38  C   LIG    1       -6.831   1.078  -1.886  0.00  0.00    +0.001 C 
ATOM     39  C   LIG    1       -6.160   1.942  -0.821  0.00  0.00    +0.083 C 
ATOM     40  N   LIG    1       -4.724   1.741  -1.001  0.00  0.00    -0.300 NA
ATOM     41  C   LIG    1       -4.556   1.622  -2.453  0.00  0.00    +0.069 C 
BRANCH  37  42
ATOM     42  N   LIG    1       -5.925   0.159  -4.179  0.00  0.00    +0.379 N 
ATOM     43  H   LIG    1       -5.518  -0.667  -3.763  0.00  0.00    -0.082 HD
ATOM     44  C   LIG    1       -5.045   0.526  -5.391  0.00  0.00    -0.096 C 
ATOM     45  C   LIG    1       -7.350  -0.214  -4.637  0.00  0.00    -0.096 C 
ENDBRANCH  37  42
ENDBRANCH  36  40
ENDBRANCH  26  36
ENDBRANCH   1  29
TORSDOF 9
