REMARK  Name = DB11156
REMARK                            x       y       z     vdW  Elec       q    Type
REMARK                         _______ _______ _______ _____ _____    ______ ____
ROOT
ATOM      1  C   LIG    1        1.287  -2.576  -0.141  0.00  0.00    +0.276 C 
ATOM      2  N   LIG    1        2.045  -1.325  -0.083  0.00  0.00    -0.224 N 
ATOM      3  C   LIG    1        1.462  -0.075   0.197  0.00  0.00    +0.307 C 
ATOM      4  N   LIG    1        2.114   1.013   0.398  0.00  0.00    -0.083 NA
ATOM      5  C   LIG    1        3.570   1.050   0.260  0.00  0.00    +0.294 C 
ATOM      6  C   LIG    1        4.193  -0.184  -0.442  0.00  0.00    +0.093 C 
ATOM      7  C   LIG    1        3.504  -1.491  -0.010  0.00  0.00    +0.229 C 
ENDROOT
BRANCH   3   8
ATOM      8  C   LIG    1        0.023  -0.002   0.279  0.00  0.00    +0.100 C 
ATOM      9  C   LIG    1       -0.739   0.996  -0.216  0.00  0.00    +0.023 C 
BRANCH   9  10
ATOM     10  C   LIG    1       -2.186   1.099  -0.154  0.00  0.00    +0.012 A 
ATOM     11  S   LIG    1       -3.020   2.470  -0.827  0.00  0.00    -0.097 S 
ATOM     12  C   LIG    1       -4.553   1.812  -0.352  0.00  0.00    +0.046 A 
ATOM     13  C   LIG    1       -4.417   0.594   0.295  0.00  0.00    +0.008 A 
ATOM     14  C   LIG    1       -3.083   0.190   0.407  0.00  0.00    +0.015 A 
ENDBRANCH   9  10
ENDBRANCH   3   8
TORSDOF 2
