REMARK  Name = DB11790
REMARK                            x       y       z     vdW  Elec       q    Type
REMARK                         _______ _______ _______ _____ _____    ______ ____
ROOT
ATOM      1  C   LIG    1        1.550   0.122   0.005  0.00  0.00    +0.181 C 
ATOM      2  O   LIG    1        1.977  -0.982  -0.763  0.00  0.00    -0.348 OA
ATOM      3  C   LIG    1        3.393  -1.204  -0.807  0.00  0.00    +0.150 C 
ATOM      4  C   LIG    1        4.061  -1.392   0.580  0.00  0.00    -0.049 C 
ATOM      5  C   LIG    1        3.631  -2.722   1.242  0.00  0.00    -0.008 C 
ATOM      6  C   LIG    1        5.589  -1.202   0.486  0.00  0.00    -0.008 C 
ATOM      7  N   LIG    1        3.575  -0.253   1.499  0.00  0.00    +0.389 N 
ATOM      8  H   LIG    1        3.877  -0.435   2.446  0.00  0.00    -0.084 HD
ATOM      9  H   LIG    1        4.039   0.598   1.215  0.00  0.00    -0.084 HD
ATOM     10  C   LIG    1        2.053  -0.013   1.470  0.00  0.00    -0.009 C 
ATOM     11  C   LIG    1        1.771   1.183   2.407  0.00  0.00    -0.008 C 
ENDROOT
BRANCH   1  17
ATOM     12  C   LIG    1       -2.166   1.176  -0.394  0.00  0.00    +0.041 A 
ATOM     13 CL   LIG    1       -3.083   2.574  -0.821  0.00  0.00    -0.084 Cl
ATOM     14  C   LIG    1       -2.819  -0.011  -0.064  0.00  0.00    +0.020 A 
ATOM     15  C   LIG    1       -2.078  -1.138   0.284  0.00  0.00    +0.002 A 
ATOM     16  C   LIG    1       -0.684  -1.078   0.302  0.00  0.00    +0.009 A 
ATOM     17  C   LIG    1       -0.009   0.107  -0.027  0.00  0.00    +0.011 A 
ATOM     18  C   LIG    1       -0.772   1.234  -0.377  0.00  0.00    +0.028 A 
ENDBRANCH   1  17
BRANCH   1  19
ATOM     19  O   LIG    1        2.046   1.303  -0.517  0.00  0.00    -0.362 OA
ATOM     20  H   LIG    1        1.799   1.338  -1.444  0.00  0.00    +0.213 HD
ENDBRANCH   1  19
TORSDOF 2
