REMARK  Name = DB11602
REMARK                            x       y       z     vdW  Elec       q    Type
REMARK                         _______ _______ _______ _____ _____    ______ ____
ROOT
ATOM      1  O   LIG    1        1.184   0.560   0.120  0.00  0.00    -0.340 OA
ENDROOT
BRANCH   1   2
ATOM      2  C   LIG    1        1.868   1.030   1.283  0.00  0.00    +0.184 C 
ATOM      3  C   LIG    1        3.365   0.740   1.071  0.00  0.00    +0.183 C 
ATOM      4  C   LIG    1        3.929   1.654  -0.034  0.00  0.00    +0.205 C 
ATOM      5  C   LIG    1        3.611   3.142   0.225  0.00  0.00    +0.282 C 
ATOM      6  O   LIG    1        2.257   3.366   0.555  0.00  0.00    -0.341 OA
ATOM      7  C   LIG    1        1.667   2.538   1.570  0.00  0.00    +0.178 C 
BRANCH   3   8
ATOM      8  O   LIG    1        3.619  -0.614   0.692  0.00  0.00    -0.369 OA
BRANCH   8   9
ATOM      9  C   LIG    1        3.322  -1.619   1.654  0.00  0.00    +0.191 C 
BRANCH   9  10
ATOM     10  C   LIG    1        3.812  -2.978   1.123  0.00  0.00    +0.137 C 
ATOM     11  C   LIG    1        3.348  -4.155   1.996  0.00  0.00    +0.040 C 
BRANCH  10  12
ATOM     12  O   LIG    1        5.226  -2.987   1.082  0.00  0.00    -0.390 OA
ATOM     13  H   LIG    1        5.558  -2.838   1.970  0.00  0.00    +0.210 HD
ENDBRANCH  10  12
ENDBRANCH   9  10
ENDBRANCH   8   9
ENDBRANCH   3   8
BRANCH   4  14
ATOM     14  O   LIG    1        5.327   1.397  -0.169  0.00  0.00    -0.366 OA
BRANCH  14  15
ATOM     15  C   LIG    1        5.942   1.908  -1.346  0.00  0.00    +0.191 C 
BRANCH  15  16
ATOM     16  C   LIG    1        7.389   1.391  -1.423  0.00  0.00    +0.137 C 
ATOM     17  C   LIG    1        8.189   2.041  -2.562  0.00  0.00    +0.040 C 
BRANCH  16  18
ATOM     18  O   LIG    1        7.373  -0.008  -1.632  0.00  0.00    -0.390 OA
ATOM     19  H   LIG    1        6.817  -0.408  -0.959  0.00  0.00    +0.210 HD
ENDBRANCH  16  18
ENDBRANCH  15  16
ENDBRANCH  14  15
ENDBRANCH   4  14
BRANCH   5  20
ATOM     20  O   LIG    1        4.495   3.631   1.189  0.00  0.00    -0.346 OA
BRANCH  20  21
ATOM     21  C   LIG    1        4.474   5.045   1.363  0.00  0.00    +0.194 C 
BRANCH  21  22
ATOM     22  C   LIG    1        5.540   5.451   2.398  0.00  0.00    +0.137 C 
ATOM     23  C   LIG    1        5.239   4.935   3.815  0.00  0.00    +0.040 C 
BRANCH  22  24
ATOM     24  O   LIG    1        5.622   6.862   2.444  0.00  0.00    -0.390 OA
ATOM     25  H   LIG    1        5.836   7.184   1.566  0.00  0.00    +0.210 HD
ENDBRANCH  22  24
ENDBRANCH  21  22
ENDBRANCH  20  21
ENDBRANCH   5  20
BRANCH   7  26
ATOM     26  C   LIG    1        2.091   2.965   2.999  0.00  0.00    +0.194 C 
BRANCH  26  27
ATOM     27  O   LIG    1        1.499   2.178   4.030  0.00  0.00    -0.375 OA
BRANCH  27  28
ATOM     28  C   LIG    1        0.096   2.349   4.216  0.00  0.00    +0.190 C 
BRANCH  28  29
ATOM     29  C   LIG    1       -0.384   1.503   5.410  0.00  0.00    +0.137 C 
ATOM     30  C   LIG    1        0.321   1.845   6.734  0.00  0.00    +0.040 C 
BRANCH  29  31
ATOM     31  O   LIG    1       -0.214   0.130   5.121  0.00  0.00    -0.390 OA
ATOM     32  H   LIG    1        0.722  -0.038   4.991  0.00  0.00    +0.210 HD
ENDBRANCH  29  31
ENDBRANCH  28  29
ENDBRANCH  27  28
ENDBRANCH  26  27
ENDBRANCH   7  26
ENDBRANCH   1   2
BRANCH   1  35
ATOM     33  C   LIG    1       -0.465   2.288  -1.395  0.00  0.00    +0.178 C 
ATOM     34  O   LIG    1       -0.817   1.728  -0.123  0.00  0.00    -0.340 OA
ATOM     35  C   LIG    1       -0.214   0.486   0.143  0.00  0.00    +0.282 C 
ATOM     36  C   LIG    1       -0.655  -0.558  -0.900  0.00  0.00    +0.205 C 
ATOM     37  C   LIG    1       -0.406  -0.051  -2.347  0.00  0.00    +0.183 C 
ATOM     38  C   LIG    1       -0.999   1.369  -2.515  0.00  0.00    +0.181 C 
BRANCH  33  39
ATOM     39  C   LIG    1       -1.022   3.721  -1.461  0.00  0.00    +0.194 C 
BRANCH  39  40
ATOM     40  O   LIG    1       -0.435   4.471  -0.403  0.00  0.00    -0.375 OA
BRANCH  40  41
ATOM     41  C   LIG    1       -0.742   5.861  -0.372  0.00  0.00    +0.190 C 
BRANCH  41  43
ATOM     42  C   LIG    1        1.674   6.376  -1.122  0.00  0.00    +0.040 C 
ATOM     43  C   LIG    1        0.182   6.721  -1.268  0.00  0.00    +0.137 C 
BRANCH  43  44
ATOM     44  O   LIG    1       -0.194   6.634  -2.628  0.00  0.00    -0.390 OA
ATOM     45  H   LIG    1       -1.119   6.876  -2.705  0.00  0.00    +0.210 HD
ENDBRANCH  43  44
ENDBRANCH  41  43
ENDBRANCH  40  41
ENDBRANCH  39  40
ENDBRANCH  33  39
BRANCH  37  46
ATOM     46  O   LIG    1        1.004  -0.054  -2.575  0.00  0.00    -0.369 OA
BRANCH  46  47
ATOM     47  C   LIG    1        1.435  -0.424  -3.880  0.00  0.00    +0.191 C 
BRANCH  47  48
ATOM     48  C   LIG    1        2.958  -0.238  -4.003  0.00  0.00    +0.137 C 
ATOM     49  C   LIG    1        3.764  -1.055  -2.978  0.00  0.00    +0.040 C 
BRANCH  48  50
ATOM     50  O   LIG    1        3.280   1.135  -3.892  0.00  0.00    -0.390 OA
ATOM     51  H   LIG    1        2.740   1.625  -4.517  0.00  0.00    +0.210 HD
ENDBRANCH  48  50
ENDBRANCH  47  48
ENDBRANCH  46  47
ENDBRANCH  37  46
BRANCH  36  52
ATOM     52  O   LIG    1       -0.013  -1.798  -0.598  0.00  0.00    -0.366 OA
BRANCH  52  53
ATOM     53  C   LIG    1       -0.438  -2.935  -1.342  0.00  0.00    +0.191 C 
BRANCH  53  54
ATOM     54  C   LIG    1        0.294  -4.185  -0.817  0.00  0.00    +0.137 C 
ATOM     55  C   LIG    1        0.053  -5.423  -1.695  0.00  0.00    +0.040 C 
BRANCH  54  56
ATOM     56  O   LIG    1       -0.148  -4.478   0.494  0.00  0.00    -0.390 OA
ATOM     57  H   LIG    1       -1.096  -4.630   0.470  0.00  0.00    +0.210 HD
ENDBRANCH  54  56
ENDBRANCH  53  54
ENDBRANCH  52  53
ENDBRANCH  36  52
BRANCH  38  58
ATOM     58  O   LIG    1       -0.719   1.948  -3.789  0.00  0.00    -0.369 OA
BRANCH  58  59
ATOM     59  C   LIG    1       -1.561   1.532  -4.862  0.00  0.00    +0.191 C 
BRANCH  59  60
ATOM     60  C   LIG    1       -1.205   2.315  -6.141  0.00  0.00    +0.137 C 
ATOM     61  C   LIG    1        0.247   2.121  -6.609  0.00  0.00    +0.040 C 
BRANCH  60  62
ATOM     62  O   LIG    1       -1.459   3.692  -5.943  0.00  0.00    -0.390 OA
ATOM     63  H   LIG    1       -0.900   4.002  -5.226  0.00  0.00    +0.210 HD
ENDBRANCH  60  62
ENDBRANCH  59  60
ENDBRANCH  58  59
ENDBRANCH  38  58
ENDBRANCH   1  35
TORSDOF 36
