REMARK  Name = DB11706
REMARK                            x       y       z     vdW  Elec       q    Type
REMARK                         _______ _______ _______ _____ _____    ______ ____
ROOT
ATOM      1  C   LIG    1        1.262   0.262   0.058  0.00  0.00    +0.121 A 
ATOM      2  C   LIG    1        2.019   1.441   0.152  0.00  0.00    +0.046 A 
ATOM      3  C   LIG    1        3.406   1.378   0.249  0.00  0.00    +0.009 A 
ATOM      4  C   LIG    1        4.054   0.139   0.257  0.00  0.00    -0.030 A 
ATOM      5  C   LIG    1        3.305  -1.035   0.157  0.00  0.00    +0.009 A 
ATOM      6  C   LIG    1        1.917  -0.970   0.060  0.00  0.00    +0.046 A 
ENDROOT
BRANCH   4   7
ATOM      7  C   LIG    1        5.575   0.059   0.348  0.00  0.00    +0.085 C 
ATOM      8  N   LIG    1        6.153   0.847   1.426  0.00  0.00    -0.299 NA
ATOM      9  H   LIG    1        5.983   0.371   2.300  0.00  0.00    +0.123 HD
ATOM     10  C   LIG    1        7.585   0.857   1.137  0.00  0.00    +0.141 C 
ATOM     11  C   LIG    1        7.719   0.897  -0.400  0.00  0.00    +0.030 C 
ATOM     12  C   LIG    1        6.344   0.465  -0.913  0.00  0.00    +0.025 C 
BRANCH  10  13
ATOM     13  C   LIG    1        8.301   2.056   1.798  0.00  0.00    +0.228 C 
ATOM     14  N   LIG    1        9.600   1.904   2.072  0.00  0.00    -0.328 N 
ATOM     15  H   LIG    1       10.118   2.660   2.494  0.00  0.00    +0.145 HD
ATOM     16  H   LIG    1       10.070   1.036   1.860  0.00  0.00    +0.145 HD
ATOM     17  O   LIG    1        7.716   3.113   2.038  0.00  0.00    -0.274 OA
ENDBRANCH  10  13
ENDBRANCH   4   7
BRANCH   1  18
ATOM     18  O   LIG    1       -0.116   0.227  -0.042  0.00  0.00    -0.487 OA
BRANCH  18  19
ATOM     19  C   LIG    1       -0.849   1.448  -0.035  0.00  0.00    +0.267 C 
BRANCH  19  22
ATOM     20  C   LIG    1       -4.437   1.230  -1.321  0.00  0.00    +0.001 A 
ATOM     21  C   LIG    1       -3.073   1.511  -1.246  0.00  0.00    +0.010 A 
ATOM     22  C   LIG    1       -2.336   1.139  -0.116  0.00  0.00    +0.025 A 
ATOM     23  C   LIG    1       -2.981   0.482   0.940  0.00  0.00    +0.130 A 
ATOM     24  F   LIG    1       -2.288   0.117   2.044  0.00  0.00    -0.205 F 
ATOM     25  C   LIG    1       -4.345   0.201   0.863  0.00  0.00    +0.039 A 
ATOM     26  C   LIG    1       -5.074   0.575  -0.267  0.00  0.00    +0.003 A 
ENDBRANCH  19  22
ENDBRANCH  18  19
ENDBRANCH   1  18
TORSDOF 5
