REMARK  Name = DB11299
REMARK                            x       y       z     vdW  Elec       q    Type
REMARK                         _______ _______ _______ _____ _____    ______ ____
ROOT
ATOM      1  C   LIG    1       -0.574   1.418  -0.012  0.00  0.00    -0.018 A 
ATOM      2  C   LIG    1       -0.227   2.268   1.042  0.00  0.00    +0.055 A 
ATOM      3  C   LIG    1       -0.688   3.596   1.083  0.00  0.00    +0.162 A 
ATOM      4  C   LIG    1       -1.508   4.053   0.041  0.00  0.00    +0.158 A 
ATOM      5  C   LIG    1       -1.858   3.206  -1.011  0.00  0.00    +0.049 A 
ATOM      6  C   LIG    1       -1.394   1.893  -1.038  0.00  0.00    +0.010 A 
ENDROOT
BRANCH   3   7
ATOM      7  O   LIG    1       -0.380   4.488   2.096  0.00  0.00    -0.491 OA
ATOM      8  C   LIG    1        0.456   4.066   3.169  0.00  0.00    +0.277 C 
ENDBRANCH   3   7
BRANCH   4   9
ATOM      9  O   LIG    1       -1.979   5.342   0.039  0.00  0.00    -0.503 OA
ATOM     10  H   LIG    1       -2.522   5.541  -0.728  0.00  0.00    +0.292 HD
ENDBRANCH   4   9
BRANCH   1  11
ATOM     11  C   LIG    1       -0.062  -0.014  -0.034  0.00  0.00    +0.195 C 
BRANCH  11  12
ATOM     12  O   LIG    1        1.359  -0.001  -0.044  0.00  0.00    -0.375 OA
BRANCH  12  13
ATOM     13  C   LIG    1        1.944  -1.296  -0.072  0.00  0.00    +0.160 C 
BRANCH  13  14
ATOM     14  C   LIG    1        3.476  -1.171  -0.057  0.00  0.00    +0.028 C 
BRANCH  14  16
ATOM     15  C   LIG    1        5.576  -0.311  -1.248  0.00  0.00    +0.004 C 
ATOM     16  C   LIG    1        4.047  -0.429  -1.281  0.00  0.00    -0.001 C 
ENDBRANCH  14  16
ENDBRANCH  13  14
ENDBRANCH  12  13
ENDBRANCH  11  12
ENDBRANCH   1  11
TORSDOF 7
