REMARK  Name = DB11898
REMARK                            x       y       z     vdW  Elec       q    Type
REMARK                         _______ _______ _______ _____ _____    ______ ____
ROOT
ATOM      1  C   LIG    1        1.865   1.250  -3.387  0.00  0.00    +0.175 C 
ATOM      2  S   LIG    1        1.356  -0.428  -2.980  0.00  0.00    -0.058 S 
ATOM      3  C   LIG    1       -0.373   0.073  -2.876  0.00  0.00    +0.279 C 
ATOM      4  O   LIG    1       -1.296  -0.692  -2.607  0.00  0.00    -0.263 OA
ATOM      5  N   LIG    1       -0.469   1.383  -3.135  0.00  0.00    -0.247 N 
ATOM      6  H   LIG    1       -1.375   1.827  -3.117  0.00  0.00    +0.158 HD
ATOM      7  C   LIG    1        0.615   2.117  -3.416  0.00  0.00    +0.230 C 
ATOM      8  O   LIG    1        0.619   3.320  -3.664  0.00  0.00    -0.274 OA
ENDROOT
TORSDOF 0
