REMARK  Name = DB11613
REMARK                            x       y       z     vdW  Elec       q    Type
REMARK                         _______ _______ _______ _____ _____    ______ ____
ROOT
ATOM      1  C   LIG    1      -10.683  -0.732   0.614  0.00  0.00    +0.129 A 
ATOM      2  N   LIG    1       -9.409  -1.156   0.925  0.00  0.00    -0.340 N 
ATOM      3  H   LIG    1       -9.197  -2.040   1.366  0.00  0.00    +0.167 HD
ATOM      4  C   LIG    1       -8.565  -0.189   0.440  0.00  0.00    +0.074 A 
ATOM      5  C   LIG    1       -7.154  -0.112   0.390  0.00  0.00    +0.011 A 
ATOM      6  C   LIG    1       -6.331  -1.147   0.890  0.00  0.00    +0.057 A 
ATOM      7  C   LIG    1       -4.949  -1.038   0.774  0.00  0.00    +0.129 A 
ATOM      8  O   LIG    1       -4.209  -2.085   1.287  0.00  0.00    -0.487 OA
ATOM      9  C   LIG    1       -2.996  -2.363   0.578  0.00  0.00    +0.265 C 
ATOM     10  C   LIG    1       -2.176  -1.108   0.291  0.00  0.00    -0.002 A 
ATOM     11  C   LIG    1       -0.779  -1.128   0.250  0.00  0.00    +0.017 A 
ATOM     12  C   LIG    1       -0.041   0.035   0.003  0.00  0.00    +0.000 A 
ATOM     13  C   LIG    1       -0.725   1.238  -0.185  0.00  0.00    +0.010 A 
ATOM     14  C   LIG    1       -2.117   1.276  -0.129  0.00  0.00    +0.009 A 
ATOM     15  C   LIG    1       -2.854   0.109   0.110  0.00  0.00    -0.008 A 
ATOM     16  C   LIG    1       -4.345   0.089   0.196  0.00  0.00    +0.025 A 
ATOM     17  C   LIG    1       -5.156   1.122  -0.292  0.00  0.00    +0.020 A 
ATOM     18  C   LIG    1       -6.569   1.038  -0.211  0.00  0.00    -0.015 A 
ATOM     19  C   LIG    1       -7.420   2.058  -0.720  0.00  0.00    +0.011 A 
ATOM     20  C   LIG    1       -8.815   1.956  -0.665  0.00  0.00    +0.030 A 
ATOM     21  C   LIG    1       -9.392   0.815  -0.089  0.00  0.00    +0.090 A 
ATOM     22  N   LIG    1      -10.709   0.460   0.055  0.00  0.00    -0.231 NA
ENDROOT
BRANCH   1  26
ATOM     23  C   LIG    1      -11.594  -3.848  -0.008  0.00  0.00    +0.237 C 
ATOM     24  O   LIG    1      -11.625  -5.076   0.113  0.00  0.00    -0.274 OA
ATOM     25  N   LIG    1      -11.729  -3.001   1.053  0.00  0.00    -0.287 N 
ATOM     26  C   LIG    1      -11.932  -1.539   0.944  0.00  0.00    +0.142 C 
ATOM     27  C   LIG    1      -12.557  -1.163   2.292  0.00  0.00    +0.032 C 
ATOM     28  C   LIG    1      -12.021  -2.187   3.268  0.00  0.00    +0.024 C 
ATOM     29  C   LIG    1      -11.910  -3.472   2.445  0.00  0.00    +0.074 C 
ATOM     30  C   LIG    1      -10.823  -4.431   2.982  0.00  0.00    +0.028 C 
BRANCH  23  31
ATOM     31  C   LIG    1      -11.368  -3.277  -1.441  0.00  0.00    +0.165 C 
BRANCH  31  32
ATOM     32  N   LIG    1       -9.940  -3.458  -1.751  0.00  0.00    -0.270 N 
ATOM     33  H   LIG    1       -9.524  -4.367  -1.606  0.00  0.00    +0.153 HD
ATOM     34  C   LIG    1       -9.180  -2.438  -2.311  0.00  0.00    +0.401 C 
ATOM     35  O   LIG    1       -9.585  -1.326  -2.658  0.00  0.00    -0.226 OA
BRANCH  34  36
ATOM     36  O   LIG    1       -7.903  -2.856  -2.412  0.00  0.00    -0.454 OA
ATOM     37  C   LIG    1       -6.895  -1.993  -2.920  0.00  0.00    +0.282 C 
ENDBRANCH  34  36
ENDBRANCH  31  32
BRANCH  31  38
ATOM     38  C   LIG    1      -12.279  -4.031  -2.474  0.00  0.00    +0.012 C 
ATOM     39  C   LIG    1      -13.786  -3.987  -2.133  0.00  0.00    +0.009 C 
ATOM     40  C   LIG    1      -12.075  -3.517  -3.913  0.00  0.00    +0.009 C 
ENDBRANCH  31  38
ENDBRANCH  23  31
ENDBRANCH   1  26
BRANCH  12  41
ATOM     41  C   LIG    1        1.450   0.003  -0.063  0.00  0.00    +0.066 A 
ATOM     42  N   LIG    1        2.212  -1.133   0.032  0.00  0.00    -0.340 N 
ATOM     43  H   LIG    1        1.867  -2.073   0.159  0.00  0.00    +0.167 HD
ATOM     44  C   LIG    1        3.527  -0.761  -0.068  0.00  0.00    +0.128 A 
ATOM     45  N   LIG    1        3.652   0.534  -0.227  0.00  0.00    -0.238 NA
ATOM     46  C   LIG    1        2.413   1.000  -0.220  0.00  0.00    +0.139 A 
BRANCH  44  47
ATOM     47  C   LIG    1        4.689  -1.746  -0.009  0.00  0.00    +0.142 C 
ATOM     48  N   LIG    1        4.665  -2.693   1.125  0.00  0.00    -0.289 N 
ATOM     49  C   LIG    1        4.642  -2.298   2.428  0.00  0.00    +0.241 C 
ATOM     50  O   LIG    1        4.616  -1.109   2.754  0.00  0.00    -0.273 OA
ATOM     51  C   LIG    1        4.824  -4.085   0.684  0.00  0.00    +0.114 C 
ATOM     52  C   LIG    1        5.383  -3.948  -0.734  0.00  0.00    +0.034 C 
ATOM     53  C   LIG    1        4.753  -2.658  -1.241  0.00  0.00    +0.037 C 
BRANCH  49  54
ATOM     54  C   LIG    1        4.692  -3.379   3.557  0.00  0.00    +0.193 C 
BRANCH  54  55
ATOM     55  C   LIG    1        6.084  -3.871   3.980  0.00  0.00    -0.018 A 
ATOM     56  C   LIG    1        7.243  -3.576   3.239  0.00  0.00    +0.006 A 
ATOM     57  C   LIG    1        8.487  -4.056   3.639  0.00  0.00    +0.000 A 
ATOM     58  C   LIG    1        8.589  -4.845   4.780  0.00  0.00    +0.000 A 
ATOM     59  C   LIG    1        7.456  -5.161   5.521  0.00  0.00    +0.000 A 
ATOM     60  C   LIG    1        6.213  -4.682   5.119  0.00  0.00    +0.006 A 
ENDBRANCH  54  55
BRANCH  54  61
ATOM     61  N   LIG    1        3.798  -3.057   4.700  0.00  0.00    -0.266 N 
ATOM     62  H   LIG    1        2.901  -3.520   4.712  0.00  0.00    +0.153 HD
ATOM     63  C   LIG    1        4.054  -2.115   5.704  0.00  0.00    +0.401 C 
ATOM     64  O   LIG    1        3.261  -1.859   6.611  0.00  0.00    -0.226 OA
BRANCH  63  65
ATOM     65  O   LIG    1        5.269  -1.528   5.570  0.00  0.00    -0.454 OA
ATOM     66  C   LIG    1        5.712  -0.548   6.497  0.00  0.00    +0.282 C 
ENDBRANCH  63  65
ENDBRANCH  54  61
ENDBRANCH  49  54
BRANCH  52  67
ATOM     67  C   LIG    1        5.111  -5.186  -1.608  0.00  0.00    +0.164 C 
BRANCH  67  68
ATOM     68  O   LIG    1        5.702  -4.994  -2.886  0.00  0.00    -0.383 OA
ATOM     69  C   LIG    1        5.495  -6.080  -3.775  0.00  0.00    +0.193 C 
ENDBRANCH  67  68
ENDBRANCH  52  67
ENDBRANCH  44  47
ENDBRANCH  12  41
TORSDOF 13
