REMARK  Name = DB11560
REMARK                            x       y       z     vdW  Elec       q    Type
REMARK                         _______ _______ _______ _____ _____    ______ ____
ROOT
ATOM      1  C   LIG    1        0.754   2.916   0.900  0.00  0.00    +0.027 A 
ATOM      2  C   LIG    1       -0.206   2.561  -0.046  0.00  0.00    +0.059 A 
ATOM      3  C   LIG    1       -0.687   3.532  -0.982  0.00  0.00    +0.006 A 
ATOM      4  C   LIG    1       -1.634   3.217  -2.000  0.00  0.00    +0.010 A 
ATOM      5  C   LIG    1       -2.076   4.186  -2.892  0.00  0.00    +0.001 A 
ATOM      6  C   LIG    1       -1.596   5.485  -2.814  0.00  0.00    +0.001 A 
ATOM      7  C   LIG    1       -0.664   5.835  -1.844  0.00  0.00    +0.009 A 
ATOM      8  C   LIG    1       -0.185   4.875  -0.906  0.00  0.00    -0.012 A 
ATOM      9  C   LIG    1        0.777   5.199   0.102  0.00  0.00    -0.036 A 
ATOM     10  C   LIG    1        1.238   4.213   0.971  0.00  0.00    +0.006 A 
ENDROOT
BRANCH   2  11
ATOM     11  N   LIG    1       -0.677   1.232  -0.040  0.00  0.00    -0.264 N 
ATOM     12  C   LIG    1       -1.941   0.783   0.279  0.00  0.00    +0.205 A 
ATOM     13 BR   LIG    1       -3.358   1.943   0.811  0.00  0.00    -0.006 Br
ATOM     14  N   LIG    1       -2.025  -0.518   0.191  0.00  0.00    -0.121 NA
ATOM     15  N   LIG    1       -0.769  -0.972  -0.192  0.00  0.00    -0.121 NA
ATOM     16  C   LIG    1        0.019   0.071  -0.319  0.00  0.00    +0.197 A 
BRANCH  16  17
ATOM     17  S   LIG    1        1.722   0.011  -0.804  0.00  0.00    -0.074 S 
BRANCH  17  18
ATOM     18  C   LIG    1        1.938  -1.786  -1.041  0.00  0.00    +0.197 C 
BRANCH  18  19
ATOM     19  C   LIG    1        3.344  -2.198  -1.489  0.00  0.00    +0.315 C 
ATOM     20  O   LIG    1        4.267  -1.412  -1.702  0.00  0.00    -0.250 OA
BRANCH  19  21
ATOM     21  O   LIG    1        3.435  -3.552  -1.622  0.00  0.00    -0.480 OA
ATOM     22  H   LIG    1        4.309  -3.832  -1.904  0.00  0.00    +0.295 HD
ENDBRANCH  19  21
ENDBRANCH  18  19
ENDBRANCH  17  18
ENDBRANCH  16  17
ENDBRANCH   2  11
BRANCH   9  23
ATOM     23  C   LIG    1        1.324   6.619   0.217  0.00  0.00    +0.020 C 
ATOM     24  C   LIG    1        0.467   7.767   0.703  0.00  0.00    +0.009 C 
ATOM     25  C   LIG    1        1.618   7.277   1.549  0.00  0.00    +0.009 C 
ENDBRANCH   9  23
TORSDOF 6
