REMARK  Name = DB11920
REMARK                            x       y       z     vdW  Elec       q    Type
REMARK                         _______ _______ _______ _____ _____    ______ ____
ROOT
ATOM      1  C   LIG    1        1.510   0.006   0.099  0.00  0.00    +0.158 C 
ATOM      2  F   LIG    1        1.945   0.691   1.159  0.00  0.00    -0.247 F 
ENDROOT
BRANCH   1   3
ATOM      3  C   LIG    1       -0.031  -0.006   0.019  0.00  0.00    -0.049 C 
BRANCH   3   4
ATOM      4  N   LIG    1       -0.585   1.422  -0.076  0.00  0.00    +0.380 N 
ATOM      5  H   LIG    1       -0.308   1.953   0.738  0.00  0.00    -0.090 HD
ATOM      6  H   LIG    1       -0.224   1.880  -0.901  0.00  0.00    -0.090 HD
ATOM      7  H   LIG    1       -1.593   1.403  -0.127  0.00  0.00    -0.090 HD
ENDBRANCH   3   4
ENDBRANCH   1   3
BRANCH   1   8
ATOM      8  C   LIG    1        2.083  -1.422   0.094  0.00  0.00    +0.129 C 
BRANCH   8   9
ATOM      9  P   LIG    1        3.954  -1.433  -0.013  0.00  0.00    +0.193 P 
ATOM     10  H   LIG    1        4.212  -2.832  -0.071  0.00  0.00    +0.128 HD
ATOM     11  O   LIG    1        4.376  -0.876  -1.354  0.00  0.00    -0.294 OA
BRANCH   9  12
ATOM     12  O   LIG    1        4.535  -0.958   1.300  0.00  0.00    -0.346 OA
ATOM     13  H   LIG    1        4.386  -0.004   1.393  0.00  0.00    +0.217 HD
ENDBRANCH   9  12
ENDBRANCH   8   9
ENDBRANCH   1   8
TORSDOF 5
