REMARK  Name = DB11633
REMARK                            x       y       z     vdW  Elec       q    Type
REMARK                         _______ _______ _______ _____ _____    ______ ____
ROOT
ATOM      1  C   LIG    1       -0.200   0.085  -0.094  0.00  0.00    +0.121 C 
ENDROOT
BRANCH   1   2
ATOM      2  C   LIG    1       -0.543  -0.787  -1.335  0.00  0.00    +0.024 A 
ATOM      3  C   LIG    1       -0.198  -2.153  -1.374  0.00  0.00    +0.130 A 
ATOM      4  F   LIG    1        0.423  -2.743  -0.327  0.00  0.00    -0.205 F 
ATOM      5  C   LIG    1       -0.495  -2.934  -2.492  0.00  0.00    +0.041 A 
ATOM      6  C   LIG    1       -1.141  -2.371  -3.590  0.00  0.00    +0.041 A 
ATOM      7  C   LIG    1       -1.496  -1.025  -3.569  0.00  0.00    +0.124 A 
ATOM      8  F   LIG    1       -2.126  -0.477  -4.633  0.00  0.00    -0.205 F 
ATOM      9  C   LIG    1       -1.201  -0.243  -2.453  0.00  0.00    +0.047 A 
ENDBRANCH   1   2
BRANCH   1  10
ATOM     10  O   LIG    1       -0.701   1.415  -0.229  0.00  0.00    -0.381 OA
ATOM     11  H   LIG    1       -0.472   1.906   0.564  0.00  0.00    +0.211 HD
ENDBRANCH   1  10
BRANCH   1  12
ATOM     12  C   LIG    1        1.372   0.212   0.030  0.00  0.00    +0.080 C 
ATOM     13  C   LIG    1        2.049   0.789  -1.241  0.00  0.00    +0.018 C 
BRANCH  12  14
ATOM     14  C   LIG    1        1.853   0.955   1.279  0.00  0.00    +0.085 A 
ATOM     15  N   LIG    1        2.221   0.315   2.364  0.00  0.00    -0.244 NA
ATOM     16  C   LIG    1        2.605   1.096   3.364  0.00  0.00    +0.078 A 
ATOM     17  C   LIG    1        2.561   2.457   3.051  0.00  0.00    +0.075 A 
ATOM     18  S   LIG    1        1.994   2.683   1.428  0.00  0.00    -0.080 S 
BRANCH  16  19
ATOM     19  C   LIG    1        3.022   0.496   4.679  0.00  0.00    +0.001 A 
ATOM     20  C   LIG    1        2.856  -0.873   4.937  0.00  0.00    +0.011 A 
ATOM     21  C   LIG    1        3.241  -1.417   6.159  0.00  0.00    +0.019 A 
ATOM     22  C   LIG    1        3.798  -0.597   7.139  0.00  0.00    +0.052 A 
ATOM     23  C   LIG    1        3.970   0.766   6.898  0.00  0.00    +0.019 A 
ATOM     24  C   LIG    1        3.584   1.308   5.674  0.00  0.00    +0.011 A 
BRANCH  22  25
ATOM     25  C   LIG    1        4.199  -1.164   8.418  0.00  0.00    +0.099 C 
ATOM     26  N   LIG    1        4.518  -1.616   9.435  0.00  0.00    -0.191 NA
ENDBRANCH  22  25
ENDBRANCH  16  19
ENDBRANCH  12  14
ENDBRANCH   1  12
BRANCH   1  27
ATOM     27  C   LIG    1       -0.864  -0.588   1.176  0.00  0.00    +0.185 C 
BRANCH  27  31
ATOM     28  N   LIG    1       -2.984   1.478   3.267  0.00  0.00    -0.223 NA
ATOM     29  C   LIG    1       -1.735   1.685   3.654  0.00  0.00    +0.244 A 
ATOM     30  N   LIG    1       -0.788   1.025   3.024  0.00  0.00    -0.158 NA
ATOM     31  N   LIG    1       -1.497   0.315   2.144  0.00  0.00    -0.249 N 
ATOM     32  C   LIG    1       -2.824   0.607   2.304  0.00  0.00    +0.219 A 
ENDBRANCH  27  31
ENDBRANCH   1  27
TORSDOF 8
