REMARK  Name = DB11741
REMARK                            x       y       z     vdW  Elec       q    Type
REMARK                         _______ _______ _______ _____ _____    ______ ____
ROOT
ATOM      1  N   LIG    1        2.864  -1.590   0.701  0.00  0.00    -0.299 N 
ATOM      2  C   LIG    1        4.073  -0.945   0.863  0.00  0.00    +0.249 C 
ATOM      3  O   LIG    1        4.599  -0.307  -0.052  0.00  0.00    -0.270 OA
ATOM      4  C   LIG    1        4.574  -1.013   2.227  0.00  0.00    +0.061 A 
ATOM      5  C   LIG    1        5.799  -0.540   2.765  0.00  0.00    -0.013 A 
ATOM      6  C   LIG    1        6.949   0.082   1.995  0.00  0.00    +0.047 C 
ATOM      7  C   LIG    1        5.797  -0.838   4.135  0.00  0.00    +0.044 A 
ATOM      8  N   LIG    1        4.600  -1.441   4.418  0.00  0.00    -0.357 N 
ATOM      9  H   LIG    1        4.319  -1.775   5.330  0.00  0.00    +0.166 HD
ATOM     10  C   LIG    1        3.833  -1.492   3.292  0.00  0.00    +0.030 A 
ATOM     11  C   LIG    1        2.481  -2.126   3.161  0.00  0.00    +0.073 C 
ATOM     12  C   LIG    1        2.310  -2.559   1.685  0.00  0.00    +0.114 C 
ENDROOT
BRANCH   7  13
ATOM     13  C   LIG    1        6.823  -0.660   5.159  0.00  0.00    +0.039 C 
ATOM     14  C   LIG    1        6.773  -0.360   6.481  0.00  0.00    +0.048 C 
ATOM     15  C   LIG    1        5.566  -0.076   7.252  0.00  0.00    +0.249 C 
ATOM     16  O   LIG    1        4.391  -0.043   6.890  0.00  0.00    -0.270 OA
ATOM     17  N   LIG    1        5.981   0.171   8.508  0.00  0.00    -0.281 N 
ATOM     18  H   LIG    1        5.352   0.406   9.262  0.00  0.00    +0.155 HD
ATOM     19  C   LIG    1        7.347   0.097   8.643  0.00  0.00    +0.042 A 
ATOM     20  C   LIG    1        8.149   0.294   9.766  0.00  0.00    +0.027 A 
ATOM     21  C   LIG    1        9.534   0.162   9.632  0.00  0.00    +0.040 A 
ATOM     22  C   LIG    1       10.093  -0.161   8.390  0.00  0.00    +0.124 A 
ATOM     23  F   LIG    1       11.434  -0.287   8.267  0.00  0.00    -0.205 F 
ATOM     24  C   LIG    1        9.269  -0.355   7.277  0.00  0.00    +0.048 A 
ATOM     25  C   LIG    1        7.885  -0.222   7.417  0.00  0.00    +0.011 A 
ENDBRANCH   7  13
BRANCH   1  26
ATOM     26  C   LIG    1        2.251  -1.623  -0.640  0.00  0.00    +0.089 C 
BRANCH  26  27
ATOM     27  C   LIG    1        1.585  -0.292  -1.059  0.00  0.00    -0.060 C 
BRANCH  27  28
ATOM     28  N   LIG    1        0.355  -0.000  -0.162  0.00  0.00    +0.380 N 
ATOM     29  H   LIG    1        0.605  -0.310   0.766  0.00  0.00    -0.082 HD
BRANCH  28  31
ATOM     30  C   LIG    1       -1.839  -1.020   0.609  0.00  0.00    -0.017 C 
ATOM     31  C   LIG    1       -0.884  -0.830  -0.582  0.00  0.00    -0.082 C 
ENDBRANCH  28  31
BRANCH  28  32
ATOM     32  C   LIG    1        0.051   1.514  -0.047  0.00  0.00    -0.082 C 
ATOM     33  C   LIG    1        1.051   2.196   0.903  0.00  0.00    -0.017 C 
ENDBRANCH  28  32
ENDBRANCH  27  28
ENDBRANCH  26  27
ENDBRANCH   1  26
TORSDOF 6
