REMARK  Name = DB11610
REMARK                            x       y       z     vdW  Elec       q    Type
REMARK                         _______ _______ _______ _____ _____    ______ ____
ROOT
ATOM      1  C   LIG    1        1.373  -0.040  -0.061  0.00  0.00    +0.161 C 
ENDROOT
BRANCH   1   2
ATOM      2  C   LIG    1        1.956   0.776  -1.224  0.00  0.00    -0.017 A 
ATOM      3  C   LIG    1        2.240   2.141  -1.084  0.00  0.00    +0.010 A 
ATOM      4  C   LIG    1        2.764   2.862  -2.155  0.00  0.00    +0.046 A 
ATOM      5  C   LIG    1        3.008   2.219  -3.367  0.00  0.00    +0.117 A 
ATOM      6  C   LIG    1        2.735   0.861  -3.514  0.00  0.00    +0.046 A 
ATOM      7  C   LIG    1        2.211   0.142  -2.444  0.00  0.00    +0.010 A 
BRANCH   5   8
ATOM      8  O   LIG    1        3.521   2.927  -4.420  0.00  0.00    -0.507 OA
ATOM      9  H   LIG    1        3.668   3.853  -4.212  0.00  0.00    +0.292 HD
ENDBRANCH   5   8
ENDBRANCH   1   2
BRANCH   1  11
ATOM     10  C   LIG    1       -0.683  -1.171  -1.116  0.00  0.00    +0.027 C 
ATOM     11  C   LIG    1       -0.186  -0.168  -0.057  0.00  0.00    +0.083 C 
BRANCH  11  12
ATOM     12  N   LIG    1       -0.905   1.086  -0.296  0.00  0.00    -0.314 NA
ATOM     13  H   LIG    1       -1.859   0.898  -0.569  0.00  0.00    +0.122 HD
ATOM     14  C   LIG    1       -0.868   2.009   0.829  0.00  0.00    +0.101 C 
ENDBRANCH  11  12
ENDBRANCH   1  11
BRANCH   1  15
ATOM     15  O   LIG    1        1.827   0.384   1.214  0.00  0.00    -0.386 OA
ATOM     16  H   LIG    1        2.778   0.257   1.254  0.00  0.00    +0.210 HD
ENDBRANCH   1  15
TORSDOF 5
