REMARK  Name = DB11748
REMARK                            x       y       z     vdW  Elec       q    Type
REMARK                         _______ _______ _______ _____ _____    ______ ____
ROOT
ATOM      1  C   LIG    1       -0.070  -0.609  -0.154  0.00  0.00    +0.012 C 
ATOM      2  C   LIG    1       -0.679  -1.629  -0.823  0.00  0.00    +0.020 C 
ATOM      3  C   LIG    1        0.054  -2.854  -1.377  0.00  0.00    +0.062 C 
ENDROOT
BRANCH   2   4
ATOM      4  N   LIG    1       -2.027  -1.671  -1.078  0.00  0.00    -0.273 N 
ATOM      5  C   LIG    1       -2.514  -1.015  -2.159  0.00  0.00    +0.332 C 
ATOM      6  O   LIG    1       -3.692  -1.021  -2.520  0.00  0.00    -0.279 OA
BRANCH   4   7
ATOM      7  C   LIG    1       -2.888  -2.549  -0.264  0.00  0.00    +0.153 C 
BRANCH   7   8
ATOM      8  C   LIG    1       -3.086  -2.083   1.175  0.00  0.00    +0.028 A 
ATOM      9  C   LIG    1       -4.068  -1.129   1.470  0.00  0.00    +0.121 A 
ATOM     10  N   LIG    1       -4.337  -0.717   2.736  0.00  0.00    -0.240 NA
ATOM     11  C   LIG    1       -3.603  -1.300   3.717  0.00  0.00    +0.128 A 
ATOM     12  C   LIG    1       -3.911  -0.881   5.141  0.00  0.00    +0.088 C 
ATOM     13  N   LIG    1       -2.633  -2.237   3.546  0.00  0.00    -0.218 NA
ATOM     14  C   LIG    1       -2.383  -2.623   2.267  0.00  0.00    +0.124 A 
BRANCH  14  15
ATOM     15  N   LIG    1       -1.385  -3.581   2.094  0.00  0.00    -0.343 N 
ATOM     16  H   LIG    1       -0.896  -3.933   2.904  0.00  0.00    +0.144 HD
ATOM     17  H   LIG    1       -1.139  -3.881   1.162  0.00  0.00    +0.144 HD
ENDBRANCH  14  15
ENDBRANCH   7   8
ENDBRANCH   4   7
ENDBRANCH   2   4
BRANCH   1  18
ATOM     18  S   LIG    1       -1.018   0.766   0.532  0.00  0.00    -0.050 S 
BRANCH  18  19
ATOM     19  C   LIG    1       -0.620   0.662   2.338  0.00  0.00    +0.224 C 
ATOM     20  O   LIG    1        0.021  -0.282   2.803  0.00  0.00    -0.279 OA
BRANCH  19  21
ATOM     21  C   LIG    1       -1.249   1.712   3.202  0.00  0.00    +0.029 A 
ATOM     22  C   LIG    1       -1.641   2.958   2.690  0.00  0.00    +0.012 A 
ATOM     23  C   LIG    1       -2.212   3.915   3.525  0.00  0.00    +0.001 A 
ATOM     24  C   LIG    1       -2.386   3.638   4.877  0.00  0.00    +0.000 A 
ATOM     25  C   LIG    1       -1.988   2.414   5.405  0.00  0.00    +0.001 A 
ATOM     26  C   LIG    1       -1.417   1.456   4.571  0.00  0.00    +0.012 A 
ENDBRANCH  19  21
ENDBRANCH  18  19
ENDBRANCH   1  18
BRANCH   1  27
ATOM     27  C   LIG    1        1.453  -0.531   0.057  0.00  0.00    +0.072 C 
BRANCH  27  28
ATOM     28  C   LIG    1        2.099   0.870   0.055  0.00  0.00    +0.177 C 
BRANCH  28  29
ATOM     29  O   LIG    1        1.755   1.556  -1.138  0.00  0.00    -0.286 OA
BRANCH  29  30
ATOM     30  P   LIG    1        1.627   3.180  -1.142  0.00  0.00    +0.472 P 
ATOM     31  O   LIG    1        0.678   3.758  -0.151  0.00  0.00    -0.228 OA
BRANCH  30  32
ATOM     32  O   LIG    1        1.288   3.510  -2.695  0.00  0.00    -0.303 OA
ATOM     33  H   LIG    1        0.469   4.017  -2.851  0.00  0.00    +0.222 HD
ENDBRANCH  30  32
BRANCH  30  34
ATOM     34  O   LIG    1        3.168   3.668  -0.989  0.00  0.00    -0.303 OA
ATOM     35  H   LIG    1        3.346   4.288  -0.256  0.00  0.00    +0.222 HD
ENDBRANCH  30  34
ENDBRANCH  29  30
ENDBRANCH  28  29
ENDBRANCH  27  28
ENDBRANCH   1  27
TORSDOF 13
