REMARK  Name = DB11100
REMARK                            x       y       z     vdW  Elec       q    Type
REMARK                         _______ _______ _______ _____ _____    ______ ____
ROOT
ATOM      1  C   LIG    1        1.471  -0.046  -0.068  0.00  0.00    +0.251 C 
ATOM      2  C   LIG    1        2.004   0.353  -1.433  0.00  0.00    +0.259 C 
ATOM      3  O   LIG    1        1.848  -0.259  -2.488  0.00  0.00    -0.271 OA
ATOM      4  N   LIG    1        2.645   1.516  -1.239  0.00  0.00    -0.237 N 
ATOM      5  H   LIG    1        3.133   1.992  -1.982  0.00  0.00    +0.159 HD
ATOM      6  C   LIG    1        2.751   1.891   0.054  0.00  0.00    +0.308 C 
ATOM      7  O   LIG    1        3.415   2.822   0.501  0.00  0.00    -0.252 OA
ATOM      8  N   LIG    1        2.208   0.882   0.749  0.00  0.00    -0.273 N 
ATOM      9  H   LIG    1        1.969   0.967   1.726  0.00  0.00    +0.153 HD
ENDROOT
BRANCH   1  14
ATOM     10  C   LIG    1       -0.842   1.034  -0.317  0.00  0.00    +0.299 C 
ATOM     11  N   LIG    1       -2.100   0.780   0.041  0.00  0.00    -0.313 N 
ATOM     12  H   LIG    1       -2.827   1.449  -0.168  0.00  0.00    +0.146 HD
ATOM     13  H   LIG    1       -2.339  -0.083   0.506  0.00  0.00    +0.146 HD
ATOM     14  N   LIG    1       -0.002   0.044   0.048  0.00  0.00    -0.273 N 
ATOM     15  H   LIG    1       -0.401  -0.644   0.669  0.00  0.00    +0.152 HD
ATOM     16  O   LIG    1       -0.520   2.061  -0.909  0.00  0.00    -0.253 OA
ENDBRANCH   1  14
TORSDOF 1
