REMARK  Name = DB11269
REMARK                            x       y       z     vdW  Elec       q    Type
REMARK                         _______ _______ _______ _____ _____    ______ ____
ROOT
ATOM      1  C   LIG    1       -1.125   1.452   0.303  0.00  0.00    +0.070 A 
ATOM      2  C   LIG    1       -0.496   0.242  -0.111  0.00  0.00    +0.036 A 
ATOM      3  C   LIG    1       -1.292  -0.818  -0.575  0.00  0.00    +0.012 A 
ATOM      4  C   LIG    1       -2.678  -0.713  -0.620  0.00  0.00    +0.001 A 
ATOM      5  C   LIG    1       -3.297   0.451  -0.184  0.00  0.00    +0.001 A 
ATOM      6  C   LIG    1       -2.530   1.516   0.276  0.00  0.00    +0.016 A 
ENDROOT
BRANCH   1   7
ATOM      7  C   LIG    1       -0.414   2.702   0.763  0.00  0.00    +0.340 C 
ATOM      8  O   LIG    1       -0.943   3.561   1.475  0.00  0.00    -0.245 OA
BRANCH   7   9
ATOM      9  O   LIG    1        0.808   2.862   0.190  0.00  0.00    -0.461 OA
BRANCH   9  10
ATOM     10  C   LIG    1        1.634   3.991   0.464  0.00  0.00    +0.232 C 
BRANCH  10  11
ATOM     11  C   LIG    1        2.386   3.839   1.799  0.00  0.00    +0.041 C 
BRANCH  11  12
ATOM     12  C   LIG    1        3.336   5.017   2.074  0.00  0.00    +0.003 C 
BRANCH  12  13
ATOM     13  C   LIG    1        4.082   4.888   3.414  0.00  0.00    -0.000 C 
BRANCH  13  15
ATOM     14  C   LIG    1        5.758   5.955   5.033  0.00  0.00    +0.004 C 
ATOM     15  C   LIG    1        5.031   6.069   3.687  0.00  0.00    -0.003 C 
ENDBRANCH  13  15
ENDBRANCH  12  13
ENDBRANCH  11  12
ENDBRANCH  10  11
ENDBRANCH   9  10
ENDBRANCH   7   9
ENDBRANCH   1   7
BRANCH   2  16
ATOM     16  C   LIG    1        0.974  -0.049   0.017  0.00  0.00    +0.197 C 
ATOM     17  O   LIG    1        1.543   0.168   1.089  0.00  0.00    -0.287 OA
BRANCH  16  18
ATOM     18  C   LIG    1        1.736  -0.632  -1.143  0.00  0.00    +0.064 A 
ATOM     19  C   LIG    1        1.474  -0.310  -2.489  0.00  0.00    +0.129 A 
ATOM     20  C   LIG    1        2.241  -0.876  -3.509  0.00  0.00    +0.069 A 
ATOM     21  C   LIG    1        3.299  -1.760  -3.240  0.00  0.00    +0.033 A 
ATOM     22  C   LIG    1        3.565  -2.049  -1.892  0.00  0.00    +0.024 A 
ATOM     23  C   LIG    1        2.806  -1.491  -0.866  0.00  0.00    +0.017 A 
BRANCH  19  24
ATOM     24  O   LIG    1        0.496   0.581  -2.859  0.00  0.00    -0.506 OA
ATOM     25  H   LIG    1        0.444   0.707  -3.809  0.00  0.00    +0.292 HD
ENDBRANCH  19  24
BRANCH  21  26
ATOM     26  N   LIG    1        4.075  -2.332  -4.289  0.00  0.00    -0.330 N 
BRANCH  26  27
ATOM     27  C   LIG    1        5.265  -3.144  -4.012  0.00  0.00    +0.102 C 
ATOM     28  C   LIG    1        4.944  -4.630  -3.793  0.00  0.00    +0.024 C 
ENDBRANCH  26  27
BRANCH  26  29
ATOM     29  C   LIG    1        3.721  -2.145  -5.700  0.00  0.00    +0.102 C 
ATOM     30  C   LIG    1        4.324  -0.871  -6.311  0.00  0.00    +0.024 C 
ENDBRANCH  26  29
ENDBRANCH  21  26
ENDBRANCH  16  18
ENDBRANCH   2  16
TORSDOF 13
