REMARK  Name = DB11248
REMARK                            x       y       z     vdW  Elec       q    Type
REMARK                         _______ _______ _______ _____ _____    ______ ____
ROOT
ATOM      1  C   LIG    1        1.474   0.158   0.020  0.00  0.00    +0.185 C 
ENDROOT
BRANCH   1   2
ATOM      2  O   LIG    1        1.993   0.779  -1.149  0.00  0.00    -0.386 OA
ATOM      3  H   LIG    1        1.707   1.696  -1.155  0.00  0.00    +0.210 HD
ENDBRANCH   1   2
BRANCH   1   4
ATOM      4  C   LIG    1       -0.083   0.045  -0.060  0.00  0.00    +0.177 C 
BRANCH   4   5
ATOM      5  O   LIG    1       -0.682   1.332  -0.061  0.00  0.00    -0.386 OA
ATOM      6  H   LIG    1       -0.292   1.845   0.652  0.00  0.00    +0.210 HD
ENDBRANCH   4   5
BRANCH   4   7
ATOM      7  C   LIG    1       -0.627  -0.779  -1.266  0.00  0.00    +0.171 C 
BRANCH   7   8
ATOM      8  O   LIG    1       -0.057  -2.079  -1.250  0.00  0.00    -0.387 OA
ATOM      9  H   LIG    1       -0.333  -2.524  -0.446  0.00  0.00    +0.210 HD
ENDBRANCH   7   8
BRANCH   7  10
ATOM     10  C   LIG    1       -2.170  -0.926  -1.279  0.00  0.00    +0.189 C 
BRANCH  10  11
ATOM     11  O   LIG    1       -2.629  -1.486  -2.495  0.00  0.00    -0.392 OA
ATOM     12  H   LIG    1       -3.586  -1.552  -2.460  0.00  0.00    +0.210 HD
ENDBRANCH  10  11
ENDBRANCH   7  10
ENDBRANCH   4   7
ENDBRANCH   1   4
BRANCH   1  13
ATOM     13  C   LIG    1        2.030   0.820   1.328  0.00  0.00    +0.254 C 
BRANCH  13  14
ATOM     14  O   LIG    1        1.609   2.178   1.449  0.00  0.00    -0.378 OA
ATOM     15  H   LIG    1        2.396   2.729   1.469  0.00  0.00    +0.211 HD
ENDBRANCH  13  14
BRANCH  13  16
ATOM     16  C   LIG    1        3.583   0.685   1.450  0.00  0.00    +0.336 C 
ATOM     17  O   LIG    1        4.039  -0.476   1.568  0.00  0.00    -0.248 OA
BRANCH  16  18
ATOM     18  O   LIG    1        4.307   1.710   1.448  0.00  0.00    -0.479 OA
ATOM     19  H   LIG    1        3.919   2.558   1.357  0.00  0.00    +0.295 HD
ENDBRANCH  16  18
ENDBRANCH  13  16
ENDBRANCH   1  13
TORSDOF 11
