REMARK  Name = DB11749
REMARK                            x       y       z     vdW  Elec       q    Type
REMARK                         _______ _______ _______ _____ _____    ______ ____
ROOT
ATOM      1  C   LIG    1        1.367   0.003  -0.187  0.00  0.00    +0.219 C 
ATOM      2  O   LIG    1        2.096  -0.875   0.287  0.00  0.00    -0.275 OA
ATOM      3  N   LIG    1        1.877   1.159  -0.699  0.00  0.00    -0.290 N 
ATOM      4  C   LIG    1        3.333   1.375  -0.711  0.00  0.00    +0.203 C 
ATOM      5  C   LIG    1        3.700   2.861  -0.564  0.00  0.00    +0.233 C 
ATOM      6  O   LIG    1        4.601   3.233   0.190  0.00  0.00    -0.274 OA
ATOM      7  N   LIG    1        2.996   3.684  -1.392  0.00  0.00    -0.291 N 
ATOM      8  C   LIG    1        1.883   3.154  -2.245  0.00  0.00    +0.124 C 
ATOM      9  C   LIG    1        0.995   4.261  -2.841  0.00  0.00    -0.022 A 
ATOM     10  C   LIG    1        1.195   5.618  -2.514  0.00  0.00    -0.041 A 
ATOM     11  C   LIG    1        2.277   5.980  -1.513  0.00  0.00    +0.054 C 
ATOM     12  C   LIG    1        0.400   6.600  -3.115  0.00  0.00    +0.004 A 
ATOM     13  C   LIG    1       -0.595   6.258  -4.027  0.00  0.00    +0.000 A 
ATOM     14  C   LIG    1       -0.801   4.922  -4.351  0.00  0.00    +0.000 A 
ATOM     15  C   LIG    1       -0.009   3.938  -3.765  0.00  0.00    +0.006 A 
ATOM     16  C   LIG    1        3.487   5.045  -1.673  0.00  0.00    +0.113 C 
ATOM     17  C   LIG    1        1.039   2.092  -1.471  0.00  0.00    +0.135 C 
ENDROOT
BRANCH   1  21
ATOM     18  C   LIG    1       -2.617  -1.847   0.209  0.00  0.00    +0.000 C 
ATOM     19  C   LIG    1       -2.165  -1.307  -1.165  0.00  0.00    +0.001 C 
ATOM     20  C   LIG    1       -0.635  -1.108  -1.239  0.00  0.00    +0.013 C 
ATOM     21  C   LIG    1       -0.173  -0.192  -0.078  0.00  0.00    +0.075 C 
ATOM     22  C   LIG    1       -0.545  -0.813   1.296  0.00  0.00    +0.013 C 
ATOM     23  C   LIG    1       -2.075  -0.998   1.379  0.00  0.00    +0.001 C 
ENDBRANCH   1  21
TORSDOF 1
