REMARK  Name = DB11570
REMARK                            x       y       z     vdW  Elec       q    Type
REMARK                         _______ _______ _______ _____ _____    ______ ____
ROOT
ATOM      1  C   LIG    1       -2.009   1.396  -0.078  0.00  0.00    +0.339 C 
ATOM      2  O   LIG    1       -2.835   0.478  -0.083  0.00  0.00    -0.245 OA
ENDROOT
BRANCH   1   6
ATOM      3  C   LIG    1       -3.158   5.549  -0.009  0.00  0.00    +0.029 A 
ATOM      4  C   LIG    1       -4.127   4.539  -0.013  0.00  0.00    +0.024 A 
ATOM      5  C   LIG    1       -3.744   3.201  -0.036  0.00  0.00    +0.017 A 
ATOM      6  C   LIG    1       -2.388   2.848  -0.055  0.00  0.00    +0.059 A 
ATOM      7  C   LIG    1       -1.422   3.867  -0.051  0.00  0.00    +0.017 A 
ATOM      8  C   LIG    1       -1.806   5.205  -0.029  0.00  0.00    +0.024 A 
BRANCH   3   9
ATOM      9  N   LIG    1       -3.503   6.914   0.014  0.00  0.00    -0.336 N 
ATOM     10  C   LIG    1       -4.198   7.304   1.237  0.00  0.00    +0.129 C 
ATOM     11  C   LIG    1       -4.182   7.344  -1.205  0.00  0.00    +0.129 C 
ENDBRANCH   3   9
ENDBRANCH   1   6
BRANCH   1  12
ATOM     12  O   LIG    1       -0.669   1.195  -0.088  0.00  0.00    -0.461 OA
BRANCH  12  13
ATOM     13  C   LIG    1       -0.119  -0.118  -0.094  0.00  0.00    +0.236 C 
BRANCH  13  14
ATOM     14  C   LIG    1        1.427  -0.072  -0.040  0.00  0.00    +0.026 C 
BRANCH  14  15
ATOM     15  C   LIG    1        2.050   0.579  -1.301  0.00  0.00    +0.003 C 
ATOM     16  C   LIG    1        1.713  -0.130  -2.624  0.00  0.00    +0.004 C 
ENDBRANCH  14  15
BRANCH  14  17
ATOM     17  C   LIG    1        1.962   0.612   1.246  0.00  0.00    +0.007 C 
BRANCH  17  18
ATOM     18  C   LIG    1        1.515  -0.047   2.566  0.00  0.00    +0.000 C 
BRANCH  18  19
ATOM     19  C   LIG    1        2.123   0.628   3.807  0.00  0.00    -0.003 C 
ATOM     20  C   LIG    1        1.666  -0.016   5.123  0.00  0.00    +0.004 C 
ENDBRANCH  18  19
ENDBRANCH  17  18
ENDBRANCH  14  17
ENDBRANCH  13  14
ENDBRANCH  12  13
ENDBRANCH   1  12
TORSDOF 9
