REMARK  Name = DB11362
REMARK                            x       y       z     vdW  Elec       q    Type
REMARK                         _______ _______ _______ _____ _____    ______ ____
ROOT
ATOM      1  C   LIG    1        1.815   4.463   0.700  0.00  0.00    +0.099 A 
ATOM      2  N   LIG    1        0.969   3.582   0.100  0.00  0.00    -0.228 NA
ATOM      3  C   LIG    1        0.740   2.361   0.659  0.00  0.00    +0.140 A 
ATOM      4  C   LIG    1        1.382   2.052   1.873  0.00  0.00    +0.155 A 
ATOM      5  N   LIG    1        2.238   2.908   2.483  0.00  0.00    -0.249 NA
ATOM      6  C   LIG    1        2.475   4.111   1.895  0.00  0.00    +0.097 A 
ENDROOT
BRANCH   1   7
ATOM      7  C   LIG    1        1.946   5.778   0.008  0.00  0.00    +0.003 A 
ATOM      8  C   LIG    1        1.808   6.975   0.722  0.00  0.00    +0.010 A 
ATOM      9  C   LIG    1        1.928   8.203   0.078  0.00  0.00    +0.001 A 
ATOM     10  C   LIG    1        2.184   8.242  -1.290  0.00  0.00    +0.000 A 
ATOM     11  C   LIG    1        2.318   7.063  -2.017  0.00  0.00    +0.001 A 
ATOM     12  C   LIG    1        2.198   5.836  -1.370  0.00  0.00    +0.010 A 
ENDBRANCH   1   7
BRANCH   6  13
ATOM     13  C   LIG    1        3.484   4.962   2.589  0.00  0.00    +0.002 A 
ATOM     14  C   LIG    1        4.561   5.507   1.879  0.00  0.00    +0.010 A 
ATOM     15  C   LIG    1        5.506   6.301   2.523  0.00  0.00    +0.001 A 
ATOM     16  C   LIG    1        5.380   6.551   3.887  0.00  0.00    +0.000 A 
ATOM     17  C   LIG    1        4.319   6.013   4.610  0.00  0.00    +0.001 A 
ATOM     18  C   LIG    1        3.376   5.219   3.962  0.00  0.00    +0.010 A 
ENDBRANCH   6  13
BRANCH   3  19
ATOM     19  N   LIG    1       -0.127   1.440  -0.007  0.00  0.00    -0.311 N 
BRANCH  19  20
ATOM     20  C   LIG    1       -0.677   1.697  -1.354  0.00  0.00    +0.069 C 
ATOM     21  C   LIG    1       -1.638   2.903  -1.425  0.00  0.00    +0.028 C 
ATOM     22  C   LIG    1        0.401   1.743  -2.458  0.00  0.00    +0.028 C 
ENDBRANCH  19  20
BRANCH  19  23
ATOM     23  C   LIG    1       -0.193   0.045   0.453  0.00  0.00    +0.107 C 
BRANCH  23  24
ATOM     24  C   LIG    1        1.081  -0.778   0.164  0.00  0.00    +0.021 C 
BRANCH  24  25
ATOM     25  C   LIG    1        1.277  -1.978   1.113  0.00  0.00    +0.030 C 
BRANCH  25  26
ATOM     26  C   LIG    1        2.734  -2.462   1.175  0.00  0.00    +0.160 C 
BRANCH  26  27
ATOM     27  O   LIG    1        3.522  -1.405   1.705  0.00  0.00    -0.371 OA
BRANCH  27  28
ATOM     28  C   LIG    1        4.916  -1.668   1.768  0.00  0.00    +0.257 C 
BRANCH  28  29
ATOM     29  C   LIG    1        5.640  -0.381   2.182  0.00  0.00    +0.257 C 
ATOM     30  O   LIG    1        5.068   0.707   2.266  0.00  0.00    -0.272 OA
ATOM     31  N   LIG    1        7.013  -0.562   2.457  0.00  0.00    -0.188 N 
ATOM     32  H   LIG    1        7.426  -1.493   2.363  0.00  0.00    +0.176 HD
BRANCH  31  33
ATOM     33  S   LIG    1        8.138   0.718   2.902  0.00  0.00    +0.042 S 
ATOM     34  O   LIG    1        7.928   1.848   1.990  0.00  0.00    -0.155 OA
ATOM     35  O   LIG    1        9.464   0.104   3.026  0.00  0.00    -0.155 OA
ATOM     36  C   LIG    1        7.563   1.232   4.625  0.00  0.00    +0.218 C 
ENDBRANCH  31  33
ENDBRANCH  28  29
ENDBRANCH  27  28
ENDBRANCH  26  27
ENDBRANCH  25  26
ENDBRANCH  24  25
ENDBRANCH  23  24
ENDBRANCH  19  23
ENDBRANCH   3  19
TORSDOF 12
