REMARK  Name = DB11091
REMARK                            x       y       z     vdW  Elec       q    Type
REMARK                         _______ _______ _______ _____ _____    ______ ____
ROOT
ATOM      1  O   LIG    1       -0.091  -0.068   0.000  0.00  0.00    -0.253 OA
ATOM      2  H   LIG    1       -0.322   0.864   0.000  0.00  0.00    +0.253 HD
ENDROOT
BRANCH   1   3
ATOM      3  O   LIG    1        1.351   0.068   0.000  0.00  0.00    -0.253 OA
ATOM      4  H   LIG    1        1.582  -0.864   0.000  0.00  0.00    +0.253 HD
ENDBRANCH   1   3
TORSDOF 1
