REMARK  Name = DB11737
REMARK                            x       y       z     vdW  Elec       q    Type
REMARK                         _______ _______ _______ _____ _____    ______ ____
ROOT
ATOM      1  C   LIG    1        1.771   1.834  -0.540  0.00  0.00    +0.134 A 
ATOM      2  N   LIG    1        1.343   2.086  -1.804  0.00  0.00    -0.220 NA
ATOM      3  C   LIG    1        2.179   2.789  -2.603  0.00  0.00    +0.223 A 
ATOM      4  N   LIG    1        3.403   3.267  -2.276  0.00  0.00    -0.235 NA
ATOM      5  C   LIG    1        3.841   3.012  -1.010  0.00  0.00    +0.080 A 
ATOM      6  C   LIG    1        5.116   3.489  -0.623  0.00  0.00    +0.078 A 
ATOM      7  C   LIG    1        5.608   3.246   0.668  0.00  0.00    +0.164 A 
ATOM      8  O   LIG    1        6.845   3.665   1.118  0.00  0.00    -0.486 OA
ATOM      9  C   LIG    1        7.748   4.345   0.249  0.00  0.00    +0.257 C 
ATOM     10  C   LIG    1        9.142   4.271   0.886  0.00  0.00    +0.201 C 
ATOM     11  O   LIG    1        9.555   2.908   0.891  0.00  0.00    -0.374 OA
ATOM     12  C   LIG    1       10.190   2.430   2.073  0.00  0.00    +0.188 C 
ATOM     13  C   LIG    1        9.203   2.246   3.242  0.00  0.00    +0.188 C 
ATOM     14  O   LIG    1        8.060   1.539   2.781  0.00  0.00    -0.374 OA
ATOM     15  C   LIG    1        7.147   1.143   3.797  0.00  0.00    +0.201 C 
ATOM     16  C   LIG    1        5.747   1.032   3.176  0.00  0.00    +0.257 C 
ATOM     17  O   LIG    1        5.293   2.346   2.859  0.00  0.00    -0.486 OA
ATOM     18  C   LIG    1        4.824   2.535   1.582  0.00  0.00    +0.163 A 
ATOM     19  C   LIG    1        3.563   2.056   1.230  0.00  0.00    +0.062 A 
ATOM     20  C   LIG    1        3.047   2.281  -0.074  0.00  0.00    +0.044 A 
ENDROOT
BRANCH   1  21
ATOM     21  N   LIG    1        0.935   1.090   0.315  0.00  0.00    -0.299 N 
ATOM     22  H   LIG    1        1.393   0.804   1.167  0.00  0.00    +0.154 HD
BRANCH  21  25
ATOM     23  C   LIG    1       -2.611   0.557  -0.755  0.00  0.00    +0.026 A 
ATOM     24  C   LIG    1       -1.329   1.114  -0.681  0.00  0.00    +0.040 A 
ATOM     25  C   LIG    1       -0.364   0.569   0.179  0.00  0.00    +0.034 A 
ATOM     26  C   LIG    1       -0.710  -0.526   0.978  0.00  0.00    +0.023 A 
ATOM     27  C   LIG    1       -1.985  -1.085   0.905  0.00  0.00    +0.003 A 
ATOM     28  C   LIG    1       -2.934  -0.547   0.038  0.00  0.00    +0.017 A 
BRANCH  23  30
ATOM     29  C   LIG    1       -4.444   1.619  -2.391  0.00  0.00    +0.009 C 
ATOM     30  C   LIG    1       -3.607   1.130  -1.649  0.00  0.00    -0.070 C 
ENDBRANCH  23  30
ENDBRANCH  21  25
ENDBRANCH   1  21
TORSDOF 3
