REMARK  Name = DB11809
REMARK                            x       y       z     vdW  Elec       q    Type
REMARK                         _______ _______ _______ _____ _____    ______ ____
ROOT
ATOM      1  C   LIG    1       -2.459   5.128   0.044  0.00  0.00    +0.019 C 
ATOM      2  C   LIG    1       -3.286   5.311   1.342  0.00  0.00    +0.013 C 
ATOM      3  C   LIG    1       -4.044   6.655   1.362  0.00  0.00    +0.068 C 
ATOM      4  C   LIG    1       -4.894   6.872   0.089  0.00  0.00    +0.206 C 
ATOM      5  O   LIG    1       -5.426   8.191   0.125  0.00  0.00    -0.311 OA
ATOM      6  C   LIG    1       -6.846   8.113   0.218  0.00  0.00    +0.211 C 
ATOM      7  C   LIG    1       -7.360   9.162   1.250  0.00  0.00    +0.052 C 
ATOM      8  C   LIG    1       -6.985  10.578   0.730  0.00  0.00    +0.012 C 
ATOM      9  C   LIG    1       -7.607  10.864  -0.666  0.00  0.00    -0.010 C 
ATOM     10  C   LIG    1       -9.149  10.730  -0.542  0.00  0.00    +0.007 C 
ATOM     11  C   LIG    1       -9.577   9.321  -0.049  0.00  0.00    -0.010 C 
ATOM     12  C   LIG    1       -9.032   8.271  -1.056  0.00  0.00    +0.012 C 
ATOM     13  C   LIG    1       -7.107   9.779  -1.660  0.00  0.00    +0.012 C 
ATOM     14  C   LIG    1       -8.910   9.070   1.332  0.00  0.00    +0.012 C 
ATOM     15  C   LIG    1       -7.485   8.347  -1.190  0.00  0.00    +0.052 C 
ATOM     16  O   LIG    1       -7.082   6.797   0.684  0.00  0.00    -0.196 OA
ATOM     17  O   LIG    1       -6.017   6.009   0.092  0.00  0.00    -0.197 OA
ATOM     18  C   LIG    1       -4.076   6.679  -1.207  0.00  0.00    +0.068 C 
ATOM     19  C   LIG    1       -3.319   5.334  -1.230  0.00  0.00    +0.013 C 
ENDROOT
BRANCH   1  25
ATOM     20  C   LIG    1       -0.314   3.770   0.081  0.00  0.00    +0.007 A 
ATOM     21  C   LIG    1        0.370   2.557   0.073  0.00  0.00    +0.046 A 
ATOM     22  C   LIG    1       -0.338   1.347   0.011  0.00  0.00    +0.121 A 
ATOM     23  C   LIG    1       -1.732   1.375  -0.035  0.00  0.00    +0.046 A 
ATOM     24  C   LIG    1       -2.417   2.586  -0.024  0.00  0.00    +0.007 A 
ATOM     25  C   LIG    1       -1.711   3.792   0.030  0.00  0.00    -0.044 A 
BRANCH  22  26
ATOM     26  O   LIG    1        0.252   0.098  -0.007  0.00  0.00    -0.491 OA
BRANCH  26  27
ATOM     27  C   LIG    1        1.675  -0.008   0.009  0.00  0.00    +0.244 C 
BRANCH  27  28
ATOM     28  C   LIG    1        2.090  -1.489  -0.110  0.00  0.00    +0.125 C 
BRANCH  28  29
ATOM     29  N   LIG    1        1.553  -2.162  -1.299  0.00  0.00    -0.295 NA
ATOM     30  C   LIG    1        2.047  -1.596  -2.563  0.00  0.00    +0.112 C 
ATOM     31  C   LIG    1        1.527  -2.388  -3.782  0.00  0.00    +0.175 C 
ATOM     32  O   LIG    1        1.838  -3.770  -3.642  0.00  0.00    -0.377 OA
ATOM     33  C   LIG    1        1.257  -4.338  -2.474  0.00  0.00    +0.175 C 
ATOM     34  C   LIG    1        1.781  -3.611  -1.218  0.00  0.00    +0.112 C 
ENDBRANCH  28  29
ENDBRANCH  27  28
ENDBRANCH  26  27
ENDBRANCH  22  26
ENDBRANCH   1  25
TORSDOF 5
