REMARK  Name = DB11880
REMARK                            x       y       z     vdW  Elec       q    Type
REMARK                         _______ _______ _______ _____ _____    ______ ____
ROOT
ATOM      1  C   LIG    1        5.318  -1.362  -0.796  0.00  0.00    +0.063 A 
ATOM      2  C   LIG    1        6.089  -2.570  -0.631  0.00  0.00    +0.084 A 
ATOM      3  N   LIG    1        5.479  -3.771  -0.398  0.00  0.00    -0.246 NA
ATOM      4  C   LIG    1        6.191  -4.919  -0.247  0.00  0.00    +0.072 A 
ATOM      5  C   LIG    1        7.612  -4.927  -0.325  0.00  0.00    +0.001 A 
ATOM      6  C   LIG    1        8.251  -3.695  -0.569  0.00  0.00    +0.020 A 
ATOM      7  C   LIG    1        8.312  -6.146  -0.160  0.00  0.00    +0.010 A 
ATOM      8  C   LIG    1        7.609  -7.326   0.077  0.00  0.00    +0.001 A 
ATOM      9  C   LIG    1        6.218  -7.319   0.152  0.00  0.00    +0.002 A 
ATOM     10  C   LIG    1        5.504  -6.133  -0.006  0.00  0.00    +0.028 A 
ATOM     11  C   LIG    1        7.514  -2.501  -0.731  0.00  0.00    +0.002 A 
ATOM     12  C   LIG    1        8.143  -1.264  -0.993  0.00  0.00    +0.010 A 
ATOM     13  C   LIG    1        7.380  -0.116  -1.163  0.00  0.00    +0.001 A 
ATOM     14  C   LIG    1        5.995  -0.167  -1.072  0.00  0.00    +0.015 A 
ENDROOT
BRANCH   1  17
ATOM     15  N   LIG    1        3.253  -1.990   0.315  0.00  0.00    -0.313 N 
ATOM     16  H   LIG    1        3.863  -2.531   0.912  0.00  0.00    +0.149 HD
ATOM     17  C   LIG    1        3.808  -1.318  -0.711  0.00  0.00    +0.246 C 
ATOM     18  O   LIG    1        3.154  -0.659  -1.522  0.00  0.00    -0.270 OA
BRANCH  15  19
ATOM     19  C   LIG    1        1.821  -2.071   0.606  0.00  0.00    +0.086 C 
BRANCH  19  20
ATOM     20  C   LIG    1        1.221  -0.769   1.193  0.00  0.00    -0.061 C 
BRANCH  20  22
ATOM     21  C   LIG    1       -0.711  -0.395  -0.477  0.00  0.00    -0.097 C 
ATOM     22  N   LIG    1        0.621   0.137   0.091  0.00  0.00    +0.377 N 
ATOM     23  H   LIG    1        1.291   0.157  -0.667  0.00  0.00    -0.083 HD
ATOM     24  C   LIG    1        0.460   1.592   0.576  0.00  0.00    -0.097 C 
ENDBRANCH  20  22
ENDBRANCH  19  20
ENDBRANCH  15  19
ENDBRANCH   1  17
TORSDOF 4
