REMARK  Name = DB11922
REMARK                            x       y       z     vdW  Elec       q    Type
REMARK                         _______ _______ _______ _____ _____    ______ ____
ROOT
ATOM      1  C   LIG    1        1.706   0.268   0.189  0.00  0.00    +0.079 A 
ATOM      2  C   LIG    1        2.453  -0.902  -0.140  0.00  0.00    +0.164 A 
ATOM      3  C   LIG    1        3.867  -0.925   0.039  0.00  0.00    +0.150 A 
ATOM      4  C   LIG    1        4.504   0.249   0.499  0.00  0.00    +0.069 A 
ATOM      5 CL   LIG    1        6.221   0.411   0.664  0.00  0.00    -0.081 Cl
ATOM      6  C   LIG    1        3.762   1.374   0.832  0.00  0.00    +0.024 A 
ATOM      7  C   LIG    1        2.386   1.383   0.695  0.00  0.00    +0.028 A 
ENDROOT
BRANCH   1  11
ATOM      8  N   LIG    1       -1.823   0.932  -0.130  0.00  0.00    -0.269 N 
ATOM      9  H   LIG    1       -1.970  -0.066  -0.167  0.00  0.00    +0.156 HD
ATOM     10  C   LIG    1       -0.541   1.351  -0.112  0.00  0.00    +0.308 C 
ATOM     11  N   LIG    1        0.286   0.297   0.050  0.00  0.00    -0.266 N 
ATOM     12  H   LIG    1       -0.136  -0.617  -0.030  0.00  0.00    +0.156 HD
ATOM     13  O   LIG    1       -0.180   2.521  -0.243  0.00  0.00    -0.252 OA
BRANCH   8  21
ATOM     14  C   LIG    1       -4.151  -0.370  -1.193  0.00  0.00    +0.048 C 
ATOM     15  C   LIG    1       -4.167   1.085  -0.726  0.00  0.00    +0.006 A 
ATOM     16  C   LIG    1       -5.359   1.821  -0.813  0.00  0.00    +0.128 A 
ATOM     17  F   LIG    1       -6.487   1.254  -1.300  0.00  0.00    -0.205 F 
ATOM     18  C   LIG    1       -5.400   3.149  -0.395  0.00  0.00    +0.039 A 
ATOM     19  C   LIG    1       -4.258   3.757   0.118  0.00  0.00    +0.005 A 
ATOM     20  C   LIG    1       -3.069   3.039   0.209  0.00  0.00    +0.024 A 
ATOM     21  C   LIG    1       -3.004   1.701  -0.220  0.00  0.00    +0.040 A 
ENDBRANCH   8  21
ENDBRANCH   1  11
BRANCH   3  22
ATOM     22  S   LIG    1        4.924  -2.387  -0.342  0.00  0.00    +0.003 S 
ATOM     23  O   LIG    1        4.100  -3.580  -0.569  0.00  0.00    -0.169 OA
ATOM     24  O   LIG    1        5.972  -2.463   0.683  0.00  0.00    -0.169 OA
BRANCH  22  25
ATOM     25  C   LIG    1        5.733  -1.929  -1.999  0.00  0.00    +0.119 C 
ATOM     26  C   LIG    1        4.637  -1.695  -3.063  0.00  0.00    -0.056 C 
ATOM     27  N   LIG    1        5.287  -1.439  -4.436  0.00  0.00    +0.380 N 
ATOM     28  H   LIG    1        4.564  -1.325  -5.132  0.00  0.00    -0.086 HD
ATOM     29  H   LIG    1        5.804  -0.572  -4.399  0.00  0.00    -0.086 HD
ATOM     30  C   LIG    1        6.237  -2.575  -4.861  0.00  0.00    -0.082 C 
ATOM     31  C   LIG    1        7.330  -2.763  -3.791  0.00  0.00    -0.017 C 
ATOM     32  C   LIG    1        6.745  -3.025  -2.391  0.00  0.00    +0.023 C 
ENDBRANCH  22  25
ENDBRANCH   3  22
BRANCH   2  33
ATOM     33  O   LIG    1        1.841  -1.917  -0.627  0.00  0.00    -0.503 OA
ATOM     34  H   LIG    1        0.911  -1.894  -0.741  0.00  0.00    +0.292 HD
ENDBRANCH   2  33
TORSDOF 5
