REMARK  Name = DB11675
REMARK                            x       y       z     vdW  Elec       q    Type
REMARK                         _______ _______ _______ _____ _____    ______ ____
ROOT
ATOM      1  C   LIG    1        1.401  -0.249  -0.358  0.00  0.00    +0.248 C 
ATOM      2  N   LIG    1        1.870  -1.470  -0.035  0.00  0.00    -0.309 N 
ATOM      3  H   LIG    1        1.207  -2.198   0.191  0.00  0.00    +0.149 HD
ATOM      4  O   LIG    1        2.144   0.691  -0.651  0.00  0.00    -0.270 OA
ENDROOT
BRANCH   1   6
ATOM      5  C   LIG    1       -0.704   1.167  -0.032  0.00  0.00    +0.134 A 
ATOM      6  C   LIG    1       -0.108  -0.081  -0.324  0.00  0.00    +0.080 A 
ATOM      7  C   LIG    1       -0.936  -1.182  -0.602  0.00  0.00    +0.038 A 
ATOM      8  C   LIG    1       -2.325  -1.068  -0.592  0.00  0.00    +0.062 A 
ATOM      9 CL   LIG    1       -3.276  -2.472  -0.945  0.00  0.00    -0.082 Cl
ATOM     10  C   LIG    1       -2.915   0.165  -0.302  0.00  0.00    +0.047 A 
ATOM     11  C   LIG    1       -2.107   1.267  -0.026  0.00  0.00    +0.070 A 
BRANCH  10  12
ATOM     12  N   LIG    1       -4.302   0.321  -0.280  0.00  0.00    -0.357 N 
ATOM     13  H   LIG    1       -4.683   1.181   0.086  0.00  0.00    +0.142 HD
ATOM     14  H   LIG    1       -4.874  -0.511  -0.322  0.00  0.00    +0.142 HD
ENDBRANCH  10  12
BRANCH   5  15
ATOM     15  O   LIG    1        0.117   2.247   0.258  0.00  0.00    -0.491 OA
BRANCH  15  17
ATOM     16  C   LIG    1        0.698   4.524   0.746  0.00  0.00    +0.048 C 
ATOM     17  C   LIG    1       -0.444   3.528   0.527  0.00  0.00    +0.226 C 
ENDBRANCH  15  17
ENDBRANCH   5  15
ENDBRANCH   1   6
BRANCH   2  18
ATOM     18  C   LIG    1        3.284  -1.837   0.044  0.00  0.00    +0.137 C 
BRANCH  18  19
ATOM     19  C   LIG    1        3.963  -1.382   1.352  0.00  0.00    +0.149 C 
ATOM     20  O   LIG    1        3.421  -2.131   2.438  0.00  0.00    -0.372 OA
ATOM     21  C   LIG    1        3.922  -1.694   3.698  0.00  0.00    +0.175 C 
ATOM     22  C   LIG    1        5.460  -1.834   3.736  0.00  0.00    +0.113 C 
ATOM     23  N   LIG    1        6.092  -1.182   2.577  0.00  0.00    -0.293 NA
ATOM     24  C   LIG    1        5.488  -1.643   1.320  0.00  0.00    +0.118 C 
BRANCH  23  25
ATOM     25  C   LIG    1        7.546  -1.372   2.561  0.00  0.00    +0.119 C 
BRANCH  25  26
ATOM     26  C   LIG    1        8.250  -0.597   3.669  0.00  0.00    -0.033 A 
ATOM     27  C   LIG    1        8.244   0.801   3.658  0.00  0.00    +0.008 A 
ATOM     28  C   LIG    1        8.886   1.508   4.671  0.00  0.00    +0.038 A 
ATOM     29  C   LIG    1        9.537   0.815   5.690  0.00  0.00    +0.123 A 
ATOM     30  F   LIG    1       10.161   1.502   6.675  0.00  0.00    -0.205 F 
ATOM     31  C   LIG    1        9.551  -0.578   5.704  0.00  0.00    +0.038 A 
ATOM     32  C   LIG    1        8.907  -1.286   4.692  0.00  0.00    +0.008 A 
ENDBRANCH  25  26
ENDBRANCH  23  25
ENDBRANCH  18  19
ENDBRANCH   2  18
TORSDOF 8
