REMARK  Name = DB11710
REMARK                            x       y       z     vdW  Elec       q    Type
REMARK                         _______ _______ _______ _____ _____    ______ ____
ROOT
ATOM      1  C   LIG    1        0.007  -0.029   0.046  0.00  0.00    +0.083 C 
ATOM      2  C   LIG    1       -0.691   1.188  -0.003  0.00  0.00    +0.016 C 
ATOM      3  C   LIG    1       -2.086   1.197  -0.044  0.00  0.00    +0.017 C 
ATOM      4  C   LIG    1       -2.781  -0.013  -0.036  0.00  0.00    +0.078 C 
ATOM      5  N   LIG    1       -2.098  -1.182   0.013  0.00  0.00    -0.295 NA
ATOM      6  C   LIG    1       -2.834  -2.461   0.017  0.00  0.00    +0.105 C 
ATOM      7  C   LIG    1       -0.744  -1.219   0.050  0.00  0.00    +0.091 C 
ENDROOT
BRANCH   1   8
ATOM      8  C   LIG    1        1.519  -0.037   0.080  0.00  0.00    +0.220 C 
ATOM      9  O   LIG    1        2.169   0.984  -0.138  0.00  0.00    -0.275 OA
ATOM     10  N   LIG    1        2.123  -1.195   0.372  0.00  0.00    -0.329 N 
ATOM     11  H   LIG    1        3.131  -1.241   0.408  0.00  0.00    +0.145 HD
ATOM     12  H   LIG    1        1.583  -2.026   0.564  0.00  0.00    +0.145 HD
ENDBRANCH   1   8
TORSDOF 1
