REMARK  Name = DB11963
REMARK                            x       y       z     vdW  Elec       q    Type
REMARK                         _______ _______ _______ _____ _____    ______ ____
ROOT
ATOM      1  C   LIG    1        4.645   2.149  -0.565  0.00  0.00    +0.134 A 
ATOM      2  C   LIG    1        3.705   1.117  -0.255  0.00  0.00    +0.042 A 
ATOM      3  C   LIG    1        4.254  -0.138   0.145  0.00  0.00    +0.080 A 
ATOM      4  C   LIG    1        3.388  -1.208   0.462  0.00  0.00    +0.076 A 
ATOM      5  C   LIG    1        1.994  -1.057   0.392  0.00  0.00    +0.143 A 
ATOM      6  C   LIG    1        1.454   0.182   0.014  0.00  0.00    +0.077 A 
ATOM      7  N   LIG    1        5.600  -0.338   0.224  0.00  0.00    -0.235 NA
ATOM      8  C   LIG    1        6.391   0.712  -0.099  0.00  0.00    +0.223 A 
ATOM      9  C   LIG    1        2.295   1.253  -0.321  0.00  0.00    +0.040 A 
ATOM     10  N   LIG    1        5.985   1.941  -0.492  0.00  0.00    -0.220 NA
ENDROOT
BRANCH   6  11
ATOM     11  N   LIG    1        0.052   0.293  -0.073  0.00  0.00    -0.279 N 
ATOM     12  H   LIG    1       -0.433  -0.566  -0.286  0.00  0.00    +0.155 HD
ATOM     13  C   LIG    1       -0.709   1.370   0.220  0.00  0.00    +0.241 C 
ATOM     14  O   LIG    1       -0.269   2.445   0.636  0.00  0.00    -0.271 OA
BRANCH  13  15
ATOM     15  C   LIG    1       -2.115   1.131  -0.017  0.00  0.00    +0.064 C 
ATOM     16  C   LIG    1       -3.055   2.081   0.158  0.00  0.00    -0.007 C 
BRANCH  16  17
ATOM     17  C   LIG    1       -4.537   1.864  -0.084  0.00  0.00    +0.112 C 
BRANCH  17  18
ATOM     18  N   LIG    1       -5.395   2.180   1.059  0.00  0.00    -0.299 NA
ATOM     19  C   LIG    1       -5.257   1.182   2.131  0.00  0.00    +0.085 C 
ATOM     20  C   LIG    1       -6.139   1.516   3.352  0.00  0.00    +0.015 C 
ATOM     21  C   LIG    1       -7.610   1.723   2.964  0.00  0.00    +0.002 C 
ATOM     22  C   LIG    1       -7.712   2.739   1.817  0.00  0.00    +0.015 C 
ATOM     23  C   LIG    1       -6.791   2.371   0.634  0.00  0.00    +0.085 C 
ENDBRANCH  17  18
ENDBRANCH  16  17
ENDBRANCH  13  15
ENDBRANCH   6  11
BRANCH   1  24
ATOM     24  N   LIG    1        4.187   3.415  -0.982  0.00  0.00    -0.299 N 
ATOM     25  H   LIG    1        3.187   3.453  -1.117  0.00  0.00    +0.154 HD
BRANCH  24  31
ATOM     26 CL   LIG    1        8.197   6.624  -0.331  0.00  0.00    -0.081 Cl
ATOM     27  C   LIG    1        6.660   6.220  -1.009  0.00  0.00    +0.078 A 
ATOM     28  C   LIG    1        5.996   7.119  -1.847  0.00  0.00    +0.142 A 
ATOM     29  C   LIG    1        4.752   6.783  -2.378  0.00  0.00    +0.041 A 
ATOM     30  C   LIG    1        4.174   5.549  -2.079  0.00  0.00    +0.026 A 
ATOM     31  C   LIG    1        4.835   4.633  -1.254  0.00  0.00    +0.034 A 
ATOM     32  F   LIG    1        6.547   8.319  -2.143  0.00  0.00    -0.204 F 
ATOM     33  C   LIG    1        6.079   4.986  -0.711  0.00  0.00    +0.046 A 
ENDBRANCH  24  31
ENDBRANCH   1  24
BRANCH   5  34
ATOM     34  O   LIG    1        1.107  -2.083   0.685  0.00  0.00    -0.493 OA
ATOM     35  C   LIG    1        1.607  -3.359   1.070  0.00  0.00    +0.277 C 
ENDBRANCH   5  34
TORSDOF 7
