REMARK  Name = DB11654
REMARK                            x       y       z     vdW  Elec       q    Type
REMARK                         _______ _______ _______ _____ _____    ______ ____
ROOT
ATOM      1  N   LIG    1        1.107   0.083   0.197  0.00  0.00    -0.200 N 
ATOM      2  C   LIG    1        1.591  -0.312  -1.036  0.00  0.00    +0.321 C 
ATOM      3  O   LIG    1        0.907  -0.274  -2.067  0.00  0.00    -0.251 OA
ATOM      4  N   LIG    1        2.896  -0.765  -1.025  0.00  0.00    -0.200 N 
ATOM      5  C   LIG    1        3.829  -0.646  -0.021  0.00  0.00    +0.249 C 
ATOM      6  O   LIG    1        4.959  -1.149  -0.047  0.00  0.00    -0.273 OA
ATOM      7  C   LIG    1        3.352   0.303   1.142  0.00  0.00    +0.174 C 
ATOM      8  C   LIG    1        1.800   0.204   1.376  0.00  0.00    +0.249 C 
ATOM      9  O   LIG    1        1.283   0.320   2.494  0.00  0.00    -0.273 OA
ENDROOT
BRANCH   7  10
ATOM     10  C   LIG    1        4.100  -0.204   2.421  0.00  0.00    -0.019 A 
ATOM     11  C   LIG    1        3.747  -1.423   3.033  0.00  0.00    +0.005 A 
ATOM     12  C   LIG    1        4.439  -1.896   4.143  0.00  0.00    +0.000 A 
ATOM     13  C   LIG    1        5.509  -1.166   4.650  0.00  0.00    +0.000 A 
ATOM     14  C   LIG    1        5.895   0.027   4.050  0.00  0.00    +0.000 A 
ATOM     15  C   LIG    1        5.201   0.500   2.939  0.00  0.00    +0.005 A 
ENDBRANCH   7  10
BRANCH   7  16
ATOM     16  C   LIG    1        3.636   1.814   0.792  0.00  0.00    -0.019 A 
ATOM     17  C   LIG    1        3.248   2.811   1.708  0.00  0.00    +0.005 A 
ATOM     18  C   LIG    1        3.469   4.161   1.450  0.00  0.00    +0.000 A 
ATOM     19  C   LIG    1        4.094   4.542   0.268  0.00  0.00    +0.000 A 
ATOM     20  C   LIG    1        4.503   3.583  -0.651  0.00  0.00    +0.000 A 
ATOM     21  C   LIG    1        4.281   2.234  -0.391  0.00  0.00    +0.005 A 
ENDBRANCH   7  16
BRANCH   1  22
ATOM     22  C   LIG    1       -0.330   0.387   0.284  0.00  0.00    +0.279 C 
BRANCH  22  24
ATOM     23  C   LIG    1       -0.174   2.599  -0.646  0.00  0.00    +0.196 C 
ATOM     24  O   LIG    1       -0.547   1.763   0.446  0.00  0.00    -0.364 OA
ENDBRANCH  22  24
ENDBRANCH   1  22
BRANCH   4  25
ATOM     25  C   LIG    1        3.370  -1.400  -2.258  0.00  0.00    +0.279 C 
BRANCH  25  26
ATOM     26  O   LIG    1        3.940  -0.411  -3.062  0.00  0.00    -0.364 OA
ATOM     27  C   LIG    1        4.551  -0.907  -4.243  0.00  0.00    +0.196 C 
ENDBRANCH  25  26
ENDBRANCH   4  25
TORSDOF 6
