REMARK  Name = DB11798
REMARK                            x       y       z     vdW  Elec       q    Type
REMARK                         _______ _______ _______ _____ _____    ______ ____
ROOT
ATOM      1  C   LIG    1       -0.133   0.137   0.290  0.00  0.00    +0.217 A 
ATOM      2  N   LIG    1       -0.674  -1.113   0.331  0.00  0.00    -0.195 NA
ATOM      3  C   LIG    1       -1.948  -1.174  -0.077  0.00  0.00    +0.167 A 
ATOM      4  N   LIG    1       -2.805  -2.262  -0.167  0.00  0.00    -0.291 N 
ATOM      5  C   LIG    1       -4.004  -1.740  -0.650  0.00  0.00    +0.203 A 
ATOM      6  N   LIG    1       -3.970  -0.442  -0.865  0.00  0.00    -0.211 NA
ATOM      7  C   LIG    1       -2.705  -0.069  -0.518  0.00  0.00    +0.128 A 
ATOM      8  C   LIG    1       -2.057   1.173  -0.524  0.00  0.00    +0.146 A 
ATOM      9  N   LIG    1       -0.764   1.277  -0.118  0.00  0.00    -0.221 NA
ENDROOT
BRANCH   4  10
ATOM     10  C   LIG    1       -2.504  -3.671   0.168  0.00  0.00    +0.120 C 
ATOM     11  C   LIG    1       -2.031  -3.878   1.617  0.00  0.00    +0.185 C 
ATOM     12  O   LIG    1       -0.840  -4.659   1.522  0.00  0.00    -0.378 OA
ATOM     13  C   LIG    1       -0.222  -4.428   0.263  0.00  0.00    +0.162 C 
ATOM     14  C   LIG    1       -1.397  -4.262  -0.695  0.00  0.00    +0.055 C 
ENDBRANCH   4  10
BRANCH   1  15
ATOM     15  N   LIG    1        1.202   0.202   0.723  0.00  0.00    -0.311 N 
ATOM     16  H   LIG    1        1.672  -0.678   0.878  0.00  0.00    +0.149 HD
BRANCH  15  18
ATOM     17  C   LIG    1        3.158   1.386   1.590  0.00  0.00    +0.025 C 
ATOM     18  C   LIG    1        2.041   1.385   0.525  0.00  0.00    +0.073 C 
ATOM     19  C   LIG    1        2.642   1.350  -0.898  0.00  0.00    +0.025 C 
ATOM     20  C   LIG    1        3.606   2.529  -1.133  0.00  0.00    +0.033 C 
ATOM     21  C   LIG    1        4.702   2.627  -0.046  0.00  0.00    +0.115 C 
ATOM     22  C   LIG    1        4.128   2.567   1.389  0.00  0.00    +0.033 C 
BRANCH  21  23
ATOM     23  O   LIG    1        5.481   3.792  -0.227  0.00  0.00    -0.392 OA
ATOM     24  H   LIG    1        4.911   4.558  -0.130  0.00  0.00    +0.210 HD
ENDBRANCH  21  23
ENDBRANCH  15  18
ENDBRANCH   1  15
BRANCH   5  25
ATOM     25  N   LIG    1       -5.104  -2.539  -0.873  0.00  0.00    -0.280 N 
ATOM     26  H   LIG    1       -5.070  -3.532  -0.695  0.00  0.00    +0.155 HD
BRANCH  25  27
ATOM     27  C   LIG    1       -6.340  -2.074  -1.349  0.00  0.00    +0.105 A 
ATOM     28  C   LIG    1       -6.575  -1.974  -2.728  0.00  0.00    +0.150 A 
ATOM     29  F   LIG    1       -5.615  -2.318  -3.619  0.00  0.00    -0.203 F 
ATOM     30  C   LIG    1       -7.806  -1.514  -3.196  0.00  0.00    +0.078 A 
ATOM     31  C   LIG    1       -8.808  -1.154  -2.296  0.00  0.00    +0.129 A 
ATOM     32  F   LIG    1      -10.000  -0.710  -2.754  0.00  0.00    -0.205 F 
ATOM     33  C   LIG    1       -8.582  -1.255  -0.924  0.00  0.00    +0.078 A 
ATOM     34  C   LIG    1       -7.353  -1.714  -0.449  0.00  0.00    +0.150 A 
ATOM     35  F   LIG    1       -7.154  -1.806   0.888  0.00  0.00    -0.203 F 
ENDBRANCH  25  27
ENDBRANCH   5  25
TORSDOF 6
