REMARK  Name = DB11923
REMARK                            x       y       z     vdW  Elec       q    Type
REMARK                         _______ _______ _______ _____ _____    ______ ____
ROOT
ATOM      1  C   LIG    1       -1.830   3.184  -0.000  0.00  0.00    +0.075 A 
ATOM      2  N   LIG    1       -0.708   2.405  -0.011  0.00  0.00    -0.227 NA
ATOM      3  C   LIG    1       -0.859   1.073  -0.011  0.00  0.00    +0.172 A 
ATOM      4  C   LIG    1        0.053  -0.015  -0.021  0.00  0.00    +0.089 A 
ATOM      5  C   LIG    1       -0.777  -1.138  -0.014  0.00  0.00    +0.153 A 
ATOM      6  N   LIG    1       -2.065  -0.863   0.001  0.00  0.00    -0.172 NA
ATOM      7  N   LIG    1       -2.137   0.490   0.003  0.00  0.00    -0.209 N 
ATOM      8  C   LIG    1       -3.283   1.254   0.020  0.00  0.00    +0.149 A 
ATOM      9  C   LIG    1       -3.122   2.642   0.021  0.00  0.00    +0.060 A 
ENDROOT
BRANCH   1  11
ATOM     10  C   LIG    1       -0.500   5.223   0.667  0.00  0.00    +0.010 A 
ATOM     11  C   LIG    1       -1.599   4.662   0.002  0.00  0.00    +0.001 A 
ATOM     12  C   LIG    1       -2.483   5.521  -0.665  0.00  0.00    +0.010 A 
ATOM     13  C   LIG    1       -2.277   6.898  -0.668  0.00  0.00    +0.013 A 
ATOM     14  C   LIG    1       -1.181   7.447   0.002  0.00  0.00    +0.055 A 
ATOM     15  C   LIG    1       -0.290   6.599   0.667  0.00  0.00    +0.013 A 
BRANCH  14  16
ATOM     16  C   LIG    1       -0.941   8.956  -0.009  0.00  0.00    +0.417 C 
ATOM     17  F   LIG    1        0.363   9.239   0.004  0.00  0.00    -0.166 F 
ATOM     18  F   LIG    1       -1.502   9.492   1.075  0.00  0.00    -0.166 F 
ATOM     19  F   LIG    1       -1.474   9.532  -1.089  0.00  0.00    -0.166 F 
ENDBRANCH  14  16
ENDBRANCH   1  11
BRANCH   8  20
ATOM     20  C   LIG    1       -4.659   0.584   0.039  0.00  0.00    +0.434 C 
ATOM     21  F   LIG    1       -4.779  -0.177   1.128  0.00  0.00    -0.164 F 
ATOM     22  F   LIG    1       -4.808  -0.182  -1.042  0.00  0.00    -0.164 F 
ATOM     23  F   LIG    1       -5.649   1.479   0.050  0.00  0.00    -0.164 F 
ENDBRANCH   8  20
BRANCH   4  24
ATOM     24  C   LIG    1        1.506   0.019  -0.035  0.00  0.00    -0.056 C 
ATOM     25  C   LIG    1        2.727   0.036  -0.036  0.00  0.00    -0.059 C 
BRANCH  25  26
ATOM     26  C   LIG    1        4.182   0.043  -0.021  0.00  0.00    +0.043 A 
ATOM     27  C   LIG    1        4.889   1.189   0.357  0.00  0.00    +0.129 A 
ATOM     28  N   LIG    1        6.246   1.240   0.389  0.00  0.00    -0.240 NA
ATOM     29  C   LIG    1        6.936   0.125   0.037  0.00  0.00    +0.116 A 
ATOM     30  C   LIG    1        6.305  -1.059  -0.353  0.00  0.00    +0.044 A 
ATOM     31  C   LIG    1        4.909  -1.096  -0.381  0.00  0.00    +0.022 A 
BRANCH  29  32
ATOM     32  N   LIG    1        8.326   0.193   0.078  0.00  0.00    -0.343 N 
ATOM     33  H   LIG    1        8.769   1.054   0.364  0.00  0.00    +0.144 HD
ATOM     34  H   LIG    1        8.873  -0.617  -0.177  0.00  0.00    +0.144 HD
ENDBRANCH  29  32
ENDBRANCH  25  26
ENDBRANCH   4  24
TORSDOF 6
