REMARK  Name = DB11705
REMARK                            x       y       z     vdW  Elec       q    Type
REMARK                         _______ _______ _______ _____ _____    ______ ____
ROOT
ATOM      1  C   LIG    1        1.450   0.354   0.002  0.00  0.00    +0.065 A 
ATOM      2  C   LIG    1        2.142   0.232  -1.218  0.00  0.00    +0.049 A 
ATOM      3  C   LIG    1        3.542   0.103  -1.214  0.00  0.00    +0.064 A 
ATOM      4  C   LIG    1        4.254   0.081  -0.002  0.00  0.00    +0.049 A 
ATOM      5  I   LIG    1        6.358  -0.135  -0.031  0.00  0.00    -0.041 I 
ATOM      6  C   LIG    1        3.559   0.203   1.216  0.00  0.00    +0.065 A 
ATOM      7  I   LIG    1        1.099   0.245  -3.060  0.00  0.00    -0.041 I 
ATOM      8  C   LIG    1        2.156   0.338   1.221  0.00  0.00    +0.040 A 
ATOM      9  I   LIG    1        1.110   0.515   3.057  0.00  0.00    -0.042 I 
ENDROOT
BRANCH   1  10
ATOM     10  C   LIG    1       -0.046   0.496  -0.001  0.00  0.00    +0.246 C 
ATOM     11  O   LIG    1       -0.773  -0.497   0.039  0.00  0.00    -0.270 OA
ATOM     12  N   LIG    1       -0.486   1.765  -0.066  0.00  0.00    -0.309 N 
ATOM     13  H   LIG    1        0.191   2.513  -0.060  0.00  0.00    +0.149 HD
BRANCH  12  14
ATOM     14  C   LIG    1       -1.894   2.157  -0.144  0.00  0.00    +0.138 C 
BRANCH  14  15
ATOM     15  C   LIG    1       -2.548   1.915  -1.528  0.00  0.00    +0.157 C 
BRANCH  15  16
ATOM     16  O   LIG    1       -1.868   2.682  -2.505  0.00  0.00    -0.388 OA
ATOM     17  H   LIG    1       -0.939   2.439  -2.487  0.00  0.00    +0.210 HD
ENDBRANCH  15  16
BRANCH  15  18
ATOM     18  C   LIG    1       -4.044   2.291  -1.566  0.00  0.00    +0.188 C 
BRANCH  18  19
ATOM     19  O   LIG    1       -4.815   1.407  -0.777  0.00  0.00    -0.392 OA
ATOM     20  H   LIG    1       -5.740   1.655  -0.855  0.00  0.00    +0.210 HD
ENDBRANCH  18  19
ENDBRANCH  15  18
ENDBRANCH  14  15
ENDBRANCH  12  14
ENDBRANCH   1  10
BRANCH   3  21
ATOM     21  N   LIG    1        4.234  -0.025  -2.435  0.00  0.00    -0.271 N 
ATOM     22  C   LIG    1        4.708   1.057  -3.119  0.00  0.00    +0.245 C 
ATOM     23  O   LIG    1        5.316   0.937  -4.188  0.00  0.00    -0.273 OA
ATOM     24  C   LIG    1        4.424  -1.393  -2.932  0.00  0.00    +0.138 C 
BRANCH  22  25
ATOM     25  C   LIG    1        4.476   2.471  -2.530  0.00  0.00    +0.252 C 
BRANCH  25  26
ATOM     26  O   LIG    1        4.993   3.476  -3.386  0.00  0.00    -0.386 OA
ATOM     27  H   LIG    1        5.900   3.249  -3.608  0.00  0.00    +0.210 HD
ENDBRANCH  25  26
ENDBRANCH  22  25
ENDBRANCH   3  21
BRANCH   6  28
ATOM     28  C   LIG    1        4.315   0.184   2.516  0.00  0.00    +0.246 C 
ATOM     29  O   LIG    1        4.542  -0.877   3.098  0.00  0.00    -0.270 OA
ATOM     30  N   LIG    1        4.686   1.397   2.964  0.00  0.00    -0.309 N 
ATOM     31  H   LIG    1        4.463   2.209   2.407  0.00  0.00    +0.149 HD
BRANCH  30  32
ATOM     32  C   LIG    1        5.369   1.644   4.234  0.00  0.00    +0.138 C 
BRANCH  32  33
ATOM     33  C   LIG    1        4.452   1.559   5.479  0.00  0.00    +0.157 C 
BRANCH  33  34
ATOM     34  O   LIG    1        3.439   2.547   5.381  0.00  0.00    -0.388 OA
ATOM     35  H   LIG    1        2.892   2.495   6.168  0.00  0.00    +0.210 HD
ENDBRANCH  33  34
BRANCH  33  36
ATOM     36  C   LIG    1        5.229   1.763   6.796  0.00  0.00    +0.188 C 
BRANCH  36  37
ATOM     37  O   LIG    1        4.421   1.471   7.920  0.00  0.00    -0.392 OA
ATOM     38  H   LIG    1        4.945   1.595   8.715  0.00  0.00    +0.210 HD
ENDBRANCH  36  37
ENDBRANCH  33  36
ENDBRANCH  32  33
ENDBRANCH  30  32
ENDBRANCH   6  28
TORSDOF 15
