REMARK  Name = DB11744
REMARK                            x       y       z     vdW  Elec       q    Type
REMARK                         _______ _______ _______ _____ _____    ______ ____
ROOT
ATOM      1  B   LIG    1       -0.254   2.551   0.220  0.00  0.00    +0.000 B 
ATOM      2  O   LIG    1       -1.338   3.404   0.234  0.00  0.00    +0.000 OA
ATOM      3  C   LIG    1       -2.553   2.663   0.095  0.00  0.00    +0.000 C 
ATOM      4  C   LIG    1       -2.159   1.200   0.027  0.00  0.00    +0.000 A 
ATOM      5  C   LIG    1       -2.951   0.057  -0.094  0.00  0.00    +0.000 A 
ATOM      6  C   LIG    1       -2.347  -1.200  -0.141  0.00  0.00    +0.000 A 
ATOM      7  C   LIG    1       -0.957  -1.316  -0.071  0.00  0.00    +0.000 A 
ATOM      8  C   LIG    1       -0.156  -0.167   0.047  0.00  0.00    +0.000 A 
ATOM      9  C   LIG    1       -0.778   1.084   0.095  0.00  0.00    +0.000 A 
ENDROOT
BRANCH   1  10
ATOM     10  O   LIG    1        1.059   2.898   0.333  0.00  0.00    +0.000 OA
ATOM     11  H   LIG    1        1.170   3.849   0.407  0.00  0.00    +0.000 HD
ENDBRANCH   1  10
BRANCH   3  12
ATOM     12  C   LIG    1       -3.526   2.989   1.255  0.00  0.00    +0.000 C 
BRANCH  12  13
ATOM     13  N   LIG    1       -3.906   4.478   1.285  0.00  0.00    +0.000 N 
ATOM     14  H   LIG    1       -3.076   5.042   1.404  0.00  0.00    +0.000 HD
ATOM     15  H   LIG    1       -4.355   4.740   0.419  0.00  0.00    +0.000 HD
ATOM     16  H   LIG    1       -4.538   4.662   2.051  0.00  0.00    +0.000 HD
ENDBRANCH  12  13
ENDBRANCH   3  12
BRANCH   8  17
ATOM     17  O   LIG    1        1.223  -0.163   0.119  0.00  0.00    +0.000 OA
BRANCH  17  18
ATOM     18  C   LIG    1        1.923  -1.402   0.071  0.00  0.00    +0.000 C 
BRANCH  18  19
ATOM     19  C   LIG    1        3.433  -1.115   0.138  0.00  0.00    +0.000 C 
BRANCH  19  20
ATOM     20  C   LIG    1        4.322  -2.369   0.049  0.00  0.00    +0.000 C 
BRANCH  20  21
ATOM     21  O   LIG    1        4.069  -3.251   1.123  0.00  0.00    +0.000 OA
ATOM     22  H   LIG    1        4.644  -4.015   1.034  0.00  0.00    +0.000 HD
ENDBRANCH  20  21
ENDBRANCH  19  20
ENDBRANCH  18  19
ENDBRANCH  17  18
ENDBRANCH   8  17
TORSDOF 8
