REMARK  Name = DB11190
REMARK                            x       y       z     vdW  Elec       q    Type
REMARK                         _______ _______ _______ _____ _____    ______ ____
ROOT
ATOM      1  S   LIG    1       -0.004   0.598   1.635  0.00  0.00    -0.092 S 
ENDROOT
BRANCH   1   2
ATOM      2  C   LIG    1        0.019   2.131   0.666  0.00  0.00    +0.099 C 
BRANCH   2   3
ATOM      3  C   LIG    1       -0.641   2.049  -0.726  0.00  0.00    +0.115 C 
BRANCH   3   6
ATOM      4  C   LIG    1        1.138   2.606  -2.364  0.00  0.00    +0.215 C 
ATOM      5  O   LIG    1        1.728   1.533  -2.233  0.00  0.00    -0.276 OA
ATOM      6  N   LIG    1        0.002   2.914  -1.715  0.00  0.00    -0.314 N 
ATOM      7  H   LIG    1       -0.436   3.808  -1.889  0.00  0.00    +0.149 HD
BRANCH   4   8
ATOM      8  C   LIG    1        1.711   3.685  -3.290  0.00  0.00    +0.114 C 
BRANCH   8   9
ATOM      9  C   LIG    1        2.905   4.503  -2.740  0.00  0.00    +0.113 C 
BRANCH   9  11
ATOM     10  C   LIG    1        4.258   3.317  -0.960  0.00  0.00    +0.242 C 
ATOM     11  N   LIG    1        4.055   3.741  -2.225  0.00  0.00    -0.313 N 
ATOM     12  H   LIG    1        4.764   3.519  -2.909  0.00  0.00    +0.149 HD
ATOM     13  O   LIG    1        3.476   3.555  -0.036  0.00  0.00    -0.273 OA
BRANCH  10  14
ATOM     14  C   LIG    1        5.543   2.488  -0.712  0.00  0.00    +0.208 C 
BRANCH  14  15
ATOM     15  C   LIG    1        6.799   3.310  -0.226  0.00  0.00    +0.023 C 
ATOM     16  C   LIG    1        6.537   3.997   1.144  0.00  0.00    +0.016 C 
ATOM     17  C   LIG    1        7.155   4.411  -1.265  0.00  0.00    +0.016 C 
BRANCH  15  18
ATOM     18  C   LIG    1        8.012   2.335  -0.095  0.00  0.00    +0.165 C 
BRANCH  18  19
ATOM     19  O   LIG    1        9.216   2.967   0.304  0.00  0.00    -0.394 OA
ATOM     20  H   LIG    1        9.902   2.299   0.374  0.00  0.00    +0.209 HD
ENDBRANCH  18  19
ENDBRANCH  15  18
ENDBRANCH  14  15
BRANCH  14  21
ATOM     21  O   LIG    1        5.224   1.450   0.206  0.00  0.00    -0.382 OA
ATOM     22  H   LIG    1        5.186   1.828   1.089  0.00  0.00    +0.210 HD
ENDBRANCH  14  21
ENDBRANCH  10  14
ENDBRANCH   9  11
ENDBRANCH   8   9
ENDBRANCH   4   8
ENDBRANCH   3   6
ENDBRANCH   2   3
ENDBRANCH   1   2
BRANCH   1  23
ATOM     23  S   LIG    1        1.734  -0.344   1.119  0.00  0.00    -0.092 S 
BRANCH  23  24
ATOM     24  C   LIG    1        1.312  -1.333  -0.340  0.00  0.00    +0.099 C 
BRANCH  24  25
ATOM     25  C   LIG    1        2.519  -2.017  -1.002  0.00  0.00    +0.115 C 
BRANCH  25  26
ATOM     26  N   LIG    1        2.145  -2.920  -2.091  0.00  0.00    -0.314 N 
ATOM     27  H   LIG    1        2.177  -3.907  -1.883  0.00  0.00    +0.149 HD
ATOM     28  C   LIG    1        1.769  -2.533  -3.322  0.00  0.00    +0.215 C 
ATOM     29  O   LIG    1        1.716  -1.355  -3.678  0.00  0.00    -0.276 OA
BRANCH  28  30
ATOM     30  C   LIG    1        1.405  -3.658  -4.302  0.00  0.00    +0.114 C 
BRANCH  30  31
ATOM     31  C   LIG    1        0.446  -3.289  -5.462  0.00  0.00    +0.113 C 
BRANCH  31  32
ATOM     32  N   LIG    1       -0.511  -4.308  -5.880  0.00  0.00    -0.313 N 
ATOM     33  H   LIG    1       -1.466  -4.190  -5.571  0.00  0.00    +0.149 HD
ATOM     34  C   LIG    1       -0.203  -5.378  -6.638  0.00  0.00    +0.242 C 
ATOM     35  O   LIG    1        0.937  -5.579  -7.059  0.00  0.00    -0.273 OA
BRANCH  34  36
ATOM     36  C   LIG    1       -1.328  -6.393  -6.987  0.00  0.00    +0.208 C 
BRANCH  36  37
ATOM     37  C   LIG    1       -1.286  -7.742  -6.164  0.00  0.00    +0.023 C 
ATOM     38  C   LIG    1       -0.037  -8.569  -6.572  0.00  0.00    +0.016 C 
ATOM     39  C   LIG    1       -2.524  -8.617  -6.508  0.00  0.00    +0.016 C 
BRANCH  37  40
ATOM     40  C   LIG    1       -1.224  -7.527  -4.617  0.00  0.00    +0.165 C 
BRANCH  40  41
ATOM     41  O   LIG    1       -2.320  -6.800  -4.096  0.00  0.00    -0.394 OA
ATOM     42  H   LIG    1       -2.223  -6.743  -3.143  0.00  0.00    +0.209 HD
ENDBRANCH  40  41
ENDBRANCH  37  40
ENDBRANCH  36  37
BRANCH  36  43
ATOM     43  O   LIG    1       -2.600  -5.756  -6.901  0.00  0.00    -0.382 OA
ATOM     44  H   LIG    1       -2.626  -5.040  -7.540  0.00  0.00    +0.210 HD
ENDBRANCH  36  43
ENDBRANCH  34  36
ENDBRANCH  31  32
ENDBRANCH  30  31
ENDBRANCH  28  30
ENDBRANCH  25  26
ENDBRANCH  24  25
ENDBRANCH  23  24
ENDBRANCH   1  23
TORSDOF 23
