REMARK  Name = DB11888
REMARK                            x       y       z     vdW  Elec       q    Type
REMARK                         _______ _______ _______ _____ _____    ______ ____
ROOT
ATOM      1  C   LIG    1       -0.210   1.568   0.060  0.00  0.00    +0.227 C 
ATOM      2  O   LIG    1        0.229   2.351  -1.064  0.00  0.00    -0.478 OA
ATOM      3  C   LIG    1       -0.080   3.685  -1.057  0.00  0.00    +0.202 C 
ATOM      4  C   LIG    1       -0.563   4.346   0.026  0.00  0.00    +0.046 C 
ATOM      5  C   LIG    1       -0.790   3.684   1.373  0.00  0.00    +0.107 C 
ATOM      6  C   LIG    1       -0.041   2.317   1.420  0.00  0.00    +0.137 C 
ENDROOT
BRANCH   6   7
ATOM      7  N   LIG    1       -0.363   1.490   2.596  0.00  0.00    -0.307 N 
ATOM      8  H   LIG    1       -1.235   0.984   2.546  0.00  0.00    +0.149 HD
ATOM      9  C   LIG    1        0.412   1.298   3.678  0.00  0.00    +0.210 C 
ATOM     10  O   LIG    1        1.505   1.837   3.846  0.00  0.00    -0.276 OA
ATOM     11  C   LIG    1       -0.134   0.351   4.741  0.00  0.00    +0.109 C 
ENDBRANCH   6   7
BRANCH   3  12
ATOM     12  C   LIG    1        0.165   4.380  -2.452  0.00  0.00    +0.372 C 
ATOM     13  O   LIG    1       -0.001   5.622  -2.497  0.00  0.00    -0.242 OA
BRANCH  12  14
ATOM     14  O   LIG    1        0.511   3.615  -3.383  0.00  0.00    -0.475 OA
ATOM     15  H   LIG    1        0.673   3.961  -4.238  0.00  0.00    +0.296 HD
ENDBRANCH  12  14
ENDBRANCH   3  12
BRANCH   5  16
ATOM     16  N   LIG    1       -0.354   4.582   2.465  0.00  0.00    -0.275 NA
ATOM     17  H   LIG    1        0.475   5.128   2.276  0.00  0.00    +0.126 HD
BRANCH  16  18
ATOM     18  C   LIG    1       -0.897   4.752   3.675  0.00  0.00    +0.167 C 
BRANCH  18  19
ATOM     19  N   LIG    1       -2.005   4.143   4.088  0.00  0.00    -0.297 NA
ATOM     20  H   LIG    1       -2.482   3.501   3.471  0.00  0.00    +0.121 HD
ATOM     21  H   LIG    1       -2.371   4.331   5.009  0.00  0.00    +0.121 HD
ENDBRANCH  18  19
BRANCH  18  22
ATOM     22  N   LIG    1       -0.297   5.580   4.517  0.00  0.00    -0.297 NA
ATOM     23  H   LIG    1        0.334   6.286   4.165  0.00  0.00    +0.121 HD
ATOM     24  H   LIG    1       -0.466   5.500   5.509  0.00  0.00    +0.121 HD
ENDBRANCH  18  22
ENDBRANCH  16  18
ENDBRANCH   5  16
BRANCH   1  25
ATOM     25  C   LIG    1        0.473   0.164  -0.032  0.00  0.00    +0.192 C 
BRANCH  25  26
ATOM     26  O   LIG    1       -0.170  -0.767   0.842  0.00  0.00    -0.373 OA
ATOM     27  C   LIG    1       -1.415  -1.293   0.396  0.00  0.00    +0.194 C 
ENDBRANCH  25  26
BRANCH  25  28
ATOM     28  C   LIG    1        1.999   0.154   0.287  0.00  0.00    +0.184 C 
BRANCH  28  29
ATOM     29  O   LIG    1        2.686   1.103  -0.507  0.00  0.00    -0.386 OA
ATOM     30  H   LIG    1        2.242   1.951  -0.429  0.00  0.00    +0.210 HD
ENDBRANCH  28  29
BRANCH  28  31
ATOM     31  C   LIG    1        2.711  -1.198   0.050  0.00  0.00    +0.266 C 
BRANCH  31  32
ATOM     32  O   LIG    1        2.363  -2.173   1.031  0.00  0.00    -0.462 OA
BRANCH  32  33
ATOM     33  C   LIG    1        1.627  -3.264   0.723  0.00  0.00    +0.307 C 
ATOM     34  O   LIG    1        1.185  -3.551  -0.392  0.00  0.00    -0.251 OA
BRANCH  33  35
ATOM     35  C   LIG    1        1.375  -4.137   1.959  0.00  0.00    +0.120 C 
BRANCH  35  36
ATOM     36  C   LIG    1        0.519  -5.394   1.700  0.00  0.00    +0.011 C 
BRANCH  36  37
ATOM     37  C   LIG    1        0.305  -6.226   2.979  0.00  0.00    +0.001 C 
BRANCH  37  38
ATOM     38  C   LIG    1       -0.607  -7.455   2.796  0.00  0.00    +0.000 C 
BRANCH  38  39
ATOM     39  C   LIG    1       -0.028  -8.545   1.872  0.00  0.00    -0.000 C 
BRANCH  39  40
ATOM     40  C   LIG    1       -0.916  -9.799   1.797  0.00  0.00    -0.003 C 
ATOM     41  C   LIG    1       -0.346 -10.881   0.869  0.00  0.00    +0.004 C 
ENDBRANCH  39  40
ENDBRANCH  38  39
ENDBRANCH  37  38
ENDBRANCH  36  37
ENDBRANCH  35  36
ENDBRANCH  33  35
ENDBRANCH  32  33
ENDBRANCH  31  32
ENDBRANCH  28  31
ENDBRANCH  25  28
ENDBRANCH   1  25
TORSDOF 20
