REMARK  Name = DB11204
REMARK                            x       y       z     vdW  Elec       q    Type
REMARK                         _______ _______ _______ _____ _____    ______ ____
ROOT
ATOM      1  C   LIG    1        0.041   0.305   0.098  0.00  0.00    +0.242 C 
ATOM      2  N   LIG    1       -0.482   1.542  -0.000  0.00  0.00    -0.313 N 
ATOM      3  H   LIG    1        0.144   2.307  -0.202  0.00  0.00    +0.149 HD
ATOM      4  O   LIG    1       -0.644  -0.698   0.313  0.00  0.00    -0.273 OA
ENDROOT
BRANCH   2   5
ATOM      5  C   LIG    1       -1.900   1.891   0.112  0.00  0.00    +0.106 C 
BRANCH   5   6
ATOM      6  C   LIG    1       -2.315   2.355   1.527  0.00  0.00    +0.046 C 
BRANCH   6   7
ATOM      7  C   LIG    1       -2.225   1.295   2.642  0.00  0.00    +0.157 C 
BRANCH   7   8
ATOM      8  O   LIG    1       -3.051   0.185   2.354  0.00  0.00    -0.395 OA
ATOM      9  H   LIG    1       -2.914  -0.482   3.030  0.00  0.00    +0.209 HD
ENDBRANCH   7   8
ENDBRANCH   6   7
ENDBRANCH   5   6
ENDBRANCH   2   5
BRANCH   1  10
ATOM     10  C   LIG    1        1.579   0.199  -0.070  0.00  0.00    +0.208 C 
BRANCH  10  11
ATOM     11  C   LIG    1        2.082  -0.033  -1.547  0.00  0.00    +0.023 C 
ATOM     12  C   LIG    1        3.636  -0.057  -1.550  0.00  0.00    +0.016 C 
ATOM     13  C   LIG    1        1.637   1.145  -2.458  0.00  0.00    +0.016 C 
BRANCH  11  14
ATOM     14  C   LIG    1        1.538  -1.377  -2.129  0.00  0.00    +0.165 C 
BRANCH  14  15
ATOM     15  O   LIG    1        1.989  -1.648  -3.444  0.00  0.00    -0.394 OA
ATOM     16  H   LIG    1        1.621  -2.488  -3.726  0.00  0.00    +0.209 HD
ENDBRANCH  14  15
ENDBRANCH  11  14
ENDBRANCH  10  11
BRANCH  10  17
ATOM     17  O   LIG    1        2.051  -0.831   0.791  0.00  0.00    -0.382 OA
ATOM     18  H   LIG    1        1.747  -0.647   1.683  0.00  0.00    +0.210 HD
ENDBRANCH  10  17
ENDBRANCH   1  10
TORSDOF 9
