REMARK  Name = DB11780
REMARK                            x       y       z     vdW  Elec       q    Type
REMARK                         _______ _______ _______ _____ _____    ______ ____
ROOT
ATOM      1  S   LIG    1       -0.185  -0.569  -0.148  0.00  0.00    +0.085 S 
ATOM      2  O   LIG    1       -0.455   0.871   0.294  0.00  0.00    -0.246 OA
ENDROOT
BRANCH   1   3
ATOM      3  C   LIG    1       -0.548  -0.662  -1.968  0.00  0.00    +0.142 C 
BRANCH   3   4
ATOM      4  C   LIG    1        0.145   0.429  -2.765  0.00  0.00    -0.021 C 
ATOM      5  C   LIG    1        1.167   0.230  -3.613  0.00  0.00    +0.005 C 
ENDBRANCH   3   4
ENDBRANCH   1   3
BRANCH   1   6
ATOM      6  S   LIG    1        2.000  -0.945  -0.349  0.00  0.00    -0.057 S 
BRANCH   6   7
ATOM      7  C   LIG    1        2.363  -0.997   1.425  0.00  0.00    +0.110 C 
BRANCH   7   8
ATOM      8  C   LIG    1        3.829  -1.217   1.737  0.00  0.00    -0.023 C 
ATOM      9  C   LIG    1        4.324  -2.291   2.372  0.00  0.00    +0.005 C 
ENDBRANCH   7   8
ENDBRANCH   6   7
ENDBRANCH   1   6
TORSDOF 5
