REMARK  Name = DB11260
REMARK                            x       y       z     vdW  Elec       q    Type
REMARK                         _______ _______ _______ _____ _____    ______ ____
ROOT
ATOM      1  C   LIG    1       -1.599  -3.218   1.528  0.00  0.00    +0.011 C 
ATOM      2  C   LIG    1       -1.711  -2.011   0.576  0.00  0.00    +0.031 C 
ATOM      3  C   LIG    1       -1.067  -2.195  -0.809  0.00  0.00    +0.191 C 
ATOM      4  C   LIG    1       -0.846  -0.749  -1.323  0.00  0.00    +0.126 C 
ATOM      5  C   LIG    1       -0.016  -0.662  -2.672  0.00  0.00    +0.213 C 
ATOM      6  C   LIG    1       -0.130   0.607  -3.553  0.00  0.00    -0.036 C 
ATOM      7  C   LIG    1        0.957   0.783  -4.620  0.00  0.00    +0.034 C 
ATOM      8  C   LIG    1        2.397   1.060  -4.122  0.00  0.00    +0.009 C 
ATOM      9  C   LIG    1        2.678   2.526  -3.677  0.00  0.00    +0.003 C 
ATOM     10  C   LIG    1        3.700   2.839  -2.598  0.00  0.00    -0.025 C 
ATOM     11  C   LIG    1        4.617   4.041  -2.891  0.00  0.00    +0.012 C 
ATOM     12  C   LIG    1        4.440   1.702  -1.858  0.00  0.00    +0.012 C 
ATOM     13  C   LIG    1        2.230   3.113  -2.328  0.00  0.00    +0.022 C 
ATOM     14  C   LIG    1        1.375   2.212  -1.452  0.00  0.00    -0.016 C 
ATOM     15  C   LIG    1        0.330   2.569  -0.675  0.00  0.00    -0.008 C 
ATOM     16  C   LIG    1       -0.035   4.026  -0.380  0.00  0.00    +0.047 C 
ATOM     17  C   LIG    1       -0.606   1.559  -0.097  0.00  0.00    +0.203 C 
ATOM     18  O   LIG    1       -1.686   1.948   0.357  0.00  0.00    -0.288 OA
ATOM     19  C   LIG    1       -1.145   1.490  -3.472  0.00  0.00    +0.011 C 
ATOM     20  C   LIG    1       -0.327   0.001  -0.032  0.00  0.00    +0.185 C 
ATOM     21  C   LIG    1       -1.109  -0.711   1.136  0.00  0.00    +0.063 C 
ENDROOT
BRANCH   3  22
ATOM     22  O   LIG    1        0.201  -2.858  -0.727  0.00  0.00    -0.457 OA
BRANCH  22  23
ATOM     23  C   LIG    1        0.368  -4.165  -1.063  0.00  0.00    +0.339 C 
ATOM     24  O   LIG    1       -0.550  -4.894  -1.449  0.00  0.00    -0.245 OA
BRANCH  23  25
ATOM     25  C   LIG    1        1.782  -4.636  -0.893  0.00  0.00    +0.059 A 
ATOM     26  C   LIG    1        2.084  -5.990  -1.099  0.00  0.00    +0.015 A 
ATOM     27  C   LIG    1        3.388  -6.455  -0.945  0.00  0.00    +0.001 A 
ATOM     28  C   LIG    1        4.400  -5.568  -0.586  0.00  0.00    +0.000 A 
ATOM     29  C   LIG    1        4.119  -4.220  -0.381  0.00  0.00    +0.001 A 
ATOM     30  C   LIG    1        2.816  -3.755  -0.534  0.00  0.00    +0.015 A 
ENDBRANCH  23  25
ENDBRANCH  22  23
ENDBRANCH   3  22
BRANCH   5  31
ATOM     31  O   LIG    1       -0.166  -1.835  -3.493  0.00  0.00    -0.457 OA
BRANCH  31  32
ATOM     32  C   LIG    1       -1.318  -2.168  -4.136  0.00  0.00    +0.305 C 
ATOM     33  C   LIG    1       -1.177  -3.454  -4.939  0.00  0.00    +0.136 C 
ATOM     34  O   LIG    1       -2.381  -1.549  -4.097  0.00  0.00    -0.251 OA
ENDBRANCH  31  32
ENDBRANCH   5  31
BRANCH  20  35
ATOM     35  O   LIG    1        1.094  -0.255   0.145  0.00  0.00    -0.450 OA
BRANCH  35  36
ATOM     36  C   LIG    1        1.864   0.163   1.202  0.00  0.00    +0.305 C 
ATOM     37  C   LIG    1        3.305  -0.321   1.103  0.00  0.00    +0.136 C 
ATOM     38  O   LIG    1        1.490   0.850   2.152  0.00  0.00    -0.251 OA
ENDBRANCH  35  36
ENDBRANCH  20  35
TORSDOF 7
