REMARK  Name = DB11805
REMARK                            x       y       z     vdW  Elec       q    Type
REMARK                         _______ _______ _______ _____ _____    ______ ____
ROOT
ATOM      1  C   LIG    1       -0.065  -0.481   0.147  0.00  0.00    +0.126 A 
ATOM      2  C   LIG    1       -0.679   0.762   0.044  0.00  0.00    +0.092 A 
ATOM      3  C   LIG    1       -2.070   0.918  -0.044  0.00  0.00    +0.137 A 
ATOM      4  C   LIG    1       -2.890  -0.262  -0.025  0.00  0.00    +0.082 A 
ATOM      5  C   LIG    1       -4.327  -0.300  -0.119  0.00  0.00    +0.138 A 
ATOM      6  N   LIG    1       -5.027  -1.464  -0.079  0.00  0.00    -0.220 NA
ATOM      7  C   LIG    1       -4.314  -2.603   0.038  0.00  0.00    +0.223 A 
ATOM      8  N   LIG    1       -2.969  -2.707   0.124  0.00  0.00    -0.235 NA
ATOM      9  C   LIG    1       -2.260  -1.544   0.093  0.00  0.00    +0.083 A 
ATOM     10  C   LIG    1       -0.855  -1.633   0.178  0.00  0.00    +0.074 A 
ENDROOT
BRANCH   5  11
ATOM     11  N   LIG    1       -5.088   0.876  -0.247  0.00  0.00    -0.295 N 
ATOM     12  H   LIG    1       -4.562   1.732  -0.140  0.00  0.00    +0.154 HD
BRANCH  11  13
ATOM     13  C   LIG    1       -6.470   1.042  -0.429  0.00  0.00    +0.097 A 
ATOM     14  C   LIG    1       -7.205   1.793   0.488  0.00  0.00    +0.189 A 
ATOM     15  O   LIG    1       -6.785   2.375   1.645  0.00  0.00    -0.451 OA
ATOM     16  C   LIG    1       -7.864   3.150   2.092  0.00  0.00    +0.466 C 
ATOM     17  O   LIG    1       -9.007   2.728   1.400  0.00  0.00    -0.453 OA
ATOM     18  C   LIG    1       -8.546   2.010   0.343  0.00  0.00    +0.168 A 
ATOM     19  C   LIG    1       -9.257   1.507  -0.740  0.00  0.00    +0.051 A 
ATOM     20  C   LIG    1       -8.542   0.785  -1.704  0.00  0.00    +0.025 A 
ATOM     21  C   LIG    1       -7.160   0.562  -1.565  0.00  0.00    +0.066 A 
ATOM     22 CL   LIG    1       -6.345  -0.284  -2.839  0.00  0.00    -0.081 Cl
ENDBRANCH  11  13
ENDBRANCH   5  11
BRANCH   1  23
ATOM     23  O   LIG    1        1.315  -0.480   0.210  0.00  0.00    -0.491 OA
BRANCH  23  24
ATOM     24  C   LIG    1        2.018  -1.720   0.251  0.00  0.00    +0.244 C 
BRANCH  24  25
ATOM     25  C   LIG    1        3.537  -1.469   0.164  0.00  0.00    +0.125 C 
BRANCH  25  31
ATOM     26  C   LIG    1        6.580  -3.367  -3.179  0.00  0.00    -0.096 C 
ATOM     27  N   LIG    1        5.784  -2.113  -2.772  0.00  0.00    +0.379 N 
ATOM     28  H   LIG    1        5.945  -1.380  -3.450  0.00  0.00    -0.082 HD
ATOM     29  C   LIG    1        4.268  -2.412  -2.742  0.00  0.00    -0.064 C 
ATOM     30  C   LIG    1        3.525  -1.123  -2.317  0.00  0.00    +0.066 C 
ATOM     31  N   LIG    1        3.951  -0.654  -0.989  0.00  0.00    -0.303 NA
ATOM     32  C   LIG    1        5.391  -0.361  -1.002  0.00  0.00    +0.066 C 
ATOM     33  C   LIG    1        6.246  -1.596  -1.390  0.00  0.00    -0.064 C 
ENDBRANCH  25  31
ENDBRANCH  24  25
ENDBRANCH  23  24
ENDBRANCH   1  23
BRANCH   3  34
ATOM     34  O   LIG    1       -2.700   2.149  -0.149  0.00  0.00    -0.488 OA
BRANCH  34  35
ATOM     35  C   LIG    1       -2.024   3.410  -0.172  0.00  0.00    +0.178 C 
ATOM     36  C   LIG    1       -1.317   3.807   1.146  0.00  0.00    +0.072 C 
ATOM     37  C   LIG    1       -0.707   5.217   1.016  0.00  0.00    +0.163 C 
ATOM     38  O   LIG    1        0.133   5.285  -0.136  0.00  0.00    -0.380 OA
ATOM     39  C   LIG    1       -0.563   5.098  -1.368  0.00  0.00    +0.163 C 
ATOM     40  C   LIG    1       -1.164   3.679  -1.430  0.00  0.00    +0.072 C 
ENDBRANCH  34  35
ENDBRANCH   3  34
TORSDOF 8
