REMARK  Name = DB11773
REMARK                            x       y       z     vdW  Elec       q    Type
REMARK                         _______ _______ _______ _____ _____    ______ ____
ROOT
ATOM      1  N   LIG    1        1.029  -0.093  -0.079  0.00  0.00    -0.280 N 
ATOM      2  C   LIG    1        1.548  -0.857  -1.103  0.00  0.00    +0.259 A 
ATOM      3  O   LIG    1        0.879  -1.373  -2.001  0.00  0.00    -0.267 OA
ATOM      4  C   LIG    1        3.001  -1.027  -1.055  0.00  0.00    +0.117 A 
ATOM      5  C   LIG    1        3.805  -0.489  -0.092  0.00  0.00    +0.146 A 
ATOM      6  C   LIG    1        3.171   0.304   0.959  0.00  0.00    +0.099 A 
ATOM      7 CL   LIG    1        4.107   1.048   2.260  0.00  0.00    -0.078 Cl
ATOM      8  C   LIG    1        1.833   0.451   0.900  0.00  0.00    +0.118 A 
ENDROOT
BRANCH   1  13
ATOM      9  C   LIG    1       -3.111   0.601   0.154  0.00  0.00    +0.091 A 
ATOM     10  C   LIG    1       -2.294   1.489  -0.552  0.00  0.00    +0.067 A 
ATOM     11  C   LIG    1       -0.918   1.267  -0.633  0.00  0.00    +0.149 A 
ATOM     12  F   LIG    1       -0.142   2.139  -1.320  0.00  0.00    -0.203 F 
ATOM     13  C   LIG    1       -0.355   0.145  -0.007  0.00  0.00    +0.085 A 
ATOM     14  C   LIG    1       -1.174  -0.743   0.700  0.00  0.00    +0.031 A 
ATOM     15  C   LIG    1       -2.548  -0.517   0.777  0.00  0.00    +0.029 A 
BRANCH   9  17
ATOM     16  C   LIG    1       -5.525   0.025  -1.307  0.00  0.00    +0.200 C 
ATOM     17  S   LIG    1       -4.878   0.885   0.241  0.00  0.00    -0.006 S 
ATOM     18  O   LIG    1       -5.384   0.170   1.417  0.00  0.00    -0.170 OA
ATOM     19  O   LIG    1       -5.099   2.329   0.099  0.00  0.00    -0.170 OA
ENDBRANCH   9  17
ENDBRANCH   1  13
BRANCH   5  20
ATOM     20  O   LIG    1        5.164  -0.623  -0.019  0.00  0.00    -0.487 OA
BRANCH  20  21
ATOM     21  C   LIG    1        5.937  -1.325  -1.003  0.00  0.00    +0.176 C 
ATOM     22  C   LIG    1        5.743  -2.851  -1.039  0.00  0.00    +0.063 C 
ATOM     23  C   LIG    1        6.690  -3.518  -2.060  0.00  0.00    +0.111 C 
ATOM     24  N   LIG    1        6.609  -2.941  -3.421  0.00  0.00    -0.299 N 
ATOM     25  C   LIG    1        6.889  -1.488  -3.360  0.00  0.00    +0.111 C 
ATOM     26  C   LIG    1        5.953  -0.709  -2.414  0.00  0.00    +0.063 C 
BRANCH  24  27
ATOM     27  C   LIG    1        6.919  -3.698  -4.559  0.00  0.00    +0.218 A 
ATOM     28  N   LIG    1        6.940  -5.059  -4.440  0.00  0.00    -0.221 NA
ATOM     29  C   LIG    1        7.179  -5.783  -5.565  0.00  0.00    +0.136 A 
ATOM     30  C   LIG    1        7.381  -5.181  -6.806  0.00  0.00    +0.077 A 
ATOM     31 CL   LIG    1        7.679  -6.117  -8.225  0.00  0.00    -0.080 Cl
ATOM     32  C   LIG    1        7.328  -3.788  -6.850  0.00  0.00    +0.136 A 
ATOM     33  N   LIG    1        7.093  -3.038  -5.742  0.00  0.00    -0.221 NA
ENDBRANCH  24  27
ENDBRANCH  20  21
ENDBRANCH   5  20
TORSDOF 5
