REMARK  Name = DB11858
REMARK                            x       y       z     vdW  Elec       q    Type
REMARK                         _______ _______ _______ _____ _____    ______ ____
ROOT
ATOM      1  C   UNK A  1        0.658  -0.553   0.034  0.00  0.00    +0.098 C 
ENDROOT
BRANCH   1   3
ATOM      2  C   UNK A  1       -1.615   0.614   0.050  0.00  0.00    -0.003 C 
ATOM      3  C   UNK A  1       -0.796  -0.370  -0.369  0.00  0.00    -0.010 C 
BRANCH   2   5
ATOM      4  C   UNK A  1       -3.820  -0.380  -0.381  0.00  0.00    -0.000 C 
ATOM      5  C   UNK A  1       -3.015   0.697  -0.333  0.00  0.00    -0.000 C 
BRANCH   4   7
ATOM      6  C   UNK A  1       -5.995  -1.436  -0.961  0.00  0.00    -0.023 C 
ATOM      7  C   UNK A  1       -5.204  -0.352  -0.821  0.00  0.00    -0.004 C 
BRANCH   6   8
ATOM      8  C   UNK A  1       -5.633  -2.891  -0.690  0.00  0.00    +0.054 C 
BRANCH   8  10
ATOM      9  C   UNK A  1       -4.586  -3.974  -2.766  0.00  0.00    -0.031 C 
ATOM     10  C   UNK A  1       -5.618  -3.780  -1.921  0.00  0.00    -0.027 C 
BRANCH   9  11
ATOM     11  C   UNK A  1       -3.232  -3.281  -2.731  0.00  0.00    +0.027 C 
BRANCH  11  12
ATOM     12  C   UNK A  1       -2.062  -4.140  -2.215  0.00  0.00    +0.004 C 
BRANCH  12  13
ATOM     13  C   UNK A  1       -2.109  -4.408  -0.699  0.00  0.00    +0.000 C 
BRANCH  13  15
ATOM     14  C   UNK A  1       -0.936  -5.440   1.328  0.00  0.00    +0.004 C 
ATOM     15  C   UNK A  1       -0.888  -5.191  -0.186  0.00  0.00    -0.003 C 
ENDBRANCH  13  15
ENDBRANCH  12  13
ENDBRANCH  11  12
ENDBRANCH   9  11
ENDBRANCH   8  10
ENDBRANCH   6   8
ENDBRANCH   4   7
ENDBRANCH   2   5
ENDBRANCH   1   3
BRANCH   1  16
ATOM     16  S   UNK A  1        0.766  -1.967   1.179  0.00  0.00    -0.152 S 
BRANCH  16  17
ATOM     17  C   UNK A  1        1.951  -1.385   2.436  0.00  0.00    +0.062 C 
BRANCH  17  18
ATOM     18  C   UNK A  1        2.763  -2.554   3.048  0.00  0.00    +0.023 C 
BRANCH  18  19
ATOM     19  N   UNK A  1        3.530  -2.150   4.277  0.00  0.00    +0.386 N 
ATOM     20  H   UNK A  1        4.309  -1.571   3.994  0.00  0.00    -0.089 HD
ATOM     21  H   UNK A  1        2.921  -1.629   4.891  0.00  0.00    -0.089 HD
ATOM     22  H   UNK A  1        3.867  -2.979   4.744  0.00  0.00    -0.089 HD
ENDBRANCH  18  19
BRANCH  18  23
ATOM     23  C   UNK A  1        3.805  -3.141   2.060  0.00  0.00    +0.200 C 
ATOM     24  N   GLY A  2        3.416  -4.254   1.418  0.00  0.00    -0.306 N 
ATOM     25  H   GLY A  2        2.506  -4.649   1.609  0.00  0.00    +0.149 HD
ATOM     26  O   UNK A  1        4.893  -2.588   1.862  0.00  0.00    -0.278 OA
BRANCH  24  27
ATOM     27  CA  GLY A  2        4.214  -4.936   0.392  0.00  0.00    +0.224 C 
BRANCH  27  28
ATOM     28  C   GLY A  2        3.536  -6.218  -0.156  0.00  0.00    +0.322 C 
ATOM     29  O   GLY A  2        4.151  -6.807  -1.072  0.00  0.00    -0.249 OA
BRANCH  28  30
ATOM     30  OXT GLY A  2        2.444  -6.618   0.317  0.00  0.00    -0.480 OA
ATOM     31  HXT GLY A  2        2.026  -6.136   1.004  0.00  0.00    +0.295 HD
ENDBRANCH  28  30
ENDBRANCH  27  28
ENDBRANCH  24  27
ENDBRANCH  18  23
ENDBRANCH  17  18
ENDBRANCH  16  17
ENDBRANCH   1  16
BRANCH   1  32
ATOM     32  C   UNK A  1        1.592  -0.669  -1.208  0.00  0.00    +0.131 C 
BRANCH  32  33
ATOM     33  O   UNK A  1        1.426   0.474  -2.032  0.00  0.00    -0.390 OA
ATOM     34  H   UNK A  1        1.738   1.244  -1.551  0.00  0.00    +0.210 HD
ENDBRANCH  32  33
BRANCH  32  35
ATOM     35  C   UNK A  1        3.093  -0.815  -0.861  0.00  0.00    +0.033 C 
BRANCH  35  36
ATOM     36  C   UNK A  1        4.041  -0.920  -2.073  0.00  0.00    +0.014 C 
BRANCH  36  37
ATOM     37  C   UNK A  1        5.514  -1.155  -1.646  0.00  0.00    +0.120 C 
BRANCH  37  38
ATOM     38  C   UNK A  1        6.548  -1.122  -2.797  0.00  0.00    +0.305 C 
ATOM     39  O   UNK A  1        7.752  -1.110  -2.454  0.00  0.00    -0.251 OA
BRANCH  38  40
ATOM     40  O   UNK A  1        6.163  -1.123  -3.990  0.00  0.00    -0.481 OA
ATOM     41  H   UNK A  1        5.246  -1.132  -4.186  0.00  0.00    +0.295 HD
ENDBRANCH  38  40
ENDBRANCH  37  38
ENDBRANCH  36  37
ENDBRANCH  35  36
ENDBRANCH  32  35
ENDBRANCH   1  32
TORSDOF 24
