REMARK  Name = DB11760
REMARK                            x       y       z     vdW  Elec       q    Type
REMARK                         _______ _______ _______ _____ _____    ______ ____
ROOT
ATOM      1  C   LIG    1        1.525   0.017   0.177  0.00  0.00    +0.132 C 
ATOM      2  C   LIG    1        2.127  -1.146  -0.686  0.00  0.00    +0.117 C 
ATOM      3  N   LIG    1        3.595  -1.166  -0.614  0.00  0.00    -0.335 N 
ATOM      4  H   LIG    1        4.052  -1.710  -1.332  0.00  0.00    +0.147 HD
ATOM      5  C   LIG    1        4.178  -1.057   0.661  0.00  0.00    +0.040 A 
ATOM      6  C   LIG    1        5.460  -1.575   0.864  0.00  0.00    +0.062 A 
ATOM      7  C   LIG    1        6.034  -1.559   2.134  0.00  0.00    +0.126 A 
ATOM      8  F   LIG    1        7.280  -2.052   2.316  0.00  0.00    -0.205 F 
ATOM      9  C   LIG    1        5.326  -1.046   3.219  0.00  0.00    +0.052 A 
ATOM     10  C   LIG    1        4.030  -0.549   3.037  0.00  0.00    +0.054 A 
ATOM     11  C   LIG    1        3.264  -0.017   4.239  0.00  0.00    +0.273 A 
ATOM     12  N   LIG    1        2.021   0.415   3.885  0.00  0.00    -0.242 N 
ATOM     13  H   LIG    1        1.437   0.785   4.622  0.00  0.00    +0.192 HD
ATOM     14  N   LIG    1        1.426   0.430   2.636  0.00  0.00    -0.174 NA
ATOM     15  O   LIG    1        3.673   0.034   5.399  0.00  0.00    -0.266 OA
ATOM     16  C   LIG    1        3.447  -0.554   1.752  0.00  0.00    +0.032 A 
ATOM     17  C   LIG    1        2.077  -0.019   1.622  0.00  0.00    +0.084 A 
ENDROOT
BRANCH   2  18
ATOM     18  C   LIG    1        1.599  -1.127  -2.123  0.00  0.00    -0.026 A 
ATOM     19  C   LIG    1        2.066  -0.177  -3.039  0.00  0.00    +0.008 A 
ATOM     20  C   LIG    1        1.557  -0.148  -4.335  0.00  0.00    +0.038 A 
ATOM     21  C   LIG    1        0.579  -1.065  -4.714  0.00  0.00    +0.123 A 
ATOM     22  F   LIG    1        0.083  -1.034  -5.971  0.00  0.00    -0.205 F 
ATOM     23  C   LIG    1        0.106  -2.011  -3.807  0.00  0.00    +0.038 A 
ATOM     24  C   LIG    1        0.615  -2.041  -2.512  0.00  0.00    +0.008 A 
ENDBRANCH   2  18
BRANCH   1  30
ATOM     25  C   LIG    1       -0.342   2.370  -0.880  0.00  0.00    +0.174 C 
ATOM     26  N   LIG    1       -0.766   1.096  -0.321  0.00  0.00    -0.251 N 
ATOM     27  N   LIG    1       -2.063   0.796  -0.211  0.00  0.00    -0.158 NA
ATOM     28  C   LIG    1       -2.006  -0.406   0.318  0.00  0.00    +0.245 A 
ATOM     29  N   LIG    1       -0.806  -0.909   0.557  0.00  0.00    -0.219 NA
ATOM     30  C   LIG    1       -0.009   0.053   0.152  0.00  0.00    +0.138 A 
ENDBRANCH   1  30
TORSDOF 2
