REMARK  Name = DB11614
REMARK                            x       y       z     vdW  Elec       q    Type
REMARK                         _______ _______ _______ _____ _____    ______ ____
ROOT
ATOM      1  N   LIG    1       -0.398   1.478  -0.153  0.00  0.00    -0.298 NA
ATOM      2  C   LIG    1       -1.857   1.532  -0.030  0.00  0.00    +0.089 C 
ATOM      3  C   LIG    1       -2.389   2.972   0.133  0.00  0.00    +0.047 C 
ATOM      4  C   LIG    1       -1.916   3.858  -1.026  0.00  0.00    -0.057 C 
ATOM      5  C   LIG    1       -2.743   4.564  -1.850  0.00  0.00    +0.007 C 
ATOM      6  C   LIG    1       -4.209   4.543  -1.669  0.00  0.00    +0.075 A 
ATOM      7  N   LIG    1       -4.700   5.193  -0.578  0.00  0.00    -0.255 NA
ATOM      8  C   LIG    1       -6.043   5.199  -0.391  0.00  0.00    +0.111 A 
ATOM      9  C   LIG    1       -6.931   4.579  -1.268  0.00  0.00    +0.020 A 
ATOM     10  C   LIG    1       -6.412   3.930  -2.390  0.00  0.00    +0.007 A 
ATOM     11  C   LIG    1       -5.030   3.905  -2.608  0.00  0.00    -0.021 A 
ATOM     12  C   LIG    1       -4.384   3.272  -3.830  0.00  0.00    +0.042 C 
ATOM     13  C   LIG    1       -3.699   4.265  -4.795  0.00  0.00    +0.040 C 
ATOM     14  C   LIG    1       -2.698   5.320  -4.291  0.00  0.00    -0.038 A 
ATOM     15  C   LIG    1       -2.188   6.214  -5.242  0.00  0.00    +0.024 A 
ATOM     16  C   LIG    1       -1.276   7.208  -4.899  0.00  0.00    +0.041 A 
ATOM     17 CL   LIG    1       -0.674   8.287  -6.104  0.00  0.00    -0.084 Cl
ATOM     18  C   LIG    1       -0.856   7.331  -3.581  0.00  0.00    +0.020 A 
ATOM     19  C   LIG    1       -1.346   6.456  -2.618  0.00  0.00    +0.010 A 
ATOM     20  C   LIG    1       -2.253   5.436  -2.948  0.00  0.00    -0.013 A 
ATOM     21  C   LIG    1       -0.390   3.777  -1.163  0.00  0.00    +0.047 C 
ATOM     22  C   LIG    1        0.069   2.307  -1.272  0.00  0.00    +0.089 C 
ENDROOT
BRANCH   1  23
ATOM     23  C   LIG    1        0.057   0.088  -0.270  0.00  0.00    +0.121 C 
BRANCH  23  29
ATOM     24  C   LIG    1        4.381   1.057   2.240  0.00  0.00    +0.045 C 
ATOM     25  C   LIG    1        3.619   0.360   1.128  0.00  0.00    -0.032 A 
ATOM     26  C   LIG    1        4.272  -0.483   0.224  0.00  0.00    +0.114 A 
ATOM     27  N   LIG    1        3.630  -1.123  -0.785  0.00  0.00    -0.263 NA
ATOM     28  C   LIG    1        2.294  -0.920  -0.916  0.00  0.00    +0.115 A 
ATOM     29  C   LIG    1        1.561  -0.082  -0.069  0.00  0.00    -0.015 A 
ATOM     30  C   LIG    1        2.244   0.560   0.973  0.00  0.00    +0.011 A 
ENDBRANCH  23  29
ENDBRANCH   1  23
TORSDOF 2
