REMARK  Name = DB11981
REMARK                            x       y       z     vdW  Elec       q    Type
REMARK                         _______ _______ _______ _____ _____    ______ ____
ROOT
ATOM      1  C   LIG    1       -0.074   0.123  -0.235  0.00  0.00    +0.163 C 
ENDROOT
BRANCH   1   4
ATOM      2  C   LIG    1       -0.545  -0.103  -2.683  0.00  0.00    +0.199 C 
ATOM      3  O   LIG    1       -0.142   1.033  -2.959  0.00  0.00    -0.278 OA
ATOM      4  N   LIG    1       -0.572  -0.580  -1.425  0.00  0.00    -0.305 N 
ATOM      5  H   LIG    1       -0.903  -1.519  -1.260  0.00  0.00    +0.149 HD
BRANCH   2   6
ATOM      6  C   LIG    1       -1.057  -1.104  -3.762  0.00  0.00    +0.013 C 
BRANCH   6   7
ATOM      7  N   LIG    1       -0.688  -0.576  -5.127  0.00  0.00    +0.386 N 
ATOM      8  H   LIG    1       -0.979  -1.242  -5.828  0.00  0.00    -0.089 HD
ATOM      9  H   LIG    1       -1.154   0.308  -5.278  0.00  0.00    -0.089 HD
ATOM     10  H   LIG    1        0.314  -0.453  -5.173  0.00  0.00    -0.089 HD
ENDBRANCH   6   7
BRANCH   6  11
ATOM     11  C   LIG    1       -2.578  -1.392  -3.632  0.00  0.00    -0.006 C 
BRANCH  11  12
ATOM     12  C   LIG    1       -3.121  -2.480  -4.588  0.00  0.00    +0.014 C 
BRANCH  12  13
ATOM     13  C   LIG    1       -4.579  -2.911  -4.329  0.00  0.00    +0.084 C 
BRANCH  13  14
ATOM     14  N   LIG    1       -5.542  -1.796  -4.398  0.00  0.00    -0.283 NA
ATOM     15  H   LIG    1       -5.771  -1.483  -5.331  0.00  0.00    +0.125 HD
BRANCH  14  16
ATOM     16  C   LIG    1       -6.120  -1.139  -3.370  0.00  0.00    +0.167 C 
BRANCH  16  17
ATOM     17  N   LIG    1       -6.962  -0.133  -3.643  0.00  0.00    -0.297 NA
ATOM     18  H   LIG    1       -7.159   0.121  -4.601  0.00  0.00    +0.121 HD
ATOM     19  H   LIG    1       -7.413   0.371  -2.893  0.00  0.00    +0.121 HD
ENDBRANCH  16  17
BRANCH  16  20
ATOM     20  N   LIG    1       -5.888  -1.455  -2.085  0.00  0.00    -0.297 NA
ATOM     21  H   LIG    1       -5.270  -2.220  -1.855  0.00  0.00    +0.121 HD
ATOM     22  H   LIG    1       -6.345  -0.941  -1.344  0.00  0.00    +0.121 HD
ENDBRANCH  16  20
ENDBRANCH  14  16
ENDBRANCH  13  14
ENDBRANCH  12  13
ENDBRANCH  11  12
ENDBRANCH   6  11
ENDBRANCH   2   6
ENDBRANCH   1   4
BRANCH   1  23
ATOM     23  C   LIG    1        1.464   0.217  -0.234  0.00  0.00    +0.234 C 
ATOM     24  O   LIG    1        2.133  -0.589  -0.883  0.00  0.00    -0.274 OA
ATOM     25  N   LIG    1        1.983   1.192   0.527  0.00  0.00    -0.302 N 
ATOM     26  H   LIG    1        1.363   1.807   1.035  0.00  0.00    +0.150 HD
BRANCH  25  27
ATOM     27  C   LIG    1        3.410   1.393   0.774  0.00  0.00    +0.159 C 
BRANCH  27  28
ATOM     28  C   LIG    1        3.679   1.279   2.280  0.00  0.00    +0.234 C 
ATOM     29  O   LIG    1        2.905   1.806   3.081  0.00  0.00    -0.274 OA
ATOM     30  N   LIG    1        4.787   0.603   2.626  0.00  0.00    -0.302 N 
ATOM     31  H   LIG    1        5.367   0.202   1.904  0.00  0.00    +0.150 HD
BRANCH  30  32
ATOM     32  C   LIG    1        5.262   0.422   3.999  0.00  0.00    +0.163 C 
BRANCH  32  33
ATOM     33  C   LIG    1        5.809   1.734   4.606  0.00  0.00    +0.231 C 
ATOM     34  O   LIG    1        6.559   2.456   3.949  0.00  0.00    -0.274 OA
ATOM     35  N   LIG    1        5.448   2.015   5.861  0.00  0.00    -0.328 N 
ATOM     36  H   LIG    1        5.786   2.855   6.308  0.00  0.00    +0.145 HD
ATOM     37  H   LIG    1        4.839   1.391   6.370  0.00  0.00    +0.145 HD
ENDBRANCH  32  33
BRANCH  32  38
ATOM     38  C   LIG    1        6.309  -0.717   3.997  0.00  0.00    +0.067 C 
BRANCH  38  39
ATOM     39  C   LIG    1        6.944  -1.042   5.339  0.00  0.00    -0.045 A 
ATOM     40  C   LIG    1        6.235  -1.810   6.287  0.00  0.00    +0.004 A 
ATOM     41  C   LIG    1        6.777  -2.033   7.546  0.00  0.00    +0.000 A 
ATOM     42  C   LIG    1        8.005  -1.481   7.887  0.00  0.00    +0.000 A 
ATOM     43  C   LIG    1        8.698  -0.692   6.978  0.00  0.00    +0.000 A 
ATOM     44  C   LIG    1        8.173  -0.457   5.713  0.00  0.00    +0.004 A 
ENDBRANCH  38  39
ENDBRANCH  32  38
ENDBRANCH  30  32
ENDBRANCH  27  28
BRANCH  27  45
ATOM     45  C   LIG    1        3.840   2.777   0.249  0.00  0.00    +0.032 C 
BRANCH  45  46
ATOM     46  C   LIG    1        3.785   2.892  -1.287  0.00  0.00    +0.000 C 
BRANCH  46  47
ATOM     47  C   LIG    1        4.173   4.280  -1.826  0.00  0.00    -0.019 C 
BRANCH  47  48
ATOM     48  C   LIG    1        5.646   4.657  -1.580  0.00  0.00    -0.086 C 
BRANCH  48  49
ATOM     49  N   LIG    1        5.981   5.962  -2.178  0.00  0.00    +0.378 N 
ATOM     50  H   LIG    1        5.827   5.928  -3.175  0.00  0.00    -0.090 HD
ATOM     51  H   LIG    1        5.398   6.679  -1.771  0.00  0.00    -0.090 HD
ATOM     52  H   LIG    1        6.952   6.177  -1.996  0.00  0.00    -0.090 HD
ENDBRANCH  48  49
ENDBRANCH  47  48
ENDBRANCH  46  47
ENDBRANCH  45  46
ENDBRANCH  27  45
ENDBRANCH  25  27
ENDBRANCH   1  23
BRANCH   1  53
ATOM     53  C   LIG    1       -0.626  -0.469   1.101  0.00  0.00    +0.067 C 
BRANCH  53  54
ATOM     54  C   LIG    1       -0.576  -2.008   1.217  0.00  0.00    -0.039 A 
ATOM     55  C   LIG    1       -1.696  -2.783   0.834  0.00  0.00    -0.044 A 
ATOM     56  C   LIG    1       -3.007  -2.161   0.361  0.00  0.00    +0.044 C 
ATOM     57  C   LIG    1       -1.635  -4.178   0.894  0.00  0.00    +0.049 A 
ATOM     58  C   LIG    1       -0.490  -4.819   1.351  0.00  0.00    +0.117 A 
ATOM     59  C   LIG    1        0.601  -4.067   1.767  0.00  0.00    +0.049 A 
ATOM     60  C   LIG    1        0.572  -2.671   1.717  0.00  0.00    -0.044 A 
ATOM     61  C   LIG    1        1.799  -1.944   2.262  0.00  0.00    +0.044 C 
BRANCH  58  62
ATOM     62  O   LIG    1       -0.442  -6.187   1.409  0.00  0.00    -0.507 OA
ATOM     63  H   LIG    1       -1.252  -6.606   1.113  0.00  0.00    +0.292 HD
ENDBRANCH  58  62
ENDBRANCH  53  54
ENDBRANCH   1  53
TORSDOF 25
