REMARK  Name = DB11772
REMARK                            x       y       z     vdW  Elec       q    Type
REMARK                         _______ _______ _______ _____ _____    ______ ____
ROOT
ATOM      1  N   LIG    1        2.131  -0.280  -1.288  0.00  0.00    -0.197 N 
ATOM      2  H   LIG    1        2.499  -1.146  -1.653  0.00  0.00    +0.175 HD
ENDROOT
BRANCH   1   3
ATOM      3  C   LIG    1        2.036   0.809  -2.176  0.00  0.00    +0.179 A 
ATOM      4  N   LIG    1        1.331   1.904  -1.781  0.00  0.00    -0.226 NA
ATOM      5  C   LIG    1        1.192   2.939  -2.651  0.00  0.00    +0.091 A 
ATOM      6  C   LIG    1        0.446   4.081  -2.275  0.00  0.00    +0.030 A 
ATOM      7  C   LIG    1        0.299   5.137  -3.173  0.00  0.00    +0.002 A 
ATOM      8  C   LIG    1        0.881   5.082  -4.438  0.00  0.00    +0.002 A 
ATOM      9  C   LIG    1        1.621   3.968  -4.833  0.00  0.00    +0.030 A 
ATOM     10  C   LIG    1        1.786   2.880  -3.945  0.00  0.00    +0.091 A 
ATOM     11  N   LIG    1        2.502   1.788  -4.328  0.00  0.00    -0.227 NA
ATOM     12  C   LIG    1        2.633   0.755  -3.451  0.00  0.00    +0.165 A 
BRANCH  12  13
ATOM     13  N   LIG    1        3.352  -0.390  -3.852  0.00  0.00    -0.295 N 
ATOM     14  H   LIG    1        3.289  -1.157  -3.199  0.00  0.00    +0.154 HD
BRANCH  13  15
ATOM     15  C   LIG    1        4.085  -0.705  -5.012  0.00  0.00    +0.054 A 
ATOM     16  C   LIG    1        4.170  -2.044  -5.425  0.00  0.00    +0.062 A 
ATOM     17 CL   LIG    1        3.409  -3.322  -4.534  0.00  0.00    -0.082 Cl
ATOM     18  C   LIG    1        4.878  -2.376  -6.580  0.00  0.00    +0.025 A 
ATOM     19  C   LIG    1        5.506  -1.386  -7.332  0.00  0.00    +0.047 A 
ATOM     20  C   LIG    1        5.438  -0.042  -6.935  0.00  0.00    +0.122 A 
ATOM     21  C   LIG    1        4.726   0.281  -5.777  0.00  0.00    +0.070 A 
BRANCH  20  22
ATOM     22  O   LIG    1        6.034   1.005  -7.611  0.00  0.00    -0.495 OA
ATOM     23  C   LIG    1        6.770   0.733  -8.799  0.00  0.00    +0.277 C 
ENDBRANCH  20  22
ENDBRANCH  13  15
ENDBRANCH  12  13
ENDBRANCH   1   3
BRANCH   1  24
ATOM     24  S   LIG    1        1.402  -0.323   0.336  0.00  0.00    +0.074 S 
ATOM     25  O   LIG    1        1.823  -1.593   0.937  0.00  0.00    -0.150 OA
ATOM     26  O   LIG    1        1.692   0.957   0.993  0.00  0.00    -0.150 OA
BRANCH  24  29
ATOM     27  C   LIG    1       -2.488   0.691  -0.321  0.00  0.00    +0.035 A 
ATOM     28  C   LIG    1       -1.125   0.742  -0.017  0.00  0.00    +0.052 A 
ATOM     29  C   LIG    1       -0.361  -0.426   0.039  0.00  0.00    +0.110 A 
ATOM     30  C   LIG    1       -0.967  -1.663  -0.192  0.00  0.00    +0.029 A 
ATOM     31  C   LIG    1       -2.333  -1.728  -0.467  0.00  0.00    +0.004 A 
ATOM     32  C   LIG    1       -3.094  -0.560  -0.532  0.00  0.00    +0.023 A 
BRANCH  27  34
ATOM     33  C   LIG    1       -4.338   2.246  -0.948  0.00  0.00    +0.205 C 
ATOM     34  N   LIG    1       -3.151   1.930  -0.380  0.00  0.00    -0.287 N 
ATOM     35  H   LIG    1       -2.626   2.697   0.013  0.00  0.00    +0.155 HD
ATOM     36  O   LIG    1       -5.046   1.427  -1.542  0.00  0.00    -0.277 OA
BRANCH  33  38
ATOM     37  C   LIG    1       -4.879   4.184   0.653  0.00  0.00    -0.001 C 
ATOM     38  C   LIG    1       -4.739   3.753  -0.829  0.00  0.00    +0.002 C 
ATOM     39  C   LIG    1       -3.727   4.656  -1.581  0.00  0.00    -0.001 C 
BRANCH  38  40
ATOM     40  N   LIG    1       -6.118   3.985  -1.490  0.00  0.00    +0.387 N 
ATOM     41  H   LIG    1       -6.083   3.734  -2.468  0.00  0.00    -0.089 HD
ATOM     42  H   LIG    1       -6.822   3.427  -1.030  0.00  0.00    -0.089 HD
ATOM     43  H   LIG    1       -6.378   4.958  -1.417  0.00  0.00    -0.089 HD
ENDBRANCH  38  40
ENDBRANCH  33  38
ENDBRANCH  27  34
ENDBRANCH  24  29
ENDBRANCH   1  24
TORSDOF 9
