REMARK  Name = DB11896
REMARK                            x       y       z     vdW  Elec       q    Type
REMARK                         _______ _______ _______ _____ _____    ______ ____
ROOT
ATOM      1  N   LIG    1        1.275  -0.360   0.372  0.00  0.00    -0.269 N 
ATOM      2  H   LIG    1        1.862   0.460   0.390  0.00  0.00    +0.156 HD
ATOM      3  C   LIG    1        1.895  -1.540   0.588  0.00  0.00    +0.308 C 
ATOM      4  N   LIG    1        3.226  -1.341   0.683  0.00  0.00    -0.269 N 
ATOM      5  H   LIG    1        3.544  -0.395   0.533  0.00  0.00    +0.156 HD
ATOM      6  O   LIG    1        1.329  -2.627   0.696  0.00  0.00    -0.252 OA
ENDROOT
BRANCH   1  10
ATOM      7  C   LIG    1       -2.776   0.677  -0.140  0.00  0.00    +0.037 A 
ATOM      8  C   LIG    1       -1.792   1.637   0.121  0.00  0.00    +0.015 A 
ATOM      9  C   LIG    1       -0.461   1.259   0.277  0.00  0.00    +0.024 A 
ATOM     10  C   LIG    1       -0.095  -0.086   0.198  0.00  0.00    +0.035 A 
ATOM     11  C   LIG    1       -1.078  -1.054  -0.056  0.00  0.00    +0.024 A 
ATOM     12  C   LIG    1       -2.408  -0.673  -0.214  0.00  0.00    +0.015 A 
BRANCH   7  17
ATOM     13  C   LIG    1       -5.948   1.856  -3.560  0.00  0.00    -0.066 C 
ATOM     14  C   LIG    1       -4.531   1.236  -3.465  0.00  0.00    +0.004 C 
ATOM     15  C   LIG    1       -4.489   0.031  -2.494  0.00  0.00    +0.106 C 
ATOM     16  N   LIG    1       -5.020   0.484  -1.189  0.00  0.00    -0.298 N 
ATOM     17  C   LIG    1       -4.222   1.104  -0.271  0.00  0.00    +0.247 C 
ATOM     18  O   LIG    1       -4.640   1.990   0.480  0.00  0.00    -0.270 OA
ATOM     19  C   LIG    1       -6.455   0.832  -1.256  0.00  0.00    +0.106 C 
ATOM     20  C   LIG    1       -6.610   2.072  -2.172  0.00  0.00    +0.004 C 
BRANCH  13  22
ATOM     21  C   LIG    1       -5.307   4.398  -3.734  0.00  0.00    -0.096 C 
ATOM     22  N   LIG    1       -5.910   3.151  -4.416  0.00  0.00    +0.378 N 
ATOM     23  H   LIG    1       -5.300   2.937  -5.194  0.00  0.00    -0.082 HD
ATOM     24  C   LIG    1       -7.282   3.475  -5.040  0.00  0.00    -0.096 C 
ENDBRANCH  13  22
ENDBRANCH   7  17
ENDBRANCH   1  10
BRANCH   4  25
ATOM     25  C   LIG    1        4.261  -2.257   0.957  0.00  0.00    +0.035 A 
ATOM     26  C   LIG    1        4.079  -3.613   1.260  0.00  0.00    +0.024 A 
ATOM     27  C   LIG    1        5.180  -4.421   1.532  0.00  0.00    +0.013 A 
ATOM     28  C   LIG    1        6.486  -3.908   1.516  0.00  0.00    +0.019 A 
ATOM     29  C   LIG    1        6.649  -2.549   1.205  0.00  0.00    +0.013 A 
ATOM     30  C   LIG    1        5.554  -1.735   0.929  0.00  0.00    +0.024 A 
BRANCH  28  31
ATOM     31  C   LIG    1        7.670  -4.781   1.828  0.00  0.00    +0.167 A 
ATOM     32  N   LIG    1        7.465  -6.123   1.943  0.00  0.00    -0.194 NA
ATOM     33  C   LIG    1        8.559  -6.876   2.255  0.00  0.00    +0.223 A 
ATOM     34  N   LIG    1        9.808  -6.356   2.420  0.00  0.00    -0.181 NA
ATOM     35  C   LIG    1        9.931  -5.006   2.271  0.00  0.00    +0.223 A 
ATOM     36  N   LIG    1        8.883  -4.182   1.988  0.00  0.00    -0.194 NA
BRANCH  33  37
ATOM     37  N   LIG    1        8.403  -8.264   2.342  0.00  0.00    -0.295 N 
ATOM     38  C   LIG    1        7.066  -8.887   2.438  0.00  0.00    +0.136 C 
ATOM     39  C   LIG    1        7.038 -10.397   2.126  0.00  0.00    +0.179 C 
ATOM     40  O   LIG    1        8.009 -11.076   2.905  0.00  0.00    -0.377 OA
ATOM     41  C   LIG    1        9.317 -10.621   2.607  0.00  0.00    +0.179 C 
ATOM     42  C   LIG    1        9.448  -9.121   2.942  0.00  0.00    +0.136 C 
ENDBRANCH  33  37
BRANCH  35  43
ATOM     43  N   LIG    1       11.185  -4.427   2.495  0.00  0.00    -0.295 N 
ATOM     44  C   LIG    1       11.473  -3.032   2.096  0.00  0.00    +0.136 C 
ATOM     45  C   LIG    1       12.724  -2.422   2.762  0.00  0.00    +0.179 C 
ATOM     46  O   LIG    1       13.840  -3.277   2.581  0.00  0.00    -0.377 OA
ATOM     47  C   LIG    1       13.626  -4.538   3.191  0.00  0.00    +0.179 C 
ATOM     48  C   LIG    1       12.416  -5.244   2.546  0.00  0.00    +0.136 C 
ENDBRANCH  35  43
ENDBRANCH  28  31
ENDBRANCH   4  25
TORSDOF 7
