REMARK  Name = DB11700
REMARK                            x       y       z     vdW  Elec       q    Type
REMARK                         _______ _______ _______ _____ _____    ______ ____
ROOT
ATOM      1  S   LIG    1        3.365   2.236   2.550  0.00  0.00    -0.091 S 
ATOM      2  C   LIG    1        4.824   1.574   3.418  0.00  0.00    +0.112 C 
ATOM      3  C   LIG    1        4.847   1.708   4.958  0.00  0.00    +0.169 C 
ATOM      4  N   LIG    1        3.670   1.029   5.499  0.00  0.00    -0.302 N 
ATOM      5  H   LIG    1        2.933   0.860   4.829  0.00  0.00    +0.150 HD
ATOM      6  C   LIG    1        3.452   0.701   6.782  0.00  0.00    +0.234 C 
ATOM      7  C   LIG    1        2.049   0.126   7.086  0.00  0.00    +0.163 C 
ATOM      8  N   LIG    1        1.565  -0.781   6.036  0.00  0.00    -0.302 N 
ATOM      9  H   LIG    1        0.764  -0.446   5.520  0.00  0.00    +0.150 HD
ATOM     10  C   LIG    1        2.063  -1.989   5.716  0.00  0.00    +0.234 C 
ATOM     11  C   LIG    1        1.315  -2.744   4.602  0.00  0.00    +0.159 C 
ATOM     12  N   LIG    1        2.242  -3.650   3.924  0.00  0.00    -0.302 N 
ATOM     13  H   LIG    1        3.065  -3.896   4.454  0.00  0.00    +0.150 HD
ATOM     14  C   LIG    1        2.035  -4.233   2.732  0.00  0.00    +0.234 C 
ATOM     15  C   LIG    1        3.076  -5.297   2.324  0.00  0.00    +0.163 C 
ATOM     16  N   LIG    1        3.327  -5.367   0.884  0.00  0.00    -0.302 N 
ATOM     17  H   LIG    1        3.035  -6.222   0.435  0.00  0.00    +0.150 HD
ATOM     18  C   LIG    1        3.869  -4.396   0.132  0.00  0.00    +0.234 C 
ATOM     19  C   LIG    1        4.003  -4.711  -1.367  0.00  0.00    +0.165 C 
ATOM     20  N   LIG    1        3.356  -3.665  -2.156  0.00  0.00    -0.302 N 
ATOM     21  H   LIG    1        3.955  -2.915  -2.470  0.00  0.00    +0.150 HD
ATOM     22  C   LIG    1        2.029  -3.561  -2.334  0.00  0.00    +0.234 C 
ATOM     23  C   LIG    1        1.545  -2.244  -2.963  0.00  0.00    +0.156 C 
ATOM     24  C   LIG    1        0.298  -2.441  -3.841  0.00  0.00    +0.038 C 
ATOM     25  N   LIG    1        1.229  -1.288  -1.904  0.00  0.00    -0.303 N 
ATOM     26  H   LIG    1        0.251  -1.206  -1.667  0.00  0.00    +0.149 HD
ATOM     27  C   LIG    1        2.136  -0.618  -1.168  0.00  0.00    +0.235 C 
ATOM     28  C   LIG    1        1.625   0.206   0.026  0.00  0.00    +0.169 C 
ATOM     29  C   LIG    1        2.229  -0.309   1.349  0.00  0.00    +0.112 C 
ATOM     30  O   LIG    1        3.347  -0.632  -1.395  0.00  0.00    -0.274 OA
ATOM     31  O   LIG    1        1.210  -4.409  -1.978  0.00  0.00    -0.274 OA
ATOM     32  O   LIG    1        4.261  -3.311   0.566  0.00  0.00    -0.274 OA
ATOM     33  O   LIG    1        1.072  -4.003   1.998  0.00  0.00    -0.274 OA
ATOM     34  O   LIG    1        3.034  -2.511   6.266  0.00  0.00    -0.274 OA
ATOM     35  O   LIG    1        4.283   0.847   7.677  0.00  0.00    -0.274 OA
ATOM     36  S   LIG    1        1.952   0.780   2.771  0.00  0.00    -0.091 S 
ENDROOT
BRANCH   3  37
ATOM     37  C   LIG    1        4.944   3.185   5.403  0.00  0.00    +0.232 C 
ATOM     38  N   LIG    1        6.173   3.697   5.503  0.00  0.00    -0.328 N 
ATOM     39  H   LIG    1        6.298   4.660   5.782  0.00  0.00    +0.145 HD
ATOM     40  H   LIG    1        6.983   3.127   5.308  0.00  0.00    +0.145 HD
ATOM     41  O   LIG    1        3.929   3.846   5.623  0.00  0.00    -0.274 OA
ENDBRANCH   3  37
BRANCH  28  42
ATOM     42  N   LIG    1        0.165   0.162   0.143  0.00  0.00    -0.302 N 
ATOM     43  H   LIG    1       -0.242  -0.762   0.157  0.00  0.00    +0.150 HD
ATOM     44  C   LIG    1       -0.634   1.222   0.336  0.00  0.00    +0.234 C 
ATOM     45  O   LIG    1       -0.254   2.393   0.365  0.00  0.00    -0.274 OA
BRANCH  44  46
ATOM     46  C   LIG    1       -2.119   0.895   0.570  0.00  0.00    +0.159 C 
BRANCH  46  47
ATOM     47  N   LIG    1       -2.460   1.058   1.985  0.00  0.00    -0.304 N 
ATOM     48  H   LIG    1       -3.030   1.862   2.204  0.00  0.00    +0.149 HD
ATOM     49  C   LIG    1       -2.045   0.258   2.985  0.00  0.00    +0.211 C 
ATOM     50  C   LIG    1       -2.479   0.646   4.394  0.00  0.00    +0.109 C 
ATOM     51  O   LIG    1       -1.351  -0.744   2.817  0.00  0.00    -0.276 OA
ENDBRANCH  46  47
BRANCH  46  52
ATOM     52  C   LIG    1       -3.054   1.732  -0.331  0.00  0.00    +0.035 C 
BRANCH  52  53
ATOM     53  C   LIG    1       -2.797   1.574  -1.848  0.00  0.00    +0.043 C 
BRANCH  53  54
ATOM     54  C   LIG    1       -3.831   2.293  -2.738  0.00  0.00    +0.243 C 
BRANCH  54  55
ATOM     55  N   LIG    1       -3.712   3.737  -2.589  0.00  0.00    -0.114 NA
ATOM     56  C   LIG    1       -4.698   4.438  -2.188  0.00  0.00    +0.376 C 
BRANCH  56  57
ATOM     57  N   LIG    1       -6.060   4.053  -2.148  0.00  0.00    -0.289 N 
ATOM     58  H   LIG    1       -6.753   4.771  -2.302  0.00  0.00    +0.255 HD
ATOM     59  H   LIG    1       -6.315   3.198  -2.621  0.00  0.00    +0.255 HD
ENDBRANCH  56  57
BRANCH  56  60
ATOM     60  N   LIG    1       -4.528   5.766  -1.745  0.00  0.00    -0.289 N 
ATOM     61  H   LIG    1       -5.277   6.419  -1.922  0.00  0.00    +0.255 HD
ATOM     62  H   LIG    1       -3.629   6.196  -1.905  0.00  0.00    +0.255 HD
ENDBRANCH  56  60
ENDBRANCH  54  55
ENDBRANCH  53  54
ENDBRANCH  52  53
ENDBRANCH  46  52
ENDBRANCH  44  46
ENDBRANCH  28  42
BRANCH   7  63
ATOM     63  C   LIG    1        1.886  -0.520   8.486  0.00  0.00    +0.069 C 
BRANCH  63  64
ATOM     64  C   LIG    1        2.047   0.384   9.676  0.00  0.00    -0.020 A 
ATOM     65  C   LIG    1        1.181   1.359  10.034  0.00  0.00    +0.087 A 
ATOM     66  N   LIG    1        1.650   2.006  11.159  0.00  0.00    -0.360 N 
ATOM     67  H   LIG    1        1.153   2.770  11.594  0.00  0.00    +0.165 HD
ATOM     68  C   LIG    1        2.854   1.484  11.583  0.00  0.00    +0.047 A 
ATOM     69  C   LIG    1        3.717   1.794  12.649  0.00  0.00    +0.026 A 
ATOM     70  C   LIG    1        4.905   1.058  12.807  0.00  0.00    +0.002 A 
ATOM     71  C   LIG    1        5.215   0.025  11.901  0.00  0.00    +0.001 A 
ATOM     72  C   LIG    1        4.341  -0.278  10.837  0.00  0.00    +0.010 A 
ATOM     73  C   LIG    1        3.137   0.441  10.648  0.00  0.00    +0.003 A 
ENDBRANCH  63  64
ENDBRANCH   7  63
BRANCH  11  74
ATOM     74  C   LIG    1        0.079  -3.511   5.137  0.00  0.00    +0.035 C 
BRANCH  74  75
ATOM     75  C   LIG    1       -0.958  -2.677   5.923  0.00  0.00    +0.043 C 
BRANCH  75  76
ATOM     76  C   LIG    1       -2.261  -3.435   6.248  0.00  0.00    +0.243 C 
BRANCH  76  77
ATOM     77  N   LIG    1       -3.014  -3.701   5.030  0.00  0.00    -0.114 NA
ATOM     78  C   LIG    1       -3.309  -4.893   4.691  0.00  0.00    +0.376 C 
BRANCH  78  79
ATOM     79  N   LIG    1       -3.745  -5.204   3.387  0.00  0.00    -0.289 N 
ATOM     80  H   LIG    1       -4.417  -5.950   3.283  0.00  0.00    +0.255 HD
ATOM     81  H   LIG    1       -3.965  -4.431   2.776  0.00  0.00    +0.255 HD
ENDBRANCH  78  79
BRANCH  78  82
ATOM     82  N   LIG    1       -3.293  -6.044   5.517  0.00  0.00    -0.289 N 
ATOM     83  H   LIG    1       -3.974  -6.765   5.328  0.00  0.00    +0.255 HD
ATOM     84  H   LIG    1       -3.184  -5.902   6.510  0.00  0.00    +0.255 HD
ENDBRANCH  78  82
ENDBRANCH  76  77
ENDBRANCH  75  76
ENDBRANCH  74  75
ENDBRANCH  11  74
BRANCH  15  85
ATOM     85  C   LIG    1        2.722  -6.723   2.813  0.00  0.00    +0.067 C 
BRANCH  85  86
ATOM     86  C   LIG    1        2.214  -6.866   4.240  0.00  0.00    -0.045 A 
ATOM     87  C   LIG    1        0.835  -7.032   4.494  0.00  0.00    +0.004 A 
ATOM     88  C   LIG    1        0.375  -7.099   5.802  0.00  0.00    +0.000 A 
ATOM     89  C   LIG    1        1.261  -6.969   6.864  0.00  0.00    +0.000 A 
ATOM     90  C   LIG    1        2.616  -6.768   6.628  0.00  0.00    +0.000 A 
ATOM     91  C   LIG    1        3.099  -6.710   5.328  0.00  0.00    +0.004 A 
ENDBRANCH  85  86
ENDBRANCH  15  85
BRANCH  19  92
ATOM     92  C   LIG    1        5.485  -4.826  -1.779  0.00  0.00    +0.086 C 
BRANCH  92  93
ATOM     93  C   LIG    1        5.732  -5.270  -3.203  0.00  0.00    +0.038 A 
ATOM     94  C   LIG    1        4.886  -5.720  -4.196  0.00  0.00    +0.133 A 
ATOM     95  N   LIG    1        5.618  -6.007  -5.351  0.00  0.00    -0.244 NA
ATOM     96  C   LIG    1        6.871  -5.725  -5.018  0.00  0.00    +0.196 A 
ATOM     97  N   LIG    1        6.998  -5.288  -3.762  0.00  0.00    -0.348 N 
ATOM     98  H   LIG    1        7.859  -5.018  -3.307  0.00  0.00    +0.166 HD
ENDBRANCH  92  93
ENDBRANCH  19  92
TORSDOF 22
