REMARK  Name = DB11768
REMARK                            x       y       z     vdW  Elec       q    Type
REMARK                         _______ _______ _______ _____ _____    ______ ____
ROOT
ATOM      1  P   LIG    1        1.499   0.304   0.747  0.00  0.00    +0.294 P 
ATOM      2  S   LIG    1        2.954   1.190  -0.241  0.00  0.00    +0.022 S 
ENDROOT
BRANCH   1   3
ATOM      3  N   LIG    1       -0.055   0.338   0.046  0.00  0.00    -0.236 NA
ATOM      4  H   LIG    1       -0.788  -0.221   0.483  0.00  0.00    +0.132 HD
BRANCH   3   6
ATOM      5  C   LIG    1       -0.869   2.691  -0.010  0.00  0.00    +0.024 C 
ATOM      6  C   LIG    1       -0.546   1.418  -0.812  0.00  0.00    +0.057 C 
ATOM      7  C   LIG    1       -1.751   0.961  -1.647  0.00  0.00    +0.024 C 
ENDBRANCH   3   6
ENDBRANCH   1   3
BRANCH   1   8
ATOM      8  O   LIG    1        1.171   0.874   2.244  0.00  0.00    -0.314 OA
ATOM      9  C   LIG    1        2.179   1.375   3.109  0.00  0.00    +0.204 C 
ENDBRANCH   1   8
BRANCH   1  10
ATOM     10  O   LIG    1        1.681  -1.296   1.025  0.00  0.00    -0.433 OA
BRANCH  10  11
ATOM     11  C   LIG    1        2.708  -1.850   1.744  0.00  0.00    +0.147 A 
ATOM     12  C   LIG    1        2.524  -2.201   3.088  0.00  0.00    +0.084 A 
ATOM     13 CL   LIG    1        1.000  -1.954   3.864  0.00  0.00    -0.080 Cl
ATOM     14  C   LIG    1        3.576  -2.767   3.811  0.00  0.00    +0.043 A 
ATOM     15  C   LIG    1        4.807  -2.996   3.195  0.00  0.00    +0.043 A 
ATOM     16 CL   LIG    1        6.104  -3.696   4.093  0.00  0.00    -0.083 Cl
ATOM     17  C   LIG    1        4.987  -2.664   1.852  0.00  0.00    +0.023 A 
ATOM     18  C   LIG    1        3.938  -2.098   1.128  0.00  0.00    +0.049 A 
ENDBRANCH  10  11
ENDBRANCH   1  10
TORSDOF 5
