REMARK  Name = DB11681
REMARK                            x       y       z     vdW  Elec       q    Type
REMARK                         _______ _______ _______ _____ _____    ______ ____
ROOT
ATOM      1  C   LIG    1        1.801  -0.165   0.119  0.00  0.00    +0.067 A 
ATOM      2  N   LIG    1        2.511  -0.206   1.226  0.00  0.00    -0.175 NA
ATOM      3  N   LIG    1        3.800  -0.209   0.845  0.00  0.00    -0.257 N 
ATOM      4  C   LIG    1        3.920  -0.177  -0.524  0.00  0.00    +0.110 A 
ATOM      5  C   LIG    1        5.056  -0.173  -1.429  0.00  0.00    +0.183 A 
ATOM      6  N   LIG    1        4.820   0.136  -2.752  0.00  0.00    -0.305 N 
ATOM      7  C   LIG    1        3.519   0.580  -3.280  0.00  0.00    +0.130 C 
ATOM      8  C   LIG    1        2.353  -0.130  -2.521  0.00  0.00    +0.061 C 
ATOM      9  C   LIG    1        6.079   0.118  -3.319  0.00  0.00    +0.171 A 
ATOM     10  N   LIG    1        6.974  -0.259  -2.432  0.00  0.00    -0.128 NA
ATOM     11  N   LIG    1        6.322  -0.424  -1.214  0.00  0.00    -0.127 NA
ATOM     12  C   LIG    1        2.625  -0.172  -1.018  0.00  0.00    +0.006 A 
ENDROOT
BRANCH   3  13
ATOM     13  C   LIG    1        4.859  -0.249   1.865  0.00  0.00    +0.108 C 
ATOM     14  C   LIG    1        4.731   0.876   2.916  0.00  0.00    +0.027 C 
ATOM     15  C   LIG    1        4.270   0.176   4.196  0.00  0.00    +0.002 C 
ATOM     16  C   LIG    1        4.951  -1.192   4.130  0.00  0.00    +0.002 C 
ATOM     17  C   LIG    1        4.896  -1.582   2.648  0.00  0.00    +0.027 C 
ENDBRANCH   3  13
BRANCH   9  18
ATOM     18  C   LIG    1        6.391   0.444  -4.711  0.00  0.00    +0.056 A 
ATOM     19  S   LIG    1        7.705  -0.351  -5.537  0.00  0.00    -0.094 S 
ATOM     20  C   LIG    1        7.398   0.544  -6.989  0.00  0.00    +0.046 A 
ATOM     21  C   LIG    1        6.342   1.427  -6.833  0.00  0.00    +0.008 A 
ATOM     22  C   LIG    1        5.782   1.375  -5.552  0.00  0.00    +0.019 A 
ENDBRANCH   9  18
BRANCH   1  24
ATOM     23  C   LIG    1       -0.260   1.301   0.007  0.00  0.00    +0.010 C 
ATOM     24  C   LIG    1        0.287  -0.121   0.191  0.00  0.00    +0.054 C 
ENDBRANCH   1  24
TORSDOF 3
