REMARK  Name = DB11844
REMARK                            x       y       z     vdW  Elec       q    Type
REMARK                         _______ _______ _______ _____ _____    ______ ____
ROOT
ATOM      1  N   LIG    1        1.373  -0.067  -0.060  0.00  0.00    -0.253 N 
ATOM      2  C   LIG    1        2.117   0.762   0.733  0.00  0.00    +0.225 C 
ATOM      3  O   LIG    1        3.347   0.818   0.634  0.00  0.00    -0.275 OA
ATOM      4  C   LIG    1        2.054  -0.965  -1.006  0.00  0.00    +0.140 C 
ENDROOT
BRANCH   1   8
ATOM      5  C   LIG    1       -3.065   1.791  -0.093  0.00  0.00    +0.068 C 
ATOM      6  C   LIG    1       -2.095   0.630  -0.043  0.00  0.00    +0.074 A 
ATOM      7  N   LIG    1       -0.814   0.950  -0.073  0.00  0.00    -0.228 NA
ATOM      8  C   LIG    1       -0.024  -0.102  -0.040  0.00  0.00    +0.169 A 
ATOM      9  S   LIG    1       -0.863  -1.627   0.024  0.00  0.00    -0.032 S 
ATOM     10  C   LIG    1       -2.360  -0.741   0.026  0.00  0.00    +0.166 A 
BRANCH  10  11
ATOM     11  S   LIG    1       -3.979  -1.547   0.096  0.00  0.00    +0.064 S 
ATOM     12  O   LIG    1       -4.852  -0.706   0.921  0.00  0.00    -0.153 OA
ATOM     13  O   LIG    1       -3.755  -2.966   0.390  0.00  0.00    -0.153 OA
BRANCH  11  14
ATOM     14  N   LIG    1       -4.467  -1.393  -1.580  0.00  0.00    -0.203 NA
ATOM     15  H   LIG    1       -4.648  -0.435  -1.891  0.00  0.00    +0.144 HD
ATOM     16  H   LIG    1       -3.920  -1.950  -2.241  0.00  0.00    +0.144 HD
ENDBRANCH  11  14
ENDBRANCH  10  11
ENDBRANCH   1   8
BRANCH   2  17
ATOM     17  C   LIG    1        1.427   1.658   1.795  0.00  0.00    +0.131 C 
BRANCH  17  18
ATOM     18  C   LIG    1        2.358   2.128   2.912  0.00  0.00    -0.039 A 
ATOM     19  C   LIG    1        2.889   3.418   2.887  0.00  0.00    +0.005 A 
ATOM     20  C   LIG    1        3.745   3.838   3.901  0.00  0.00    +0.010 A 
ATOM     21  C   LIG    1        4.088   2.982   4.960  0.00  0.00    +0.000 A 
ATOM     22  C   LIG    1        3.550   1.686   4.964  0.00  0.00    +0.010 A 
ATOM     23  C   LIG    1        2.695   1.261   3.952  0.00  0.00    +0.005 A 
BRANCH  21  24
ATOM     24  C   LIG    1        5.008   3.431   6.055  0.00  0.00    +0.071 A 
ATOM     25  N   LIG    1        5.891   4.424   5.743  0.00  0.00    -0.255 NA
ATOM     26  C   LIG    1        6.742   4.870   6.701  0.00  0.00    +0.111 A 
ATOM     27  C   LIG    1        6.751   4.362   8.000  0.00  0.00    +0.020 A 
ATOM     28  C   LIG    1        5.842   3.355   8.323  0.00  0.00    +0.004 A 
ATOM     29  C   LIG    1        4.961   2.883   7.348  0.00  0.00    +0.028 A 
ENDBRANCH  21  24
ENDBRANCH  17  18
ENDBRANCH   2  17
TORSDOF 6
