REMARK  Name = DB11797
REMARK                            x       y       z     vdW  Elec       q    Type
REMARK                         _______ _______ _______ _____ _____    ______ ____
ROOT
ATOM      1  C   LIG    1        1.519  -0.081   0.161  0.00  0.00    +0.133 C 
ENDROOT
BRANCH   1   2
ATOM      2  N   LIG    1        1.997  -1.468   0.015  0.00  0.00    -0.308 N 
ATOM      3  H   LIG    1        1.476  -2.165   0.526  0.00  0.00    +0.149 HD
ATOM      4  C   LIG    1        3.036  -1.880  -0.733  0.00  0.00    +0.210 C 
ATOM      5  O   LIG    1        3.732  -1.130  -1.416  0.00  0.00    -0.276 OA
ATOM      6  C   LIG    1        3.337  -3.375  -0.710  0.00  0.00    +0.109 C 
ENDBRANCH   1   2
BRANCH   1   7
ATOM      7  C   LIG    1       -0.035  -0.009   0.008  0.00  0.00    +0.168 C 
BRANCH   7   8
ATOM      8  O   LIG    1       -0.437   1.351  -0.067  0.00  0.00    -0.387 OA
ATOM      9  H   LIG    1       -0.086   1.728  -0.877  0.00  0.00    +0.210 HD
ENDBRANCH   7   8
BRANCH   7  10
ATOM     10  C   LIG    1       -0.632  -0.786  -1.212  0.00  0.00    +0.175 C 
BRANCH  10  11
ATOM     11  O   LIG    1        0.028  -0.400  -2.409  0.00  0.00    -0.387 OA
ATOM     12  H   LIG    1        0.972  -0.537  -2.296  0.00  0.00    +0.210 HD
ENDBRANCH  10  11
BRANCH  10  13
ATOM     13  C   LIG    1       -2.172  -0.656  -1.405  0.00  0.00    +0.171 C 
BRANCH  13  14
ATOM     14  O   LIG    1       -2.830  -0.986  -0.192  0.00  0.00    -0.387 OA
ATOM     15  H   LIG    1       -2.539  -0.373   0.488  0.00  0.00    +0.210 HD
ENDBRANCH  13  14
BRANCH  13  16
ATOM     16  C   LIG    1       -2.733  -1.564  -2.527  0.00  0.00    +0.189 C 
BRANCH  16  17
ATOM     17  O   LIG    1       -4.079  -1.246  -2.827  0.00  0.00    -0.392 OA
ATOM     18  H   LIG    1       -4.382  -1.827  -3.528  0.00  0.00    +0.210 HD
ENDBRANCH  16  17
ENDBRANCH  13  16
ENDBRANCH  10  13
ENDBRANCH   7  10
ENDBRANCH   1   7
BRANCH   1  19
ATOM     19  C   LIG    1        2.053   0.597   1.461  0.00  0.00    +0.145 C 
BRANCH  19  20
ATOM     20  O   LIG    1        1.602  -0.123   2.598  0.00  0.00    -0.389 OA
ATOM     21  H   LIG    1        2.078  -0.956   2.639  0.00  0.00    +0.210 HD
ENDBRANCH  19  20
BRANCH  19  22
ATOM     22  C   LIG    1        3.599   0.721   1.486  0.00  0.00    +0.120 C 
BRANCH  22  23
ATOM     23  C   LIG    1        4.162   1.571   2.643  0.00  0.00    +0.242 C 
ATOM     24  O   LIG    1        4.473   2.750   2.449  0.00  0.00    -0.285 OA
BRANCH  23  25
ATOM     25  C   LIG    1        4.318   0.983   4.031  0.00  0.00    +0.373 C 
ATOM     26  O   LIG    1        4.731  -0.200   4.081  0.00  0.00    -0.242 OA
BRANCH  25  27
ATOM     27  O   LIG    1        4.009   1.722   4.995  0.00  0.00    -0.475 OA
ATOM     28  H   LIG    1        4.088   1.405   5.873  0.00  0.00    +0.295 HD
ENDBRANCH  25  27
ENDBRANCH  23  25
ENDBRANCH  22  23
ENDBRANCH  19  22
ENDBRANCH   1  19
TORSDOF 15
