REMARK  Name = DB11838
REMARK                            x       y       z     vdW  Elec       q    Type
REMARK                         _______ _______ _______ _____ _____    ______ ____
ROOT
ATOM      1  C   LIG    1        1.523  -0.166  -0.401  0.00  0.00    +0.048 A 
ATOM      2  C   LIG    1        2.313  -1.325  -0.515  0.00  0.00    +0.017 A 
ATOM      3  C   LIG    1        3.700  -1.307  -0.373  0.00  0.00    +0.050 A 
ATOM      4  C   LIG    1        4.387  -0.117  -0.109  0.00  0.00    +0.170 A 
ATOM      5  C   LIG    1        3.611   1.039   0.018  0.00  0.00    +0.179 A 
ATOM      6  O   LIG    1        4.085   2.300   0.285  0.00  0.00    -0.451 OA
ATOM      7  C   LIG    1        2.992   3.121   0.343  0.00  0.00    +0.139 A 
ATOM      8  C   LIG    1        2.987   4.497   0.603  0.00  0.00    +0.066 A 
ATOM      9  C   LIG    1        1.727   5.098   0.621  0.00  0.00    +0.114 A 
ATOM     10  N   LIG    1        0.561   4.433   0.409  0.00  0.00    -0.262 NA
ATOM     11  C   LIG    1        0.600   3.097   0.158  0.00  0.00    +0.123 A 
ATOM     12  C   LIG    1        1.810   2.383   0.109  0.00  0.00    +0.047 A 
ATOM     13  C   LIG    1        2.198   1.047  -0.115  0.00  0.00    +0.045 A 
ENDROOT
BRANCH   1  14
ATOM     14  C   LIG    1        0.036  -0.280  -0.603  0.00  0.00    +0.245 C 
ATOM     15  O   LIG    1       -0.554   0.500  -1.353  0.00  0.00    -0.270 OA
ATOM     16  N   LIG    1       -0.569  -1.260   0.099  0.00  0.00    -0.300 N 
ATOM     17  H   LIG    1       -0.010  -1.854   0.694  0.00  0.00    +0.150 HD
BRANCH  16  18
ATOM     18  C   LIG    1       -1.950  -1.487   0.077  0.00  0.00    +0.104 C 
ATOM     19  C   LIG    1       -2.502  -2.410  -0.829  0.00  0.00    +0.112 C 
ATOM     20 CL   LIG    1       -1.523  -3.293  -1.952  0.00  0.00    -0.112 Cl
ATOM     21  C   LIG    1       -3.882  -2.619  -0.825  0.00  0.00    +0.131 C 
ATOM     22  N   LIG    1       -4.662  -1.945   0.045  0.00  0.00    -0.178 NA
ATOM     23  C   LIG    1       -4.166  -1.059   0.934  0.00  0.00    +0.131 C 
ATOM     24  C   LIG    1       -2.794  -0.808   0.975  0.00  0.00    +0.112 C 
ATOM     25 CL   LIG    1       -2.186   0.333   2.127  0.00  0.00    -0.112 Cl
BRANCH  22  26
ATOM     26  O   LIG    1       -5.904  -2.152   0.029  0.00  0.00    -0.312 OA
ATOM     27  H   LIG    1       -6.333  -1.603   0.703  0.00  0.00    +0.237 HD
ENDBRANCH  22  26
ENDBRANCH  16  18
ENDBRANCH   1  14
BRANCH   4  28
ATOM     28  O   LIG    1        5.749   0.037   0.056  0.00  0.00    -0.430 OA
BRANCH  28  29
ATOM     29  C   LIG    1        6.598  -1.079  -0.188  0.00  0.00    +0.541 C 
ATOM     30  F   LIG    1        7.850  -0.644  -0.320  0.00  0.00    -0.166 F 
ATOM     31  F   LIG    1        6.549  -1.948   0.823  0.00  0.00    -0.166 F 
ENDBRANCH  28  29
ENDBRANCH   4  28
TORSDOF 5
