REMARK  Name = DB11752
REMARK                            x       y       z     vdW  Elec       q    Type
REMARK                         _______ _______ _______ _____ _____    ______ ____
ROOT
ATOM      1  C   LIG    1       -0.049   3.838   0.348  0.00  0.00    -0.017 C 
ATOM      2  C   LIG    1       -0.683   4.654   1.218  0.00  0.00    +0.001 C 
ATOM      3  C   LIG    1       -1.107   6.102   0.977  0.00  0.00    +0.145 C 
ATOM      4  O   LIG    1       -2.532   6.169   0.928  0.00  0.00    -0.369 OA
ATOM      5  C   LIG    1       -3.084   7.485   0.816  0.00  0.00    +0.128 C 
ATOM      6  C   LIG    1       -4.636   7.404   0.768  0.00  0.00    +0.097 C 
ATOM      7  C   LIG    1       -5.400   7.066   2.082  0.00  0.00    +0.178 C 
ATOM      8  C   LIG    1       -5.710   8.286   3.046  0.00  0.00    +0.056 C 
ATOM      9  C   LIG    1       -6.513   9.392   2.299  0.00  0.00    +0.020 C 
ATOM     10  C   LIG    1       -4.419   8.888   3.668  0.00  0.00    +0.020 C 
ATOM     11  C   LIG    1       -6.591   7.724   4.214  0.00  0.00    +0.190 C 
ATOM     12  C   LIG    1       -7.853   6.995   3.711  0.00  0.00    +0.077 C 
ATOM     13  C   LIG    1       -7.522   5.982   2.596  0.00  0.00    +0.128 C 
ATOM     14  C   LIG    1       -8.807   5.453   1.915  0.00  0.00    +0.063 C 
ATOM     15  C   LIG    1       -8.656   4.438   0.752  0.00  0.00    +0.128 C 
ATOM     16  C   LIG    1       -8.040   3.061   1.129  0.00  0.00    +0.152 C 
ATOM     17  C   LIG    1       -6.523   2.900   0.953  0.00  0.00    +0.310 C 
ATOM     18  O   LIG    1       -5.727   3.481   1.688  0.00  0.00    -0.251 OA
ATOM     19  O   LIG    1       -6.208   2.055  -0.068  0.00  0.00    -0.459 OA
ATOM     20  C   LIG    1       -4.866   1.711  -0.457  0.00  0.00    +0.207 C 
ATOM     21  C   LIG    1       -4.083   1.008   0.689  0.00  0.00    +0.079 C 
ATOM     22  C   LIG    1       -2.672   0.503   0.323  0.00  0.00    +0.129 C 
ATOM     23  C   LIG    1       -2.188  -0.588   1.311  0.00  0.00    +0.066 C 
ATOM     24  C   LIG    1       -0.674  -0.821   1.226  0.00  0.00    -0.015 C 
ATOM     25  C   LIG    1        0.065  -1.507   2.137  0.00  0.00    +0.094 C 
ATOM     26  C   LIG    1       -0.070  -0.165  -0.025  0.00  0.00    +0.263 C 
ATOM     27  C   LIG    1       -0.453   1.361  -0.135  0.00  0.00    +0.218 C 
ATOM     28  O   LIG    1       -1.743   1.587   0.408  0.00  0.00    -0.341 OA
ATOM     29  O   LIG    1       -6.625   6.535   1.622  0.00  0.00    -0.345 OA
ATOM     30  C   LIG    1       -2.551   8.165  -0.470  0.00  0.00    +0.062 C 
ATOM     31  C   LIG    1       -1.028   8.154  -0.457  0.00  0.00    -0.058 C 
ATOM     32  C   LIG    1       -0.312   9.302  -0.547  0.00  0.00    +0.091 C 
ATOM     33  C   LIG    1       -0.512   6.721  -0.314  0.00  0.00    +0.067 C 
ATOM     34  C   LIG    1        0.483   2.412   0.597  0.00  0.00    +0.041 C 
ATOM     35  C   LIG    1        0.553   2.083   2.115  0.00  0.00    +0.021 C 
ATOM     36  C   LIG    1        1.944   2.392   0.063  0.00  0.00    +0.021 C 
ENDROOT
BRANCH   7  37
ATOM     37  O   LIG    1       -4.667   6.113   2.761  0.00  0.00    -0.364 OA
ATOM     38  H   LIG    1       -4.378   5.457   2.122  0.00  0.00    +0.213 HD
ENDBRANCH   7  37
BRANCH  15  39
ATOM     39  O   LIG    1       -8.040   5.038  -0.376  0.00  0.00    -0.391 OA
ATOM     40  H   LIG    1       -8.020   4.398  -1.091  0.00  0.00    +0.210 HD
ENDBRANCH  15  39
BRANCH  20  41
ATOM     41  C   LIG    1       -4.119   2.843  -1.223  0.00  0.00    +0.152 C 
ATOM     42  C   LIG    1       -4.949   3.485  -2.348  0.00  0.00    +0.041 C 
BRANCH  41  43
ATOM     43  O   LIG    1       -3.653   3.859  -0.363  0.00  0.00    -0.388 OA
ATOM     44  H   LIG    1       -3.105   3.459   0.317  0.00  0.00    +0.210 HD
ENDBRANCH  41  43
ENDBRANCH  20  41
BRANCH  25  45
ATOM     45  C   LIG    1       -0.432  -2.173   3.342  0.00  0.00    +0.332 C 
ATOM     46  O   LIG    1       -1.626  -2.327   3.613  0.00  0.00    -0.246 OA
BRANCH  45  47
ATOM     47  O   LIG    1        0.585  -2.623   4.111  0.00  0.00    -0.465 OA
ATOM     48  C   LIG    1        0.330  -3.316   5.324  0.00  0.00    +0.280 C 
ENDBRANCH  45  47
ENDBRANCH  25  45
BRANCH  27  49
ATOM     49  O   LIG    1       -0.473   1.648  -1.483  0.00  0.00    -0.361 OA
ATOM     50  H   LIG    1       -0.681   2.580  -1.580  0.00  0.00    +0.213 HD
ENDBRANCH  27  49
BRANCH  32  51
ATOM     51  C   LIG    1        1.144   9.455  -0.516  0.00  0.00    +0.332 C 
ATOM     52  O   LIG    1        1.937   8.574  -0.179  0.00  0.00    -0.246 OA
BRANCH  51  53
ATOM     53  O   LIG    1        1.511  10.707  -0.872  0.00  0.00    -0.465 OA
ATOM     54  C   LIG    1        2.881  11.085  -0.901  0.00  0.00    +0.280 C 
ENDBRANCH  51  53
ENDBRANCH  32  51
BRANCH  11  55
ATOM     55  O   LIG    1       -6.947   8.736   5.165  0.00  0.00    -0.461 OA
BRANCH  55  56
ATOM     56  C   LIG    1       -7.189   8.451   6.465  0.00  0.00    +0.304 C 
ATOM     57  O   LIG    1       -7.140   7.338   6.991  0.00  0.00    -0.251 OA
ATOM     58  C   LIG    1       -7.550   9.693   7.269  0.00  0.00    +0.136 C 
ENDBRANCH  55  56
ENDBRANCH  11  55
BRANCH  26  59
ATOM     59  O   LIG    1        1.313  -0.499  -0.203  0.00  0.00    -0.448 OA
BRANCH  59  60
ATOM     60  C   LIG    1        1.845  -0.813  -1.412  0.00  0.00    +0.333 C 
ATOM     61  O   LIG    1        1.213  -0.853  -2.471  0.00  0.00    -0.246 OA
BRANCH  60  62
ATOM     62  C   LIG    1        3.271  -1.096  -1.309  0.00  0.00    +0.091 C 
ATOM     63  C   LIG    1        4.042  -1.372  -2.383  0.00  0.00    +0.007 C 
BRANCH  63  64
ATOM     64  C   LIG    1        5.468  -1.648  -2.320  0.00  0.00    -0.004 C 
ATOM     65  C   LIG    1        6.322  -1.077  -1.449  0.00  0.00    -0.027 C 
BRANCH  65  66
ATOM     66  C   LIG    1        7.808  -1.378  -1.378  0.00  0.00    +0.027 C 
BRANCH  66  67
ATOM     67  C   LIG    1        8.260  -2.011  -0.050  0.00  0.00    +0.001 C 
ATOM     68  C   LIG    1        7.688  -3.417   0.191  0.00  0.00    +0.004 C 
ENDBRANCH  66  67
ENDBRANCH  65  66
ENDBRANCH  63  64
ENDBRANCH  60  62
ENDBRANCH  59  60
ENDBRANCH  26  59
TORSDOF 17
