REMARK  Name = DB11205
REMARK                            x       y       z     vdW  Elec       q    Type
REMARK                         _______ _______ _______ _____ _____    ______ ____
ROOT
ATOM      1  C   LIG    1       -0.029   0.176  -0.155  0.00  0.00    +0.251 C 
ATOM      2  N   LIG    1       -0.534  -0.499   1.011  0.00  0.00    -0.273 N 
ATOM      3  H   LIG    1       -0.456  -1.494   1.160  0.00  0.00    +0.153 HD
ATOM      4  C   LIG    1       -1.114   0.365   1.851  0.00  0.00    +0.308 C 
ATOM      5  O   LIG    1       -1.586   0.035   2.936  0.00  0.00    -0.252 OA
ATOM      6  N   LIG    1       -1.101   1.567   1.332  0.00  0.00    -0.237 N 
ATOM      7  H   LIG    1       -1.441   2.372   1.785  0.00  0.00    +0.159 HD
ATOM      8  C   LIG    1       -0.578   1.560   0.136  0.00  0.00    +0.259 C 
ATOM      9  O   LIG    1       -0.515   2.494  -0.664  0.00  0.00    -0.271 OA
ENDROOT
BRANCH   1  10
ATOM     10  N   LIG    1        1.432   0.254  -0.241  0.00  0.00    -0.273 N 
ATOM     11  H   LIG    1        1.862   1.051   0.204  0.00  0.00    +0.152 HD
ATOM     12  C   LIG    1        2.221  -0.737  -0.684  0.00  0.00    +0.299 C 
ATOM     13  N   LIG    1        3.517  -0.445  -0.568  0.00  0.00    -0.313 N 
ATOM     14  H   LIG    1        3.809   0.437  -0.173  0.00  0.00    +0.146 HD
ATOM     15  H   LIG    1        4.212  -1.111  -0.870  0.00  0.00    +0.146 HD
ATOM     16  O   LIG    1        1.820  -1.801  -1.152  0.00  0.00    -0.253 OA
ENDBRANCH   1  10
TORSDOF 1
