REMARK  Name = DB11973
REMARK                            x       y       z     vdW  Elec       q    Type
REMARK                         _______ _______ _______ _____ _____    ______ ____
ROOT
ATOM      1  C   LIG    1        1.266   0.218  -0.421  0.00  0.00    +0.164 A 
ATOM      2  C   LIG    1        1.994  -0.974  -0.323  0.00  0.00    +0.162 A 
ATOM      3  C   LIG    1        3.387  -0.961  -0.495  0.00  0.00    +0.062 A 
ATOM      4  C   LIG    1        4.080   0.248  -0.769  0.00  0.00    +0.044 A 
ATOM      5  C   LIG    1        5.494   0.361  -0.962  0.00  0.00    +0.134 A 
ATOM      6  N   LIG    1        6.083   1.555  -1.222  0.00  0.00    -0.220 NA
ATOM      7  C   LIG    1        5.274   2.637  -1.289  0.00  0.00    +0.223 A 
ATOM      8  N   LIG    1        3.930   2.655  -1.125  0.00  0.00    -0.235 NA
ATOM      9  C   LIG    1        3.331   1.459  -0.865  0.00  0.00    +0.080 A 
ATOM     10  C   LIG    1        1.930   1.425  -0.689  0.00  0.00    +0.078 A 
ENDROOT
BRANCH   2  11
ATOM     11  O   LIG    1        1.272  -2.124  -0.053  0.00  0.00    -0.491 OA
ATOM     12  C   LIG    1        1.950  -3.372   0.063  0.00  0.00    +0.277 C 
ENDBRANCH   2  11
BRANCH   5  13
ATOM     13  N   LIG    1        6.299  -0.794  -0.889  0.00  0.00    -0.297 N 
ATOM     14  H   LIG    1        5.756  -1.626  -0.712  0.00  0.00    +0.154 HD
BRANCH  13  15
ATOM     15  C   LIG    1        7.677  -1.073  -1.003  0.00  0.00    +0.070 A 
ATOM     16  C   LIG    1        8.074  -2.416  -0.910  0.00  0.00    +0.164 A 
ATOM     17  F   LIG    1        7.145  -3.385  -0.715  0.00  0.00    -0.202 F 
ATOM     18  C   LIG    1        9.422  -2.775  -1.018  0.00  0.00    +0.096 A 
ATOM     19 CL   LIG    1        9.870  -4.444  -0.900  0.00  0.00    -0.079 Cl
ATOM     20  C   LIG    1       10.391  -1.785  -1.220  0.00  0.00    +0.062 A 
ATOM     21 CL   LIG    1       12.070  -2.179  -1.359  0.00  0.00    -0.082 Cl
ATOM     22  C   LIG    1       10.005  -0.449  -1.311  0.00  0.00    +0.023 A 
ATOM     23  C   LIG    1        8.662  -0.094  -1.204  0.00  0.00    +0.028 A 
ENDBRANCH  13  15
ENDBRANCH   5  13
BRANCH   1  24
ATOM     24  O   LIG    1       -0.103   0.127  -0.241  0.00  0.00    -0.488 OA
BRANCH  24  25
ATOM     25  C   LIG    1       -0.909   1.301  -0.307  0.00  0.00    +0.232 C 
BRANCH  25  32
ATOM     26  C   LIG    1       -5.378   3.077   4.290  0.00  0.00    -0.096 C 
ATOM     27  N   LIG    1       -5.341   2.160   3.054  0.00  0.00    +0.378 N 
ATOM     28  H   LIG    1       -6.255   1.741   2.950  0.00  0.00    -0.082 HD
ATOM     29  C   LIG    1       -4.290   1.044   3.146  0.00  0.00    -0.076 C 
ATOM     30  C   LIG    1       -4.078   0.599   1.690  0.00  0.00    -0.026 C 
ATOM     31  C   LIG    1       -2.619   0.284   1.316  0.00  0.00    +0.008 C 
ATOM     32  C   LIG    1       -2.382   0.915  -0.065  0.00  0.00    +0.027 C 
ATOM     33  C   LIG    1       -3.324   2.128  -0.096  0.00  0.00    +0.008 C 
ATOM     34  C   LIG    1       -4.521   1.771   0.804  0.00  0.00    -0.026 C 
ATOM     35  C   LIG    1       -4.976   2.891   1.752  0.00  0.00    -0.076 C 
ENDBRANCH  25  32
ENDBRANCH  24  25
ENDBRANCH   1  24
TORSDOF 6
