REMARK  Name = DB11694
REMARK                            x       y       z     vdW  Elec       q    Type
REMARK                         _______ _______ _______ _____ _____    ______ ____
ROOT
ATOM      1  C   LIG    1       -2.769   2.194   0.311  0.00  0.00    +0.000 A 
ATOM      2  C   LIG    1       -2.061   0.992  -0.060  0.00  0.00    +0.037 A 
ATOM      3  C   LIG    1       -2.518  -0.255  -0.559  0.00  0.00    +0.125 A 
ATOM      4  N   LIG    1       -1.683  -1.282  -0.831  0.00  0.00    -0.239 NA
ATOM      5  C   LIG    1       -0.356  -1.123  -0.642  0.00  0.00    +0.122 A 
ATOM      6  C   LIG    1        0.239   0.053  -0.188  0.00  0.00    +0.018 A 
ATOM      7  C   LIG    1       -0.639   1.122   0.109  0.00  0.00    +0.032 A 
ATOM      8  S   LIG    1       -0.217   2.720   0.717  0.00  0.00    -0.095 S 
ATOM      9  C   LIG    1       -1.891   3.179   0.715  0.00  0.00    +0.055 A 
ENDROOT
BRANCH   1  13
ATOM     10  C   LIG    1       -7.003   2.841   0.229  0.00  0.00    +0.035 A 
ATOM     11  C   LIG    1       -6.460   1.852   1.064  0.00  0.00    +0.024 A 
ATOM     12  C   LIG    1       -5.084   1.644   1.091  0.00  0.00    +0.010 A 
ATOM     13  C   LIG    1       -4.242   2.416   0.289  0.00  0.00    -0.017 A 
ATOM     14  C   LIG    1       -4.778   3.418  -0.521  0.00  0.00    +0.010 A 
ATOM     15  C   LIG    1       -6.154   3.631  -0.549  0.00  0.00    +0.024 A 
BRANCH  10  19
ATOM     16  N   LIG    1      -10.581   3.012   0.233  0.00  0.00    -0.269 N 
ATOM     17  H   LIG    1      -10.494   3.990  -0.001  0.00  0.00    +0.156 HD
ATOM     18  C   LIG    1       -9.429   2.342   0.443  0.00  0.00    +0.308 C 
ATOM     19  N   LIG    1       -8.378   3.128   0.133  0.00  0.00    -0.269 N 
ATOM     20  H   LIG    1       -8.591   4.019  -0.291  0.00  0.00    +0.156 HD
ATOM     21  O   LIG    1       -9.348   1.182   0.850  0.00  0.00    -0.252 OA
BRANCH  16  27
ATOM     22  C   LIG    1      -14.247   3.189   0.469  0.00  0.00    +0.005 A 
ATOM     23  C   LIG    1      -14.615   1.846   0.525  0.00  0.00    +0.038 A 
ATOM     24  C   LIG    1      -13.636   0.854   0.482  0.00  0.00    +0.125 A 
ATOM     25  F   LIG    1      -13.995  -0.449   0.525  0.00  0.00    -0.205 F 
ATOM     26  C   LIG    1      -12.288   1.203   0.389  0.00  0.00    +0.061 A 
ATOM     27  C   LIG    1      -11.908   2.556   0.344  0.00  0.00    +0.037 A 
ATOM     28  C   LIG    1      -12.901   3.542   0.375  0.00  0.00    +0.023 A 
ENDBRANCH  16  27
ENDBRANCH  10  19
ENDBRANCH   1  13
BRANCH   6  29
ATOM     29  C   LIG    1        1.726   0.106  -0.051  0.00  0.00    +0.022 A 
ATOM     30  C   LIG    1        2.590   1.166  -0.290  0.00  0.00    +0.117 A 
ATOM     31  N   LIG    1        3.855   0.702  -0.041  0.00  0.00    -0.269 N 
ATOM     32  N   LIG    1        3.859  -0.574   0.362  0.00  0.00    -0.179 NA
ATOM     33  C   LIG    1        2.594  -0.928   0.340  0.00  0.00    +0.143 A 
BRANCH  31  34
ATOM     34  C   LIG    1        5.109   1.448  -0.101  0.00  0.00    +0.171 C 
BRANCH  34  35
ATOM     35  C   LIG    1        5.455   2.140   1.233  0.00  0.00    +0.179 C 
BRANCH  35  36
ATOM     36  O   LIG    1        5.681   1.206   2.269  0.00  0.00    -0.393 OA
ATOM     37  H   LIG    1        5.864   1.686   3.080  0.00  0.00    +0.209 HD
ENDBRANCH  35  36
ENDBRANCH  34  35
ENDBRANCH  31  34
ENDBRANCH   6  29
BRANCH   3  38
ATOM     38  N   LIG    1       -3.866  -0.504  -0.821  0.00  0.00    -0.343 N 
ATOM     39  H   LIG    1       -4.140  -1.407  -1.183  0.00  0.00    +0.144 HD
ATOM     40  H   LIG    1       -4.552   0.215  -0.638  0.00  0.00    +0.144 HD
ENDBRANCH   3  38
TORSDOF 8
