REMARK  Name = DB11684
REMARK                            x       y       z     vdW  Elec       q    Type
REMARK                         _______ _______ _______ _____ _____    ______ ____
ROOT
ATOM      1  C   LIG    1        1.504   0.023   0.006  0.00  0.00    +0.127 C 
ATOM      2  N   LIG    1        2.034  -1.391  -0.003  0.00  0.00    -0.287 NA
ATOM      3  C   LIG    1        1.615  -2.100  -1.236  0.00  0.00    +0.086 C 
ATOM      4  C   LIG    1        2.114  -1.359  -2.515  0.00  0.00    +0.026 C 
ATOM      5  C   LIG    1        2.928  -0.069  -2.185  0.00  0.00    +0.060 C 
ATOM      6  C   LIG    1        4.064  -0.648  -1.286  0.00  0.00    +0.026 C 
ATOM      7  C   LIG    1        3.516  -1.401  -0.034  0.00  0.00    +0.086 C 
ATOM      8  C   LIG    1        2.034   0.788  -1.262  0.00  0.00    +0.161 C 
ATOM      9  O   LIG    1        1.775   1.966  -1.514  0.00  0.00    -0.295 OA
ENDROOT
BRANCH   1  10
ATOM     10  C   LIG    1       -0.062   0.045  -0.069  0.00  0.00    +0.191 C 
BRANCH  10  12
ATOM     11  C   LIG    1       -2.012   1.405   0.091  0.00  0.00    +0.194 C 
ATOM     12  O   LIG    1       -0.594   1.352   0.133  0.00  0.00    -0.381 OA
ENDBRANCH  10  12
ENDBRANCH   1  10
BRANCH   1  13
ATOM     13  C   LIG    1        2.014   0.833   1.248  0.00  0.00    +0.188 C 
BRANCH  13  14
ATOM     14  O   LIG    1        1.566   0.273   2.469  0.00  0.00    -0.393 OA
ATOM     15  H   LIG    1        1.879   0.824   3.191  0.00  0.00    +0.209 HD
ENDBRANCH  13  14
ENDBRANCH   1  13
TORSDOF 4
