REMARK  Name = DB11619
REMARK                            x       y       z     vdW  Elec       q    Type
REMARK                         _______ _______ _______ _____ _____    ______ ____
ROOT
ATOM      1  C   LIG    1       -0.619  -0.996  -1.147  0.00  0.00    +0.135 C 
ATOM      2  C   LIG    1       -0.278  -2.372  -0.494  0.00  0.00    +0.049 C 
ATOM      3  C   LIG    1       -0.172  -2.156   1.034  0.00  0.00    +0.009 C 
ATOM      4  C   LIG    1       -0.498  -0.670   1.231  0.00  0.00    +0.010 C 
ATOM      5  C   LIG    1       -0.065   0.065   2.523  0.00  0.00    +0.024 C 
ATOM      6  C   LIG    1       -0.578  -0.616   3.808  0.00  0.00    +0.013 C 
ATOM      7  C   LIG    1       -0.183   0.190   5.049  0.00  0.00    +0.036 C 
ATOM      8  C   LIG    1       -0.680   1.628   4.928  0.00  0.00    -0.041 C 
ATOM      9  C   LIG    1       -0.979   2.304   6.063  0.00  0.00    +0.050 C 
ATOM     10  C   LIG    1       -1.433   3.683   6.106  0.00  0.00    +0.157 C 
ATOM     11  C   LIG    1       -1.135   4.489   4.840  0.00  0.00    +0.083 C 
ATOM     12  C   LIG    1       -1.388   3.687   3.541  0.00  0.00    +0.043 C 
ATOM     13  O   LIG    1       -1.890   4.196   7.126  0.00  0.00    -0.293 OA
ATOM     14  C   LIG    1       -0.853   2.239   3.590  0.00  0.00    -0.040 C 
ATOM     15  C   LIG    1       -0.573   1.534   2.452  0.00  0.00    -0.041 C 
ATOM     16  C   LIG    1       -0.813   2.101   1.111  0.00  0.00    +0.000 C 
ATOM     17  C   LIG    1       -0.595   1.443  -0.047  0.00  0.00    -0.016 C 
ATOM     18  C   LIG    1       -0.025   0.019  -0.091  0.00  0.00    +0.032 C 
ENDROOT
BRANCH   1  19
ATOM     19  O   LIG    1       -0.057  -0.903  -2.444  0.00  0.00    -0.376 OA
ATOM     20  H   LIG    1       -0.179  -0.006  -2.763  0.00  0.00    +0.211 HD
ENDBRANCH   1  19
BRANCH   1  21
ATOM     21  C   LIG    1       -2.087  -0.872  -1.365  0.00  0.00    -0.070 C 
ATOM     22  C   LIG    1       -3.293  -0.760  -1.526  0.00  0.00    +0.007 C 
ENDBRANCH   1  21
BRANCH  18  23
ATOM     23  C   LIG    1        1.553   0.115  -0.239  0.00  0.00    +0.012 C 
ATOM     24  C   LIG    1        2.311   1.322   0.362  0.00  0.00    +0.005 C 
ENDBRANCH  18  23
TORSDOF 3
