REMARK  Name = DB11794
REMARK                            x       y       z     vdW  Elec       q    Type
REMARK                         _______ _______ _______ _____ _____    ______ ____
ROOT
ATOM      1  C   LIG    1       -0.925  -1.357   0.119  0.00  0.00    +0.146 A 
ATOM      2  N   LIG    1       -2.280  -1.272   0.141  0.00  0.00    -0.236 NA
ATOM      3  C   LIG    1       -2.839  -0.036   0.113  0.00  0.00    +0.141 A 
ATOM      4  C   LIG    1       -2.060   1.126   0.062  0.00  0.00    +0.090 A 
ATOM      5  N   LIG    1       -0.701   1.032   0.032  0.00  0.00    -0.239 NA
ATOM      6  C   LIG    1       -0.122  -0.201   0.064  0.00  0.00    +0.149 A 
ENDROOT
BRANCH   4   7
ATOM      7  C   LIG    1       -2.654   2.495   0.028  0.00  0.00    +0.002 A 
ATOM      8  C   LIG    1       -2.034   3.536  -0.680  0.00  0.00    +0.012 A 
ATOM      9  C   LIG    1       -2.596   4.809  -0.713  0.00  0.00    +0.027 A 
ATOM     10  C   LIG    1       -3.786   5.059  -0.030  0.00  0.00    +0.088 A 
ATOM     11  C   LIG    1       -4.414   4.037   0.680  0.00  0.00    +0.027 A 
ATOM     12  C   LIG    1       -3.850   2.765   0.706  0.00  0.00    +0.012 A 
BRANCH  10  13
ATOM     13  S   LIG    1       -4.512   6.698  -0.079  0.00  0.00    -0.001 S 
ATOM     14  O   LIG    1       -3.402   7.652  -0.177  0.00  0.00    -0.169 OA
ATOM     15  O   LIG    1       -5.466   6.795   1.033  0.00  0.00    -0.169 OA
BRANCH  13  16
ATOM     16  C   LIG    1       -5.476   6.727  -1.718  0.00  0.00    +0.130 C 
ATOM     17  C   LIG    1       -6.576   5.650  -1.705  0.00  0.00    +0.032 C 
ATOM     18  C   LIG    1       -6.043   8.139  -1.935  0.00  0.00    +0.032 C 
ENDBRANCH  13  16
ENDBRANCH  10  13
ENDBRANCH   4   7
BRANCH   6  19
ATOM     19  C   LIG    1        1.376  -0.154   0.045  0.00  0.00    +0.189 A 
ATOM     20  C   LIG    1        2.301   0.873   0.044  0.00  0.00    +0.083 A 
ATOM     21  C   LIG    1        3.560   0.265   0.029  0.00  0.00    +0.114 A 
ATOM     22  N   LIG    1        3.435  -1.048   0.013  0.00  0.00    -0.078 NA
ATOM     23  O   LIG    1        2.067  -1.321   0.023  0.00  0.00    -0.352 OA
BRANCH  21  24
ATOM     24  C   LIG    1        4.906   0.931   0.030  0.00  0.00    +0.004 A 
ATOM     25  C   LIG    1        6.077   0.197  -0.203  0.00  0.00    +0.010 A 
ATOM     26  C   LIG    1        7.319   0.825  -0.196  0.00  0.00    +0.002 A 
ATOM     27  C   LIG    1        7.404   2.198   0.039  0.00  0.00    -0.064 A 
ATOM     28  C   LIG    1        6.245   2.937   0.279  0.00  0.00    +0.002 A 
ATOM     29  C   LIG    1        5.003   2.307   0.272  0.00  0.00    +0.010 A 
BRANCH  27  30
ATOM     30  C   LIG    1        8.761   2.881   0.064  0.00  0.00    -0.047 C 
BRANCH  30  31
ATOM     31  N   LIG    1        9.198   3.386  -1.319  0.00  0.00    +0.380 N 
ATOM     32  H   LIG    1        8.499   4.029  -1.666  0.00  0.00    -0.086 HD
ATOM     33  H   LIG    1        9.234   2.601  -1.954  0.00  0.00    -0.086 HD
ATOM     34  C   LIG    1       10.563   4.088  -1.315  0.00  0.00    -0.100 C 
ENDBRANCH  30  31
ENDBRANCH  27  30
ENDBRANCH  21  24
ENDBRANCH   6  19
BRANCH   1  35
ATOM     35  N   LIG    1       -0.395  -2.647   0.159  0.00  0.00    -0.341 N 
ATOM     36  H   LIG    1       -1.020  -3.440   0.205  0.00  0.00    +0.144 HD
ATOM     37  H   LIG    1        0.607  -2.773   0.144  0.00  0.00    +0.144 HD
ENDBRANCH   1  35
TORSDOF 8
