REMARK  Name = DB11987
REMARK                            x       y       z     vdW  Elec       q    Type
REMARK                         _______ _______ _______ _____ _____    ______ ____
ROOT
ATOM      1  C   LIG    1        1.474   0.059   0.014  0.00  0.00    +0.260 A 
ATOM      2  O   LIG    1        2.080   1.272   0.014  0.00  0.00    -0.332 OA
ATOM      3  N   LIG    1        3.441   0.992   0.111  0.00  0.00    -0.056 NA
ATOM      4  C   LIG    1        3.487  -0.326   0.161  0.00  0.00    +0.203 A 
ATOM      5  N   LIG    1        2.316  -0.936   0.099  0.00  0.00    -0.187 NA
ENDROOT
BRANCH   4   6
ATOM      6  C   LIG    1        4.787  -1.080   0.266  0.00  0.00    +0.032 A 
ATOM      7  C   LIG    1        4.857  -2.436   0.673  0.00  0.00    +0.011 A 
ATOM      8  C   LIG    1        3.891  -3.417   1.084  0.00  0.00    +0.028 A 
ATOM      9  C   LIG    1        4.574  -4.574   1.372  0.00  0.00    +0.087 A 
ATOM     10  N   LIG    1        5.918  -4.394   1.152  0.00  0.00    -0.347 N 
ATOM     11  C   LIG    1        6.135  -3.085   0.740  0.00  0.00    +0.050 A 
ATOM     12  C   LIG    1        7.322  -2.416   0.421  0.00  0.00    +0.026 A 
ATOM     13  C   LIG    1        7.219  -1.083   0.035  0.00  0.00    +0.003 A 
ATOM     14  C   LIG    1        5.992  -0.434  -0.042  0.00  0.00    +0.012 A 
BRANCH  10  15
ATOM     15  C   LIG    1        6.935  -5.417   1.391  0.00  0.00    +0.122 C 
BRANCH  15  16
ATOM     16  C   LIG    1        7.354  -5.479   2.876  0.00  0.00    +0.033 C 
BRANCH  16  17
ATOM     17  C   LIG    1        8.001  -4.175   3.419  0.00  0.00    +0.122 C 
BRANCH  17  18
ATOM     18  C   LIG    1        8.584  -4.283   4.849  0.00  0.00    +0.305 C 
ATOM     19  O   LIG    1        9.355  -3.362   5.202  0.00  0.00    -0.251 OA
BRANCH  18  20
ATOM     20  O   LIG    1        8.254  -5.240   5.588  0.00  0.00    -0.481 OA
ATOM     21  H   LIG    1        7.673  -5.901   5.267  0.00  0.00    +0.295 HD
ENDBRANCH  18  20
ENDBRANCH  17  18
ENDBRANCH  16  17
ENDBRANCH  15  16
ENDBRANCH  10  15
ENDBRANCH   4   6
BRANCH   1  25
ATOM     22  C   LIG    1       -2.776  -0.201  -0.247  0.00  0.00    +0.234 A 
ATOM     23  N   LIG    1       -2.034  -1.345  -0.203  0.00  0.00    -0.219 NA
ATOM     24  C   LIG    1       -0.684  -1.234  -0.122  0.00  0.00    +0.128 A 
ATOM     25  C   LIG    1       -0.015  -0.006  -0.078  0.00  0.00    +0.059 A 
ATOM     26  C   LIG    1       -0.793   1.158  -0.124  0.00  0.00    +0.040 A 
ATOM     27  C   LIG    1       -2.184   1.066  -0.209  0.00  0.00    +0.103 A 
ATOM     28 CL   LIG    1       -3.141   2.504  -0.264  0.00  0.00    -0.078 Cl
BRANCH  22  29
ATOM     29  O   LIG    1       -4.157  -0.298  -0.321  0.00  0.00    -0.473 OA
BRANCH  29  31
ATOM     30  C   LIG    1       -6.278  -1.382  -0.470  0.00  0.00    +0.051 C 
ATOM     31  C   LIG    1       -4.829  -1.517   0.019  0.00  0.00    +0.169 C 
ATOM     32  C   LIG    1       -4.760  -1.785   1.536  0.00  0.00    +0.051 C 
ENDBRANCH  29  31
ENDBRANCH  22  29
ENDBRANCH   1  25
TORSDOF 9
