REMARK  Name = DB11665
REMARK                            x       y       z     vdW  Elec       q    Type
REMARK                         _______ _______ _______ _____ _____    ______ ____
ROOT
ATOM      1  C   LIG    1        1.742   0.452   0.653  0.00  0.00    +0.151 A 
ATOM      2  N   LIG    1        2.496   1.452   0.124  0.00  0.00    -0.217 NA
ATOM      3  C   LIG    1        3.832   1.258   0.049  0.00  0.00    +0.245 A 
ATOM      4  N   LIG    1        4.525   0.164   0.445  0.00  0.00    -0.155 NA
ATOM      5  N   LIG    1        3.740  -0.801   0.958  0.00  0.00    -0.235 N 
ATOM      6  C   LIG    1        4.184  -2.009   1.430  0.00  0.00    +0.113 A 
ATOM      7  C   LIG    1        3.081  -2.724   1.869  0.00  0.00    +0.027 A 
ATOM      8  C   LIG    1        1.912  -1.989   1.694  0.00  0.00    -0.003 A 
ATOM      9  C   LIG    1        2.333  -0.753   1.104  0.00  0.00    +0.110 A 
ENDROOT
BRANCH   1  10
ATOM     10  N   LIG    1        0.348   0.601   0.746  0.00  0.00    -0.298 N 
ATOM     11  H   LIG    1       -0.120  -0.254   1.009  0.00  0.00    +0.154 HD
BRANCH  10  14
ATOM     12  C   LIG    1       -1.079   4.039   0.276  0.00  0.00    +0.122 A 
ATOM     13  C   LIG    1       -0.139   3.014   0.481  0.00  0.00    +0.069 A 
ATOM     14  C   LIG    1       -0.537   1.670   0.521  0.00  0.00    +0.036 A 
ATOM     15  C   LIG    1       -1.891   1.359   0.374  0.00  0.00    +0.023 A 
ATOM     16  C   LIG    1       -2.831   2.367   0.170  0.00  0.00    +0.005 A 
ATOM     17  C   LIG    1       -2.423   3.698   0.119  0.00  0.00    +0.046 A 
BRANCH  12  19
ATOM     18  C   LIG    1        0.587   5.793   0.360  0.00  0.00    +0.277 C 
ATOM     19  O   LIG    1       -0.770   5.385   0.221  0.00  0.00    -0.495 OA
ENDBRANCH  12  19
ENDBRANCH  10  14
ENDBRANCH   1  10
BRANCH   8  20
ATOM     20  C   LIG    1        0.500  -2.424   2.046  0.00  0.00    +0.122 C 
BRANCH  20  21
ATOM     21  N   LIG    1       -0.164  -1.486   2.954  0.00  0.00    -0.296 NA
ATOM     22  C   LIG    1       -1.622  -1.671   2.944  0.00  0.00    +0.114 C 
ATOM     23  C   LIG    1       -2.337  -0.574   3.764  0.00  0.00    +0.114 C 
ATOM     24  C   LIG    1       -1.785  -0.513   5.212  0.00  0.00    -0.044 C 
ATOM     25  C   LIG    1       -0.243  -0.445   5.214  0.00  0.00    +0.002 C 
ATOM     26  C   LIG    1        0.389  -1.530   4.316  0.00  0.00    +0.083 C 
BRANCH  24  27
ATOM     27  N   LIG    1       -2.341   0.721   5.946  0.00  0.00    +0.382 N 
ATOM     28  H   LIG    1       -3.351   0.693   5.958  0.00  0.00    -0.090 HD
ATOM     29  H   LIG    1       -2.003   0.745   6.897  0.00  0.00    -0.090 HD
ATOM     30  H   LIG    1       -2.048   1.565   5.474  0.00  0.00    -0.090 HD
ENDBRANCH  24  27
BRANCH  23  31
ATOM     31  O   LIG    1       -3.745  -0.706   3.692  0.00  0.00    -0.392 OA
ATOM     32  H   LIG    1       -4.031  -1.338   4.356  0.00  0.00    +0.210 HD
ENDBRANCH  23  31
ENDBRANCH  20  21
ENDBRANCH   8  20
TORSDOF 7
