REMARK  Name = DB11632
REMARK                            x       y       z     vdW  Elec       q    Type
REMARK                         _______ _______ _______ _____ _____    ______ ____
ROOT
ATOM      1  C   LIG    1       -1.980  -0.361   0.230  0.00  0.00    +0.183 A 
ATOM      2  N   LIG    1       -1.951   0.900   0.606  0.00  0.00    -0.060 NA
ATOM      3  O   LIG    1       -0.593   1.204   0.573  0.00  0.00    -0.333 OA
ATOM      4  C   LIG    1        0.020   0.059   0.176  0.00  0.00    +0.259 A 
ATOM      5  N   LIG    1       -0.817  -0.922  -0.039  0.00  0.00    -0.191 NA
ENDROOT
BRANCH   1  15
ATOM      6  C   LIG    1       -2.571  -2.596   2.095  0.00  0.00    +0.015 C 
ATOM      7  C   LIG    1       -3.546  -2.205   0.979  0.00  0.00    +0.015 C 
ATOM      8  C   LIG    1       -4.750  -2.916   0.826  0.00  0.00    +0.096 C 
ATOM      9 CL   LIG    1       -5.099  -4.273   1.854  0.00  0.00    -0.114 Cl
ATOM     10  C   LIG    1       -5.661  -2.530  -0.170  0.00  0.00    +0.089 C 
ATOM     11  C   LIG    1       -6.994  -3.251  -0.397  0.00  0.00    +0.034 C 
ATOM     12  N   LIG    1       -5.352  -1.478  -0.974  0.00  0.00    -0.157 NA
ATOM     13  C   LIG    1       -4.199  -0.772  -0.871  0.00  0.00    +0.170 C 
ATOM     14 CL   LIG    1       -3.877   0.537  -1.973  0.00  0.00    -0.094 Cl
ATOM     15  C   LIG    1       -3.264  -1.124   0.119  0.00  0.00    +0.095 C 
BRANCH  12  16
ATOM     16  O   LIG    1       -6.173  -1.140  -1.873  0.00  0.00    -0.310 OA
ATOM     17  H   LIG    1       -5.820  -0.380  -2.364  0.00  0.00    +0.237 HD
ENDBRANCH  12  16
ENDBRANCH   1  15
BRANCH   4  18
ATOM     18  C   LIG    1        1.508   0.044   0.035  0.00  0.00    +0.045 A 
ATOM     19  C   LIG    1        2.257   1.194   0.294  0.00  0.00    +0.062 A 
ATOM     20  C   LIG    1        3.643   1.181   0.162  0.00  0.00    +0.161 A 
ATOM     21  C   LIG    1        4.307   0.011  -0.233  0.00  0.00    +0.189 A 
ATOM     22  C   LIG    1        3.572  -1.168  -0.501  0.00  0.00    +0.167 A 
ATOM     23  C   LIG    1        2.175  -1.120  -0.358  0.00  0.00    +0.049 A 
BRANCH  20  24
ATOM     24  O   LIG    1        4.339   2.335   0.427  0.00  0.00    -0.503 OA
ATOM     25  H   LIG    1        3.773   3.066   0.688  0.00  0.00    +0.292 HD
ENDBRANCH  20  24
BRANCH  21  26
ATOM     26  O   LIG    1        5.676   0.054  -0.347  0.00  0.00    -0.502 OA
ATOM     27  H   LIG    1        6.035   0.919  -0.133  0.00  0.00    +0.292 HD
ENDBRANCH  21  26
BRANCH  22  28
ATOM     28  N   LIG    1        4.213  -2.447  -0.924  0.00  0.00    +0.010 N 
ATOM     29  O   LIG    1        3.493  -3.421  -1.128  0.00  0.00    -0.130 OA
BRANCH  28  30
ATOM     30  O   LIG    1        5.431  -2.508  -1.061  0.00  0.00    -0.396 OA
ATOM     31  H   LIG    1        5.959  -1.751  -0.900  0.00  0.00    +0.329 HD
ENDBRANCH  28  30
ENDBRANCH  22  28
ENDBRANCH   4  18
TORSDOF 7
