REMARK  Name = DB11766
REMARK                            x       y       z     vdW  Elec       q    Type
REMARK                         _______ _______ _______ _____ _____    ______ ____
ROOT
ATOM      1  N   LIG    1       -2.326  -0.387  -1.487  0.00  0.00    -0.296 NA
ATOM      2  C   LIG    1       -2.185  -1.252  -0.308  0.00  0.00    +0.117 C 
ATOM      3  C   LIG    1       -1.174  -0.742   0.755  0.00  0.00    +0.147 C 
ATOM      4  O   LIG    1       -1.561   0.588   1.121  0.00  0.00    -0.368 OA
ATOM      5  C   LIG    1       -1.516   1.502   0.019  0.00  0.00    +0.147 C 
ATOM      6  C   LIG    1       -0.047   1.572  -0.479  0.00  0.00    +0.117 C 
ATOM      7  N   LIG    1        0.551   0.275  -0.824  0.00  0.00    -0.294 NA
ATOM      8  C   LIG    1        0.292  -0.703   0.243  0.00  0.00    +0.117 C 
ATOM      9  C   LIG    1       -2.513   1.010  -1.066  0.00  0.00    +0.117 C 
ENDROOT
BRANCH   1  10
ATOM     10  C   LIG    1       -3.417  -0.867  -2.341  0.00  0.00    +0.103 C 
BRANCH  10  11
ATOM     11  C   LIG    1       -3.458  -0.158  -3.713  0.00  0.00    +0.123 C 
BRANCH  11  13
ATOM     12  C   LIG    1       -5.718  -0.720  -4.618  0.00  0.00    +0.401 C 
ATOM     13  N   LIG    1       -4.336  -0.816  -4.676  0.00  0.00    -0.280 N 
ATOM     14  H   LIG    1       -3.921  -1.393  -5.394  0.00  0.00    +0.152 HD
ATOM     15  O   LIG    1       -6.363  -0.073  -3.791  0.00  0.00    -0.226 OA
BRANCH  12  16
ATOM     16  O   LIG    1       -6.250  -1.464  -5.625  0.00  0.00    -0.445 OA
BRANCH  16  18
ATOM     17  C   LIG    1       -8.317  -0.269  -6.255  0.00  0.00    +0.055 C 
ATOM     18  C   LIG    1       -7.656  -1.622  -5.893  0.00  0.00    +0.107 C 
ATOM     19  C   LIG    1       -7.710  -2.559  -7.117  0.00  0.00    +0.055 C 
ATOM     20  C   LIG    1       -8.387  -2.294  -4.703  0.00  0.00    +0.055 C 
ENDBRANCH  16  18
ENDBRANCH  12  16
ENDBRANCH  11  13
ENDBRANCH  10  11
ENDBRANCH   1  10
BRANCH   7  21
ATOM     21  C   LIG    1        1.977   0.452  -1.126  0.00  0.00    +0.125 C 
BRANCH  21  22
ATOM     22  C   LIG    1        2.667  -0.813  -1.697  0.00  0.00    +0.244 C 
BRANCH  22  23
ATOM     23  O   LIG    1        2.931  -1.823  -0.720  0.00  0.00    -0.488 OA
BRANCH  23  24
ATOM     24  C   LIG    1        3.880  -1.620   0.266  0.00  0.00    +0.156 A 
ATOM     25  C   LIG    1        3.940  -2.569   1.294  0.00  0.00    +0.166 A 
ATOM     26  F   LIG    1        3.092  -3.623   1.292  0.00  0.00    -0.202 F 
ATOM     27  C   LIG    1        4.864  -2.439   2.332  0.00  0.00    +0.061 A 
ATOM     28  C   LIG    1        5.745  -1.356   2.355  0.00  0.00    +0.055 A 
ATOM     29  C   LIG    1        5.699  -0.406   1.333  0.00  0.00    +0.022 A 
ATOM     30  C   LIG    1        4.776  -0.537   0.296  0.00  0.00    +0.050 A 
BRANCH  28  31
ATOM     31  C   LIG    1        6.706  -1.217   3.440  0.00  0.00    +0.099 C 
ATOM     32  N   LIG    1        7.470  -1.107   4.302  0.00  0.00    -0.191 NA
ENDBRANCH  28  31
ENDBRANCH  23  24
ENDBRANCH  22  23
ENDBRANCH  21  22
ENDBRANCH   7  21
TORSDOF 10
