REMARK  Name = DB11363
REMARK                            x       y       z     vdW  Elec       q    Type
REMARK                         _______ _______ _______ _____ _____    ______ ____
ROOT
ATOM      1  C   LIG    1        1.518   0.263  -0.366  0.00  0.00    +0.033 A 
ATOM      2  C   LIG    1        2.128  -0.569   0.588  0.00  0.00    -0.026 A 
ATOM      3  C   LIG    1        3.518  -0.680   0.612  0.00  0.00    +0.017 A 
ATOM      4  C   LIG    1        4.340   0.009  -0.293  0.00  0.00    +0.027 A 
ATOM      5  C   LIG    1        5.830  -0.181  -0.171  0.00  0.00    +0.196 C 
ATOM      6  O   LIG    1        6.333  -0.909   0.686  0.00  0.00    -0.287 OA
ATOM      7  C   LIG    1        6.617   0.564  -1.141  0.00  0.00    +0.051 A 
ATOM      8  C   LIG    1        8.045   0.623  -1.321  0.00  0.00    +0.011 A 
ATOM      9  C   LIG    1        9.146   0.029  -0.680  0.00  0.00    +0.012 A 
ATOM     10  C   LIG    1       10.433   0.317  -1.130  0.00  0.00    +0.019 A 
ATOM     11  C   LIG    1       10.649   1.186  -2.201  0.00  0.00    +0.054 A 
ATOM     12  C   LIG    1        9.584   1.801  -2.865  0.00  0.00    +0.045 A 
ATOM     13  C   LIG    1        8.293   1.507  -2.413  0.00  0.00    +0.049 A 
ATOM     14  N   LIG    1        7.062   1.942  -2.852  0.00  0.00    -0.357 N 
ATOM     15  H   LIG    1        6.875   2.578  -3.613  0.00  0.00    +0.166 HD
ATOM     16  C   LIG    1        6.053   1.383  -2.102  0.00  0.00    +0.038 A 
ATOM     17  C   LIG    1        4.562   1.643  -2.316  0.00  0.00    +0.032 C 
ATOM     18  C   LIG    1        4.302   3.156  -2.109  0.00  0.00    +0.022 C 
ATOM     19  C   LIG    1        4.187   1.152  -3.736  0.00  0.00    +0.022 C 
ATOM     20  C   LIG    1        3.739   0.843  -1.271  0.00  0.00    -0.023 A 
ATOM     21  C   LIG    1        2.339   0.935  -1.279  0.00  0.00    +0.028 A 
ENDROOT
BRANCH   1  25
ATOM     22  C   LIG    1       -2.825   0.514  -1.066  0.00  0.00    +0.060 C 
ATOM     23  C   LIG    1       -1.994   1.667  -0.446  0.00  0.00    +0.038 C 
ATOM     24  C   LIG    1       -0.501   1.626  -0.834  0.00  0.00    +0.106 C 
ATOM     25  N   LIG    1        0.132   0.353  -0.459  0.00  0.00    -0.330 N 
ATOM     26  C   LIG    1       -0.550  -0.716  -1.202  0.00  0.00    +0.106 C 
ATOM     27  C   LIG    1       -2.049  -0.812  -0.846  0.00  0.00    +0.038 C 
BRANCH  22  30
ATOM     28  C   LIG    1       -6.442   1.713  -0.559  0.00  0.00    +0.175 C 
ATOM     29  C   LIG    1       -4.932   1.782  -0.868  0.00  0.00    +0.113 C 
ATOM     30  N   LIG    1       -4.259   0.481  -0.707  0.00  0.00    -0.295 NA
ATOM     31  C   LIG    1       -4.995  -0.601  -1.382  0.00  0.00    +0.113 C 
ATOM     32  C   LIG    1       -6.504  -0.587  -1.059  0.00  0.00    +0.175 C 
ATOM     33  O   LIG    1       -7.054   0.694  -1.337  0.00  0.00    -0.377 OA
ENDBRANCH  22  30
ENDBRANCH   1  25
BRANCH   2  34
ATOM     34  C   LIG    1        1.321  -1.330   1.644  0.00  0.00    +0.033 C 
ATOM     35  C   LIG    1        0.830  -0.424   2.784  0.00  0.00    +0.009 C 
ENDBRANCH   2  34
BRANCH  11  36
ATOM     36  C   LIG    1       12.011   1.459  -2.636  0.00  0.00    +0.099 C 
ATOM     37  N   LIG    1       13.094   1.676  -2.983  0.00  0.00    -0.191 NA
ENDBRANCH  11  36
TORSDOF 4
