REMARK  Name = DB11948
REMARK                            x       y       z     vdW  Elec       q    Type
REMARK                         _______ _______ _______ _____ _____    ______ ____
ROOT
ATOM      1  C   LIG    1       -0.088  -0.013  -0.064  0.00  0.00    +0.055 C 
ATOM      2  C   LIG    1        1.458   0.008  -0.001  0.00  0.00    +0.105 C 
ATOM      3  O   LIG    1        1.913  -1.358   0.029  0.00  0.00    -0.485 OA
ATOM      4  C   LIG    1        1.959  -2.002   1.240  0.00  0.00    +0.136 C 
ATOM      5  C   LIG    1        2.222  -3.464   1.097  0.00  0.00    +0.028 A 
ATOM      6  C   LIG    1        2.354  -4.273   2.247  0.00  0.00    +0.036 A 
ATOM      7  C   LIG    1        2.228  -3.677   3.616  0.00  0.00    +0.233 C 
ATOM      8  C   LIG    1        1.924  -2.136   3.711  0.00  0.00    +0.232 C 
ATOM      9  O   LIG    1        1.789  -1.666   4.843  0.00  0.00    -0.283 OA
ATOM     10  O   LIG    1        2.341  -4.317   4.665  0.00  0.00    -0.283 OA
ATOM     11  C   LIG    1        2.602  -5.645   2.099  0.00  0.00    +0.012 A 
ATOM     12  C   LIG    1        2.716  -6.215   0.834  0.00  0.00    +0.001 A 
ATOM     13  C   LIG    1        2.587  -5.421  -0.301  0.00  0.00    +0.001 A 
ATOM     14  C   LIG    1        2.343  -4.056  -0.170  0.00  0.00    +0.012 A 
ATOM     15  C   LIG    1        1.823  -1.381   2.447  0.00  0.00    +0.045 C 
ATOM     16  C   LIG    1        1.536   0.117   2.539  0.00  0.00    +0.047 C 
ATOM     17  C   LIG    1        1.988   0.787   1.234  0.00  0.00    +0.052 C 
ATOM     18  C   LIG    1        2.085   0.604  -1.275  0.00  0.00    +0.055 C 
ENDROOT
TORSDOF 0
