REMARK  Name = DB11315
REMARK                            x       y       z     vdW  Elec       q    Type
REMARK                         _______ _______ _______ _____ _____    ______ ____
ROOT
ATOM      1  O   LIG    1       -0.550  -0.899   0.359  0.00  0.00    -0.461 OA
ENDROOT
BRANCH   1  10
ATOM      2  C   LIG    1       -3.551  -5.473  -0.272  0.00  0.00    -0.091 C 
ATOM      3  N   LIG    1       -3.169  -3.984  -0.011  0.00  0.00    +0.384 N 
ATOM      4  C   LIG    1       -4.551  -3.325   0.297  0.00  0.00    -0.091 C 
ATOM      5  C   LIG    1       -2.370  -3.331  -1.177  0.00  0.00    -0.030 C 
ATOM      6  C   LIG    1       -0.905  -3.816  -1.023  0.00  0.00    +0.133 C 
ATOM      7  O   LIG    1       -0.685  -5.122  -0.553  0.00  0.00    -0.372 OA
ATOM      8  C   LIG    1       -0.725  -4.112   0.423  0.00  0.00    +0.133 C 
ATOM      9  C   LIG    1       -2.398  -1.784  -1.008  0.00  0.00    +0.032 C 
ATOM     10  C   LIG    1       -1.929  -1.266   0.402  0.00  0.00    +0.174 C 
ATOM     11  C   LIG    1       -2.085  -2.313   1.559  0.00  0.00    +0.032 C 
ATOM     12  C   LIG    1       -2.088  -3.800   1.095  0.00  0.00    -0.030 C 
ENDBRANCH   1  10
BRANCH   1  13
ATOM     13  C   LIG    1       -0.130   0.268  -0.184  0.00  0.00    +0.317 C 
ATOM     14  O   LIG    1       -0.861   1.154  -0.634  0.00  0.00    -0.250 OA
BRANCH  13  15
ATOM     15  C   LIG    1        1.409   0.374  -0.196  0.00  0.00    +0.153 C 
BRANCH  15  16
ATOM     16  C   LIG    1        1.937  -0.599  -1.257  0.00  0.00    -0.032 A 
ATOM     17  C   LIG    1        2.450  -1.835  -0.851  0.00  0.00    +0.004 A 
ATOM     18  C   LIG    1        2.914  -2.746  -1.797  0.00  0.00    +0.000 A 
ATOM     19  C   LIG    1        2.864  -2.420  -3.150  0.00  0.00    +0.000 A 
ATOM     20  C   LIG    1        2.354  -1.192  -3.566  0.00  0.00    +0.000 A 
ATOM     21  C   LIG    1        1.890  -0.282  -2.621  0.00  0.00    +0.004 A 
ENDBRANCH  15  16
BRANCH  15  22
ATOM     22  C   LIG    1        1.952   1.817  -0.375  0.00  0.00    +0.175 C 
BRANCH  22  23
ATOM     23  O   LIG    1        1.633   2.630   0.737  0.00  0.00    -0.394 OA
ATOM     24  H   LIG    1        1.986   3.510   0.584  0.00  0.00    +0.209 HD
ENDBRANCH  22  23
ENDBRANCH  15  22
ENDBRANCH  13  15
ENDBRANCH   1  13
TORSDOF 6
