REMARK  Name = DB11331
REMARK                            x       y       z     vdW  Elec       q    Type
REMARK                         _______ _______ _______ _____ _____    ______ ____
ROOT
ATOM      1  C   LIG    1       -0.442   2.481   1.280  0.00  0.00    +0.240 C 
ENDROOT
BRANCH   1   2
ATOM      2  C   LIG    1        0.231   1.097   1.118  0.00  0.00    +0.279 C 
BRANCH   2   3
ATOM      3  O   LIG    1        0.790   0.952  -0.182  0.00  0.00    -0.461 OA
BRANCH   3   4
ATOM      4  C   LIG    1        1.608  -0.082  -0.468  0.00  0.00    +0.307 C 
ATOM      5  O   LIG    1        1.938  -0.979   0.311  0.00  0.00    -0.251 OA
BRANCH   4   6
ATOM      6  C   LIG    1        2.151  -0.006  -1.902  0.00  0.00    +0.120 C 
BRANCH   6   7
ATOM      7  C   LIG    1        3.570  -0.589  -2.096  0.00  0.00    +0.011 C 
BRANCH   7   8
ATOM      8  C   LIG    1        4.675   0.190  -1.355  0.00  0.00    +0.001 C 
BRANCH   8   9
ATOM      9  C   LIG    1        6.090  -0.351  -1.615  0.00  0.00    +0.000 C 
BRANCH   9  10
ATOM     10  C   LIG    1        7.172   0.466  -0.887  0.00  0.00    +0.000 C 
BRANCH  10  11
ATOM     11  C   LIG    1        8.594  -0.080  -1.105  0.00  0.00    +0.000 C 
BRANCH  11  12
ATOM     12  C   LIG    1        9.666   0.740  -0.367  0.00  0.00    -0.000 C 
BRANCH  12  13
ATOM     13  C   LIG    1       11.088   0.181  -0.554  0.00  0.00    -0.000 C 
BRANCH  13  14
ATOM     14  C   LIG    1       12.156   0.997   0.196  0.00  0.00    -0.000 C 
BRANCH  14  15
ATOM     15  C   LIG    1       13.577   0.434   0.018  0.00  0.00    -0.000 C 
BRANCH  15  16
ATOM     16  C   LIG    1       14.644   1.245   0.775  0.00  0.00    -0.000 C 
BRANCH  16  17
ATOM     17  C   LIG    1       16.064   0.671   0.607  0.00  0.00    -0.000 C 
BRANCH  17  18
ATOM     18  C   LIG    1       17.173   1.510   1.273  0.00  0.00    -0.000 C 
BRANCH  18  19
ATOM     19  C   LIG    1       17.099   1.558   2.812  0.00  0.00    -0.003 C 
ATOM     20  C   LIG    1       18.265   2.333   3.441  0.00  0.00    +0.004 C 
ENDBRANCH  18  19
ENDBRANCH  17  18
ENDBRANCH  16  17
ENDBRANCH  15  16
ENDBRANCH  14  15
ENDBRANCH  13  14
ENDBRANCH  12  13
ENDBRANCH  11  12
ENDBRANCH  10  11
ENDBRANCH   9  10
ENDBRANCH   8   9
ENDBRANCH   7   8
ENDBRANCH   6   7
ENDBRANCH   4   6
ENDBRANCH   3   4
ENDBRANCH   2   3
ENDBRANCH   1   2
BRANCH   1  21
ATOM     21  C   LIG    1        0.565   3.648   1.319  0.00  0.00    +0.220 C 
BRANCH  21  22
ATOM     22  O   LIG    1        1.321   3.706   0.120  0.00  0.00    -0.283 OA
BRANCH  22  23
ATOM     23  P   LIG    1        2.951   3.694   0.166  0.00  0.00    +0.475 P 
ATOM     24  O   LIG    1        3.586   4.895   0.775  0.00  0.00    -0.227 OA
BRANCH  23  25
ATOM     25  O   LIG    1        3.299   2.293   0.910  0.00  0.00    -0.302 OA
ATOM     26  H   LIG    1        3.919   2.354   1.662  0.00  0.00    +0.222 HD
ENDBRANCH  23  25
BRANCH  23  27
ATOM     27  O   LIG    1        3.353   3.386  -1.383  0.00  0.00    -0.284 OA
BRANCH  27  28
ATOM     28  C   LIG    1        3.464   4.429  -2.339  0.00  0.00    +0.206 C 
BRANCH  28  29
ATOM     29  C   LIG    1        4.893   4.457  -2.918  0.00  0.00    +0.166 C 
BRANCH  29  30
ATOM     30  O   LIG    1        5.117   3.256  -3.634  0.00  0.00    -0.387 OA
ATOM     31  H   LIG    1        5.018   2.518  -3.027  0.00  0.00    +0.210 HD
ENDBRANCH  29  30
BRANCH  29  32
ATOM     32  C   LIG    1        5.980   4.647  -1.837  0.00  0.00    +0.189 C 
BRANCH  32  33
ATOM     33  O   LIG    1        7.243   4.896  -2.421  0.00  0.00    -0.392 OA
ATOM     34  H   LIG    1        7.516   4.110  -2.901  0.00  0.00    +0.210 HD
ENDBRANCH  32  33
ENDBRANCH  29  32
ENDBRANCH  28  29
ENDBRANCH  27  28
ENDBRANCH  23  27
ENDBRANCH  22  23
ENDBRANCH  21  22
ENDBRANCH   1  21
BRANCH   1  35
ATOM     35  O   LIG    1       -1.161   2.522   2.513  0.00  0.00    -0.456 OA
BRANCH  35  36
ATOM     36  C   LIG    1       -2.354   1.899   2.671  0.00  0.00    +0.308 C 
ATOM     37  O   LIG    1       -3.005   1.338   1.788  0.00  0.00    -0.251 OA
BRANCH  36  38
ATOM     38  C   LIG    1       -2.833   1.920   4.125  0.00  0.00    +0.120 C 
BRANCH  38  39
ATOM     39  C   LIG    1       -2.304   0.731   4.960  0.00  0.00    +0.011 C 
BRANCH  39  40
ATOM     40  C   LIG    1       -0.772   0.705   5.138  0.00  0.00    +0.001 C 
BRANCH  40  41
ATOM     41  C   LIG    1       -0.264  -0.468   5.992  0.00  0.00    +0.000 C 
BRANCH  41  42
ATOM     42  C   LIG    1        1.267  -0.452   6.136  0.00  0.00    +0.000 C 
BRANCH  42  43
ATOM     43  C   LIG    1        1.828  -1.634   6.947  0.00  0.00    +0.004 C 
BRANCH  43  44
ATOM     44  C   LIG    1        3.353  -1.560   7.157  0.00  0.00    +0.027 C 
BRANCH  44  45
ATOM     45  C   LIG    1        4.182  -1.776   5.899  0.00  0.00    -0.031 C 
ATOM     46  C   LIG    1        4.743  -0.826   5.124  0.00  0.00    -0.031 C 
BRANCH  46  47
ATOM     47  C   LIG    1        4.626   0.680   5.295  0.00  0.00    +0.027 C 
BRANCH  47  48
ATOM     48  C   LIG    1        4.182   1.398   4.005  0.00  0.00    +0.004 C 
BRANCH  48  49
ATOM     49  C   LIG    1        3.780   2.872   4.210  0.00  0.00    +0.000 C 
BRANCH  49  50
ATOM     50  C   LIG    1        2.398   3.044   4.872  0.00  0.00    +0.000 C 
BRANCH  50  51
ATOM     51  C   LIG    1        1.929   4.510   4.933  0.00  0.00    -0.000 C 
BRANCH  51  52
ATOM     52  C   LIG    1        0.470   4.678   5.401  0.00  0.00    -0.000 C 
BRANCH  52  53
ATOM     53  C   LIG    1        0.230   4.303   6.876  0.00  0.00    -0.003 C 
ATOM     54  C   LIG    1       -1.237   4.457   7.299  0.00  0.00    +0.004 C 
ENDBRANCH  52  53
ENDBRANCH  51  52
ENDBRANCH  50  51
ENDBRANCH  49  50
ENDBRANCH  48  49
ENDBRANCH  47  48
ENDBRANCH  46  47
ENDBRANCH  44  45
ENDBRANCH  43  44
ENDBRANCH  42  43
ENDBRANCH  41  42
ENDBRANCH  40  41
ENDBRANCH  39  40
ENDBRANCH  38  39
ENDBRANCH  36  38
ENDBRANCH  35  36
ENDBRANCH   1  35
TORSDOF 44
