REMARK  Name = DB11279
REMARK                            x       y       z     vdW  Elec       q    Type
REMARK                         _______ _______ _______ _____ _____    ______ ____
ROOT
ATOM      1  C   LIG    1       -0.079   0.034   0.186  0.00  0.00    -0.004 C 
ATOM      2  C   LIG    1       -0.812   1.180   0.059  0.00  0.00    -0.017 C 
ATOM      3  C   LIG    1       -0.231   2.518  -0.063  0.00  0.00    +0.010 C 
ATOM      4  C   LIG    1       -0.972   3.646  -0.184  0.00  0.00    +0.026 C 
ATOM      5  C   LIG    1       -2.384   3.625  -0.201  0.00  0.00    +0.038 C 
ATOM      6  N   LIG    1       -3.117   4.766  -0.324  0.00  0.00    -0.371 N 
ATOM      7  C   LIG    1       -2.994   2.357  -0.082  0.00  0.00    +0.026 C 
ATOM      8  C   LIG    1       -2.275   1.214   0.040  0.00  0.00    +0.010 C 
ENDROOT
BRANCH   1   9
ATOM      9  C   LIG    1        1.410  -0.006   0.118  0.00  0.00    -0.017 A 
ATOM     10  C   LIG    1        2.143  -0.634   1.128  0.00  0.00    +0.010 A 
ATOM     11  C   LIG    1        3.533  -0.677   1.073  0.00  0.00    +0.024 A 
ATOM     12  C   LIG    1        4.235  -0.095   0.005  0.00  0.00    +0.030 A 
ATOM     13  C   LIG    1        3.487   0.519  -1.013  0.00  0.00    +0.024 A 
ATOM     14  C   LIG    1        2.097   0.559  -0.960  0.00  0.00    +0.010 A 
BRANCH  12  15
ATOM     15  N   LIG    1        5.658  -0.126  -0.045  0.00  0.00    -0.330 N 
BRANCH  15  16
ATOM     16  C   LIG    1        6.410   0.710  -0.986  0.00  0.00    +0.102 C 
ATOM     17  C   LIG    1        6.703   0.008  -2.320  0.00  0.00    +0.024 C 
ENDBRANCH  15  16
BRANCH  15  18
ATOM     18  C   LIG    1        6.440  -0.968   0.867  0.00  0.00    +0.102 C 
ATOM     19  C   LIG    1        6.811  -0.259   2.178  0.00  0.00    +0.024 C 
ENDBRANCH  15  18
ENDBRANCH  12  15
ENDBRANCH   1   9
BRANCH   1  20
ATOM     20  C   LIG    1       -0.704  -1.299   0.406  0.00  0.00    -0.017 A 
ATOM     21  C   LIG    1       -0.464  -2.343  -0.496  0.00  0.00    +0.008 A 
ATOM     22  C   LIG    1       -1.035  -3.596  -0.290  0.00  0.00    +0.001 A 
ATOM     23  C   LIG    1       -1.845  -3.810   0.823  0.00  0.00    +0.000 A 
ATOM     24  C   LIG    1       -2.084  -2.783   1.733  0.00  0.00    +0.001 A 
ATOM     25  C   LIG    1       -1.512  -1.531   1.526  0.00  0.00    +0.008 A 
ENDBRANCH   1  20
BRANCH   6  26
ATOM     26  C   LIG    1       -2.483   6.128  -0.462  0.00  0.00    +0.113 C 
ATOM     27  C   LIG    1       -2.047   6.695   0.901  0.00  0.00    +0.027 C 
ENDBRANCH   6  26
BRANCH   6  28
ATOM     28  C   LIG    1       -4.626   4.765  -0.336  0.00  0.00    +0.113 C 
ATOM     29  C   LIG    1       -5.206   4.669   1.086  0.00  0.00    +0.027 C 
ENDBRANCH   6  28
TORSDOF 7
