REMARK  Name = DB11929
REMARK                            x       y       z     vdW  Elec       q    Type
REMARK                         _______ _______ _______ _____ _____    ______ ____
ROOT
ATOM      1  C   LIG    1        3.156  -1.772  -2.775  0.00  0.00    +0.166 C 
ATOM      2  C   LIG    1        3.232  -2.652  -4.039  0.00  0.00    +0.078 C 
ATOM      3  C   LIG    1        4.378  -3.627  -3.774  0.00  0.00    +0.198 C 
ATOM      4  O   LIG    1        5.628  -3.039  -4.143  0.00  0.00    -0.445 OA
ATOM      5  C   LIG    1        6.125  -3.150  -5.403  0.00  0.00    +0.404 C 
ATOM      6  O   LIG    1        5.673  -3.922  -6.252  0.00  0.00    -0.226 OA
ATOM      7  N   LIG    1        7.188  -2.265  -5.611  0.00  0.00    -0.259 N 
ATOM      8  C   LIG    1        7.679  -1.296  -4.630  0.00  0.00    +0.147 C 
ATOM      9  C   LIG    1        8.781  -0.576  -5.373  0.00  0.00    -0.022 A 
ATOM     10  C   LIG    1        9.625   0.460  -4.947  0.00  0.00    -0.042 A 
ATOM     11  C   LIG    1       10.574   0.971  -5.842  0.00  0.00    +0.004 A 
ATOM     12  C   LIG    1       10.684   0.456  -7.133  0.00  0.00    +0.001 A 
ATOM     13  C   LIG    1        9.845  -0.578  -7.545  0.00  0.00    +0.005 A 
ATOM     14  C   LIG    1        9.551   1.039  -3.536  0.00  0.00    +0.035 C 
ATOM     15  C   LIG    1       10.845   0.848  -2.713  0.00  0.00    +0.005 C 
ATOM     16  C   LIG    1       11.194  -0.622  -2.397  0.00  0.00    +0.001 C 
ATOM     17  C   LIG    1       10.356  -1.227  -1.246  0.00  0.00    +0.010 C 
ATOM     18  C   LIG    1       10.485  -2.765  -1.018  0.00  0.00    -0.001 C 
ATOM     19  C   LIG    1       11.972  -3.193  -0.962  0.00  0.00    +0.014 C 
ATOM     20  C   LIG    1        9.797  -3.544  -2.165  0.00  0.00    +0.014 C 
ATOM     21  C   LIG    1        9.852  -3.145   0.355  0.00  0.00    +0.240 C 
ATOM     22  O   LIG    1        8.565  -2.579   0.613  0.00  0.00    -0.450 OA
ATOM     23  C   LIG    1        7.417  -3.210   0.300  0.00  0.00    +0.401 C 
ATOM     24  N   LIG    1        6.354  -2.449   0.773  0.00  0.00    -0.269 N 
ATOM     25  H   LIG    1        6.538  -1.565   1.225  0.00  0.00    +0.153 HD
ATOM     26  C   LIG    1        4.952  -2.832   0.530  0.00  0.00    +0.168 C 
ATOM     27  C   LIG    1        4.375  -1.935  -0.605  0.00  0.00    +0.237 C 
ATOM     28  O   LIG    1        4.222  -0.735  -0.365  0.00  0.00    -0.274 OA
ATOM     29  O   LIG    1        7.344  -4.292  -0.286  0.00  0.00    -0.226 OA
ATOM     30  C   LIG    1        8.895  -1.091  -6.662  0.00  0.00    -0.025 A 
ATOM     31  C   LIG    1        7.892  -2.195  -6.886  0.00  0.00    +0.147 C 
ATOM     32  C   LIG    1        4.378  -3.810  -2.256  0.00  0.00    +0.153 C 
ATOM     33  N   LIG    1        3.925  -2.510  -1.752  0.00  0.00    -0.285 N 
ENDROOT
BRANCH   1  36
ATOM     34  N   LIG    1        1.342  -0.233  -2.177  0.00  0.00    -0.300 N 
ATOM     35  H   LIG    1        2.043   0.469  -2.365  0.00  0.00    +0.150 HD
ATOM     36  C   LIG    1        1.707  -1.523  -2.298  0.00  0.00    +0.234 C 
ATOM     37  O   LIG    1        0.968  -2.473  -2.032  0.00  0.00    -0.274 OA
BRANCH  34  38
ATOM     38  C   LIG    1        0.095   0.269  -1.590  0.00  0.00    +0.115 C 
ATOM     39  C   LIG    1       -0.885   0.962  -2.526  0.00  0.00    +0.024 C 
ATOM     40  C   LIG    1       -1.256  -0.377  -1.951  0.00  0.00    +0.041 C 
BRANCH  38  41
ATOM     41  C   LIG    1        0.214   0.707  -0.114  0.00  0.00    +0.255 C 
ATOM     42  O   LIG    1        0.320   1.917   0.102  0.00  0.00    -0.272 OA
ATOM     43  N   LIG    1        0.210  -0.249   0.787  0.00  0.00    -0.188 N 
ATOM     44  H   LIG    1        0.091  -1.181   0.493  0.00  0.00    +0.176 HD
BRANCH  43  45
ATOM     45  S   LIG    1        0.391   0.049   2.321  0.00  0.00    +0.048 S 
ATOM     46  O   LIG    1        1.484   0.983   2.619  0.00  0.00    -0.155 OA
ATOM     47  O   LIG    1        0.377  -1.188   3.111  0.00  0.00    -0.155 OA
BRANCH  45  48
ATOM     48  C   LIG    1       -1.201   0.978   2.799  0.00  0.00    +0.151 C 
ATOM     49  C   LIG    1       -2.429   0.146   3.078  0.00  0.00    +0.030 C 
ATOM     50  C   LIG    1       -1.691   0.822   4.218  0.00  0.00    +0.030 C 
ENDBRANCH  45  48
ENDBRANCH  43  45
ENDBRANCH  38  41
BRANCH  39  51
ATOM     51  C   LIG    1       -1.766   2.171  -2.139  0.00  0.00    +0.003 C 
ATOM     52  C   LIG    1       -2.974   2.343  -3.068  0.00  0.00    +0.004 C 
ENDBRANCH  39  51
ENDBRANCH  34  38
ENDBRANCH   1  36
BRANCH  26  53
ATOM     53  C   LIG    1        4.103  -2.873   1.861  0.00  0.00    -0.011 C 
ATOM     54  C   LIG    1        4.686  -3.944   2.820  0.00  0.00    +0.013 C 
ATOM     55  C   LIG    1        4.093  -1.521   2.624  0.00  0.00    +0.013 C 
ATOM     56  C   LIG    1        2.633  -3.277   1.564  0.00  0.00    +0.013 C 
ENDBRANCH  26  53
TORSDOF 7
