REMARK  Name = DB11855
REMARK                            x       y       z     vdW  Elec       q    Type
REMARK                         _______ _______ _______ _____ _____    ______ ____
ROOT
ATOM      1  C   LIG    1        2.210   0.361   2.022  0.00  0.00    +0.103 C 
ENDROOT
BRANCH   1   2
ATOM      2  N   LIG    1        3.666   0.468   1.881  0.00  0.00    -0.301 NA
ATOM      3  C   LIG    1        4.267   0.839   3.173  0.00  0.00    +0.088 C 
ATOM      4  C   LIG    1        5.801   0.980   3.088  0.00  0.00    +0.060 C 
ATOM      5  C   LIG    1        6.433  -0.316   2.546  0.00  0.00    +0.181 C 
ATOM      6  C   LIG    1        5.809  -0.624   1.178  0.00  0.00    +0.060 C 
ATOM      7  C   LIG    1        4.274  -0.738   1.289  0.00  0.00    +0.088 C 
BRANCH   5   8
ATOM      8  O   LIG    1        7.852  -0.228   2.429  0.00  0.00    -0.447 OA
BRANCH   8   9
ATOM      9  C   LIG    1        8.668  -0.396   3.494  0.00  0.00    +0.405 C 
ATOM     10  N   LIG    1        9.984  -0.240   3.071  0.00  0.00    -0.251 N 
ATOM     11  H   LIG    1       10.122  -0.126   2.077  0.00  0.00    +0.158 HD
ATOM     12  O   LIG    1        8.284  -0.661   4.635  0.00  0.00    -0.226 OA
BRANCH  10  13
ATOM     13  C   LIG    1       11.156  -0.359   3.840  0.00  0.00    +0.044 A 
ATOM     14  C   LIG    1       12.339  -0.844   3.233  0.00  0.00    +0.003 A 
ATOM     15  C   LIG    1       13.511  -0.890   4.003  0.00  0.00    +0.010 A 
ATOM     16  C   LIG    1       13.523  -0.474   5.332  0.00  0.00    +0.001 A 
ATOM     17  C   LIG    1       12.358   0.006   5.920  0.00  0.00    +0.002 A 
ATOM     18  C   LIG    1       11.183   0.070   5.178  0.00  0.00    +0.024 A 
BRANCH  14  19
ATOM     19  C   LIG    1       12.398  -1.320   1.816  0.00  0.00    -0.016 A 
ATOM     20  C   LIG    1       11.461  -2.238   1.321  0.00  0.00    +0.008 A 
ATOM     21  C   LIG    1       11.526  -2.679   0.002  0.00  0.00    +0.001 A 
ATOM     22  C   LIG    1       12.536  -2.209  -0.832  0.00  0.00    +0.000 A 
ATOM     23  C   LIG    1       13.481  -1.305  -0.357  0.00  0.00    +0.001 A 
ATOM     24  C   LIG    1       13.413  -0.866   0.962  0.00  0.00    +0.008 A 
ENDBRANCH  14  19
ENDBRANCH  10  13
ENDBRANCH   8   9
ENDBRANCH   5   8
ENDBRANCH   1   2
BRANCH   1  25
ATOM     25  C   LIG    1        1.484   0.243   0.662  0.00  0.00    +0.123 C 
BRANCH  25  27
ATOM     26  C   LIG    1       -0.459   1.750   0.681  0.00  0.00    +0.132 C 
ATOM     27  N   LIG    1        0.024   0.367   0.777  0.00  0.00    -0.299 N 
ATOM     28  C   LIG    1       -0.754  -0.706   1.092  0.00  0.00    +0.246 C 
ATOM     29  O   LIG    1       -0.272  -1.761   1.513  0.00  0.00    -0.270 OA
BRANCH  28  30
ATOM     30  C   LIG    1       -2.252  -0.634   0.882  0.00  0.00    +0.037 A 
ATOM     31  C   LIG    1       -2.801  -0.017  -0.252  0.00  0.00    +0.013 A 
ATOM     32  C   LIG    1       -4.180   0.013  -0.440  0.00  0.00    +0.005 A 
ATOM     33  C   LIG    1       -5.026  -0.581   0.498  0.00  0.00    -0.033 A 
ATOM     34  C   LIG    1       -4.487  -1.219   1.617  0.00  0.00    +0.005 A 
ATOM     35  C   LIG    1       -3.108  -1.251   1.804  0.00  0.00    +0.013 A 
BRANCH  33  36
ATOM     36  C   LIG    1       -6.535  -0.548   0.289  0.00  0.00    +0.119 C 
BRANCH  36  37
ATOM     37  N   LIG    1       -7.230   0.284   1.277  0.00  0.00    -0.298 NA
ATOM     38  C   LIG    1       -6.934   1.716   1.096  0.00  0.00    +0.085 C 
ATOM     39  C   LIG    1       -7.662   2.605   2.129  0.00  0.00    +0.028 C 
ATOM     40  C   LIG    1       -9.182   2.341   2.071  0.00  0.00    +0.077 C 
ATOM     41  C   LIG    1       -9.456   0.835   2.288  0.00  0.00    +0.028 C 
ATOM     42  C   LIG    1       -8.674   0.003   1.248  0.00  0.00    +0.085 C 
BRANCH  40  43
ATOM     43  C   LIG    1       -9.913   3.217   3.113  0.00  0.00    +0.214 C 
ATOM     44  N   LIG    1       -9.984   4.527   2.861  0.00  0.00    -0.329 N 
ATOM     45  H   LIG    1       -9.561   4.912   2.029  0.00  0.00    +0.145 HD
ATOM     46  H   LIG    1      -10.457   5.141   3.507  0.00  0.00    +0.145 HD
ATOM     47  O   LIG    1      -10.419   2.736   4.126  0.00  0.00    -0.276 OA
ENDBRANCH  40  43
ENDBRANCH  36  37
ENDBRANCH  33  36
ENDBRANCH  28  30
ENDBRANCH  25  27
ENDBRANCH   1  25
TORSDOF 11
