REMARK  Name = DB11176
REMARK                            x       y       z     vdW  Elec       q    Type
REMARK                         _______ _______ _______ _____ _____    ______ ____
ROOT
ATOM      1  C   LIG    1        1.460  -0.023  -0.857  0.00  0.00    +0.000 C 
ATOM      2  C   LIG    1        2.232  -1.125  -0.857  0.00  0.00    +0.000 C 
ENDROOT
BRANCH   1   5
ATOM      3  C   LIG    1       -0.849   0.970  -0.838  0.00  0.00    -0.050 C 
ATOM      4  C   LIG    1       -0.385   2.418  -0.734  0.00  0.00    +0.044 C 
ATOM      5  C   LIG    1        0.006  -0.082  -0.867  0.00  0.00    +0.003 C 
BRANCH   3   7
ATOM      6  C   LIG    1       -2.930  -0.227  -0.166  0.00  0.00    +0.001 C 
ATOM      7  C   LIG    1       -2.287   0.734  -0.860  0.00  0.00    +0.003 C 
BRANCH   6  10
ATOM      8  C   LIG    1       -5.115  -1.339   0.411  0.00  0.00    -0.050 C 
ATOM      9  C   LIG    1       -4.514  -2.348   1.391  0.00  0.00    +0.044 C 
ATOM     10  C   LIG    1       -4.370  -0.419  -0.249  0.00  0.00    +0.003 C 
BRANCH   8  12
ATOM     11  C   LIG    1       -7.452  -2.176   0.718  0.00  0.00    +0.004 C 
ATOM     12  C   LIG    1       -6.553  -1.346   0.148  0.00  0.00    +0.003 C 
BRANCH  11  13
ATOM     13  C   LIG    1       -8.886  -2.172   0.416  0.00  0.00    -0.043 C 
ATOM     14  C   LIG    1       -9.486  -3.509  -0.110  0.00  0.00    -0.008 C 
ATOM     15  C   LIG    1       -9.560  -4.495   1.083  0.00  0.00    +0.016 C 
ATOM     16  C   LIG    1       -8.607  -4.051  -1.268  0.00  0.00    +0.016 C 
ATOM     17  C   LIG    1      -10.917  -3.302  -0.688  0.00  0.00    +0.042 C 
ATOM     18  C   LIG    1      -11.788  -2.374   0.163  0.00  0.00    +0.119 C 
ATOM     19  C   LIG    1      -11.141  -0.987   0.260  0.00  0.00    +0.062 C 
ATOM     20  C   LIG    1       -9.652  -1.055   0.612  0.00  0.00    -0.067 C 
ATOM     21  C   LIG    1       -9.116   0.271   1.154  0.00  0.00    +0.039 C 
BRANCH  18  22
ATOM     22  O   LIG    1      -13.103  -2.289  -0.347  0.00  0.00    -0.391 OA
ATOM     23  H   LIG    1      -13.063  -1.928  -1.236  0.00  0.00    +0.210 HD
ENDBRANCH  18  22
ENDBRANCH  11  13
ENDBRANCH   8  12
ENDBRANCH   6  10
ENDBRANCH   3   7
ENDBRANCH   1   5
BRANCH   2  24
ATOM     24  C   LIG    1        3.686  -1.066  -0.867  0.00  0.00    +0.003 C 
ATOM     25  C   LIG    1        4.541  -2.118  -0.838  0.00  0.00    -0.050 C 
ATOM     26  C   LIG    1        4.077  -3.566  -0.734  0.00  0.00    +0.044 C 
BRANCH  25  27
ATOM     27  C   LIG    1        5.979  -1.882  -0.860  0.00  0.00    +0.003 C 
ATOM     28  C   LIG    1        6.622  -0.921  -0.166  0.00  0.00    +0.001 C 
BRANCH  28  29
ATOM     29  C   LIG    1        8.062  -0.729  -0.249  0.00  0.00    +0.003 C 
ATOM     30  C   LIG    1        8.807   0.191   0.411  0.00  0.00    -0.050 C 
ATOM     31  C   LIG    1        8.206   1.200   1.391  0.00  0.00    +0.044 C 
BRANCH  30  32
ATOM     32  C   LIG    1       10.245   0.198   0.148  0.00  0.00    +0.003 C 
ATOM     33  C   LIG    1       11.144   1.027   0.717  0.00  0.00    +0.004 C 
BRANCH  33  34
ATOM     34  C   LIG    1       12.578   1.024   0.416  0.00  0.00    -0.043 C 
ATOM     35  C   LIG    1       13.178   2.361  -0.110  0.00  0.00    -0.008 C 
ATOM     36  C   LIG    1       13.252   3.347   1.083  0.00  0.00    +0.016 C 
ATOM     37  C   LIG    1       12.300   2.902  -1.268  0.00  0.00    +0.016 C 
ATOM     38  C   LIG    1       14.610   2.154  -0.688  0.00  0.00    +0.042 C 
ATOM     39  C   LIG    1       15.480   1.226   0.163  0.00  0.00    +0.119 C 
ATOM     40  C   LIG    1       14.833  -0.162   0.260  0.00  0.00    +0.062 C 
ATOM     41  C   LIG    1       13.345  -0.094   0.612  0.00  0.00    -0.067 C 
ATOM     42  C   LIG    1       12.808  -1.419   1.154  0.00  0.00    +0.039 C 
BRANCH  39  43
ATOM     43  O   LIG    1       16.795   1.141  -0.347  0.00  0.00    -0.391 OA
ATOM     44  H   LIG    1       16.755   0.780  -1.235  0.00  0.00    +0.210 HD
ENDBRANCH  39  43
ENDBRANCH  33  34
ENDBRANCH  30  32
ENDBRANCH  28  29
ENDBRANCH  25  27
ENDBRANCH   2  24
TORSDOF 12
