REMARK  Name = DB11863
REMARK                            x       y       z     vdW  Elec       q    Type
REMARK                         _______ _______ _______ _____ _____    ______ ____
ROOT
ATOM      1  C   LIG    1       -4.565  -0.448  -0.082  0.00  0.00    +0.064 C 
ATOM      2  C   LIG    1       -3.061  -0.149  -0.220  0.00  0.00    +0.033 A 
ATOM      3  N   LIG    1       -2.187  -1.228  -0.021  0.00  0.00    -0.280 N 
ATOM      4  C   LIG    1       -0.808  -1.093  -0.004  0.00  0.00    +0.268 A 
ATOM      5  O   LIG    1       -0.050  -2.053   0.190  0.00  0.00    -0.266 OA
ATOM      6  C   LIG    1       -0.292   0.273  -0.221  0.00  0.00    +0.102 A 
ATOM      7  C   LIG    1       -1.160   1.298  -0.434  0.00  0.00    +0.030 A 
ATOM      8  C   LIG    1       -2.601   1.113  -0.428  0.00  0.00    +0.020 A 
ENDROOT
BRANCH   3   9
ATOM      9  C   LIG    1       -2.708  -2.542   0.065  0.00  0.00    +0.050 A 
ATOM     10  C   LIG    1       -2.871  -3.154   1.315  0.00  0.00    +0.038 A 
ATOM     11  C   LIG    1       -3.389  -4.451   1.409  0.00  0.00    +0.057 A 
ATOM     12  C   LIG    1       -3.742  -5.131   0.235  0.00  0.00    +0.012 A 
ATOM     13  C   LIG    1       -3.580  -4.525  -1.011  0.00  0.00    +0.003 A 
ATOM     14  C   LIG    1       -3.063  -3.233  -1.099  0.00  0.00    +0.026 A 
BRANCH  11  15
ATOM     15  C   LIG    1       -3.559  -5.097   2.783  0.00  0.00    +0.417 C 
ATOM     16  F   LIG    1       -3.880  -6.390   2.700  0.00  0.00    -0.166 F 
ATOM     17  F   LIG    1       -4.529  -4.469   3.446  0.00  0.00    -0.166 F 
ATOM     18  F   LIG    1       -2.427  -4.996   3.481  0.00  0.00    -0.166 F 
ENDBRANCH  11  15
ENDBRANCH   3   9
BRANCH   8  19
ATOM     19  C   LIG    1       -3.436   2.292  -0.654  0.00  0.00    +0.070 A 
ATOM     20  N   LIG    1       -3.372   3.499   0.015  0.00  0.00    -0.267 N 
ATOM     21  N   LIG    1       -4.235   4.414  -0.454  0.00  0.00    -0.179 NA
ATOM     22  C   LIG    1       -4.887   3.799  -1.410  0.00  0.00    +0.135 A 
ATOM     23  C   LIG    1       -2.471   3.891   1.090  0.00  0.00    +0.173 C 
ATOM     24  C   LIG    1       -4.444   2.489  -1.589  0.00  0.00    +0.049 A 
ENDBRANCH   8  19
BRANCH   6  25
ATOM     25  C   LIG    1        1.141   0.551  -0.256  0.00  0.00    +0.250 C 
ATOM     26  O   LIG    1        1.950  -0.211  -0.791  0.00  0.00    -0.270 OA
ATOM     27  N   LIG    1        1.525   1.692   0.356  0.00  0.00    -0.306 N 
ATOM     28  H   LIG    1        0.815   2.275   0.773  0.00  0.00    +0.149 HD
BRANCH  27  29
ATOM     29  C   LIG    1        2.893   2.216   0.382  0.00  0.00    +0.160 C 
BRANCH  29  30
ATOM     30  C   LIG    1        3.408   2.761  -0.949  0.00  0.00    +0.058 A 
ATOM     31  N   LIG    1        2.530   3.486  -1.698  0.00  0.00    -0.256 NA
ATOM     32  C   LIG    1        2.952   3.958  -2.899  0.00  0.00    +0.138 A 
ATOM     33  C   LIG    1        4.239   3.730  -3.393  0.00  0.00    +0.106 A 
ATOM     34  C   LIG    1        5.129   2.982  -2.615  0.00  0.00    +0.030 A 
ATOM     35  C   LIG    1        4.711   2.486  -1.378  0.00  0.00    +0.027 A 
BRANCH  33  36
ATOM     36  S   LIG    1        4.727   4.392  -4.980  0.00  0.00    -0.004 S 
ATOM     37  O   LIG    1        5.954   3.700  -5.393  0.00  0.00    -0.170 OA
ATOM     38  O   LIG    1        3.540   4.373  -5.841  0.00  0.00    -0.170 OA
ATOM     39  C   LIG    1        5.154   6.185  -4.584  0.00  0.00    +0.200 C 
ENDBRANCH  33  36
ENDBRANCH  29  30
ENDBRANCH  27  29
ENDBRANCH   6  25
TORSDOF 7
