REMARK  Name = DB11386
REMARK                            x       y       z     vdW  Elec       q    Type
REMARK                         _______ _______ _______ _____ _____    ______ ____
ROOT
ATOM      1  C   LIG    1       -0.085  -0.010   0.099  0.00  0.00    +0.045 C 
ATOM      2  C   LIG    1        1.462   0.024   0.049  0.00  0.00    +0.107 C 
ATOM      3  C   LIG    1        2.001   0.729   1.317  0.00  0.00    +0.045 C 
ENDROOT
BRANCH   2   4
ATOM      4  C   LIG    1        2.019   0.648  -1.280  0.00  0.00    +0.218 C 
ATOM      5 CL   LIG    1        3.808   0.609  -1.314  0.00  0.00    -0.080 Cl
ATOM      6 CL   LIG    1        1.499   2.351  -1.442  0.00  0.00    -0.080 Cl
ATOM      7 CL   LIG    1        1.428  -0.251  -2.710  0.00  0.00    -0.080 Cl
ENDBRANCH   2   4
BRANCH   2   8
ATOM      8  O   LIG    1        1.889  -1.326   0.140  0.00  0.00    -0.385 OA
ATOM      9  H   LIG    1        1.568  -1.799  -0.631  0.00  0.00    +0.210 HD
ENDBRANCH   2   8
TORSDOF 2
