REMARK  Name = DB11348
REMARK                            x       y       z     vdW  Elec       q    Type
REMARK                         _______ _______ _______ _____ _____    ______ ____
ROOT
ATOM      1  P   LIG    1        0.985   0.051   0.194  0.00  0.00    +0.470 P 
ATOM      2  O   LIG    1       -0.551   0.496   0.184  0.00  0.00    -0.228 OA
ENDROOT
BRANCH   1   3
ATOM      3  O   LIG    1        1.261  -0.883   1.463  0.00  0.00    -0.303 OA
ATOM      4  H   LIG    1        2.193  -1.153   1.469  0.00  0.00    +0.222 HD
ENDBRANCH   1   3
BRANCH   1   5
ATOM      5  O   LIG    1        1.314  -0.758  -1.145  0.00  0.00    -0.303 OA
ATOM      6  H   LIG    1        2.246  -1.028  -1.139  0.00  0.00    +0.222 HD
ENDBRANCH   1   5
BRANCH   1   7
ATOM      7  O   LIG    1        1.916   1.349   0.275  0.00  0.00    -0.303 OA
ATOM      8  H   LIG    1        2.847   1.079   0.281  0.00  0.00    +0.222 HD
ENDBRANCH   1   7
TORSDOF 3
