REMARK  Name = DB11800
REMARK                            x       y       z     vdW  Elec       q    Type
REMARK                         _______ _______ _______ _____ _____    ______ ____
ROOT
ATOM      1  C   LIG    1       -0.118   4.077  -0.444  0.00  0.00    +0.066 A 
ATOM      2 CL   LIG    1        0.620   5.413  -1.265  0.00  0.00    -0.082 Cl
ATOM      3  C   LIG    1        0.473   2.819  -0.569  0.00  0.00    +0.068 A 
ATOM      4  C   LIG    1       -0.074   1.702   0.077  0.00  0.00    +0.130 A 
ATOM      5  C   LIG    1       -1.239   1.858   0.827  0.00  0.00    +0.048 A 
ATOM      6  C   LIG    1       -1.838   3.110   0.958  0.00  0.00    +0.028 A 
ATOM      7  C   LIG    1       -1.279   4.236   0.331  0.00  0.00    +0.053 A 
ENDROOT
BRANCH   7   8
ATOM      8  N   LIG    1       -1.846   5.523   0.428  0.00  0.00    -0.268 N 
ATOM      9  H   LIG    1       -1.571   6.160  -0.304  0.00  0.00    +0.156 HD
ATOM     10  C   LIG    1       -2.561   6.045   1.445  0.00  0.00    +0.309 C 
ATOM     11  O   LIG    1       -2.827   5.457   2.496  0.00  0.00    -0.252 OA
ATOM     12  N   LIG    1       -2.935   7.307   1.146  0.00  0.00    -0.251 N 
ATOM     13  H   LIG    1       -2.647   7.675   0.252  0.00  0.00    +0.158 HD
BRANCH  12  14
ATOM     14  C   LIG    1       -3.678   8.173   1.937  0.00  0.00    +0.169 A 
ATOM     15  C   LIG    1       -4.002   9.472   1.548  0.00  0.00    +0.091 A 
ATOM     16  C   LIG    1       -4.736   9.997   2.588  0.00  0.00    +0.136 A 
ATOM     17  C   LIG    1       -5.401  11.325   2.850  0.00  0.00    +0.089 C 
ATOM     18  O   LIG    1       -4.845   9.052   3.554  0.00  0.00    -0.358 OA
ATOM     19  N   LIG    1       -4.173   7.903   3.132  0.00  0.00    -0.063 NA
ENDBRANCH  12  14
ENDBRANCH   7   8
BRANCH   4  20
ATOM     20  O   LIG    1        0.459   0.435  -0.039  0.00  0.00    -0.455 OA
BRANCH  20  21
ATOM     21  C   LIG    1        1.820   0.247  -0.163  0.00  0.00    +0.139 A 
ATOM     22  C   LIG    1        2.331  -0.590  -1.196  0.00  0.00    +0.046 A 
ATOM     23  C   LIG    1        1.504  -1.236  -2.146  0.00  0.00    +0.063 A 
ATOM     24  C   LIG    1        2.053  -2.049  -3.151  0.00  0.00    +0.162 A 
ATOM     25  C   LIG    1        3.440  -2.229  -3.223  0.00  0.00    +0.164 A 
ATOM     26  C   LIG    1        4.278  -1.596  -2.292  0.00  0.00    +0.077 A 
ATOM     27  C   LIG    1        3.743  -0.776  -1.274  0.00  0.00    +0.078 A 
ATOM     28  N   LIG    1        4.600  -0.187  -0.394  0.00  0.00    -0.255 NA
ATOM     29  C   LIG    1        4.081   0.593   0.584  0.00  0.00    +0.115 A 
ATOM     30  C   LIG    1        2.719   0.829   0.737  0.00  0.00    +0.066 A 
BRANCH  24  31
ATOM     31  O   LIG    1        1.287  -2.701  -4.102  0.00  0.00    -0.491 OA
ATOM     32  C   LIG    1       -0.129  -2.559  -4.086  0.00  0.00    +0.277 C 
ENDBRANCH  24  31
BRANCH  25  33
ATOM     33  O   LIG    1        3.911  -3.045  -4.238  0.00  0.00    -0.491 OA
ATOM     34  C   LIG    1        5.309  -3.281  -4.361  0.00  0.00    +0.277 C 
ENDBRANCH  25  33
ENDBRANCH  20  21
ENDBRANCH   4  20
TORSDOF 6
