REMARK  Name = DB11900
REMARK                            x       y       z     vdW  Elec       q    Type
REMARK                         _______ _______ _______ _____ _____    ______ ____
ROOT
ATOM      1  C   LIG    1       -0.349   2.609   0.009  0.00  0.00    +0.064 C 
ATOM      2  C   LIG    1       -0.776   1.152   0.012  0.00  0.00    +0.021 A 
ATOM      3  N   LIG    1       -2.115   0.793   0.048  0.00  0.00    -0.333 N 
ATOM      4  C   LIG    1       -2.220  -0.589   0.061  0.00  0.00    +0.050 A 
ATOM      5  C   LIG    1       -3.344  -1.426   0.105  0.00  0.00    +0.029 A 
ATOM      6  C   LIG    1       -3.118  -2.802   0.103  0.00  0.00    +0.040 A 
ATOM      7  C   LIG    1       -1.833  -3.334   0.060  0.00  0.00    +0.124 A 
ATOM      8  F   LIG    1       -1.665  -4.675   0.058  0.00  0.00    -0.205 F 
ATOM      9  C   LIG    1       -0.716  -2.503   0.018  0.00  0.00    +0.048 A 
ATOM     10  C   LIG    1       -0.895  -1.109   0.018  0.00  0.00    +0.006 A 
ATOM     11  C   LIG    1        0.008   0.005  -0.020  0.00  0.00    -0.013 A 
ENDROOT
BRANCH   3  12
ATOM     12  C   LIG    1       -3.261   1.721   0.088  0.00  0.00    +0.242 C 
BRANCH  12  13
ATOM     13  C   LIG    1       -3.905   1.915   1.484  0.00  0.00    +0.325 C 
ATOM     14  O   LIG    1       -4.935   2.625   1.513  0.00  0.00    -0.249 OA
BRANCH  13  15
ATOM     15  O   LIG    1       -3.392   1.388   2.499  0.00  0.00    -0.479 OA
ATOM     16  H   LIG    1       -2.619   0.865   2.416  0.00  0.00    +0.295 HD
ENDBRANCH  13  15
ENDBRANCH  12  13
ENDBRANCH   3  12
BRANCH  11  17
ATOM     17  C   LIG    1        1.522  -0.085  -0.064  0.00  0.00    +0.093 C 
BRANCH  17  18
ATOM     18  C   LIG    1        2.056  -0.075  -1.489  0.00  0.00    +0.046 A 
ATOM     19  N   LIG    1        2.245   1.150  -2.045  0.00  0.00    -0.251 NA
ATOM     20  C   LIG    1        2.706   1.218  -3.325  0.00  0.00    +0.071 A 
ATOM     21  C   LIG    1        2.902   2.489  -3.917  0.00  0.00    +0.028 A 
ATOM     22  C   LIG    1        3.372   2.587  -5.225  0.00  0.00    +0.002 A 
ATOM     23  C   LIG    1        3.655   1.442  -5.965  0.00  0.00    +0.001 A 
ATOM     24  C   LIG    1        3.473   0.176  -5.413  0.00  0.00    +0.010 A 
ATOM     25  C   LIG    1        2.996   0.043  -4.086  0.00  0.00    +0.000 A 
ATOM     26  C   LIG    1        2.788  -1.216  -3.470  0.00  0.00    +0.012 A 
ATOM     27  C   LIG    1        2.314  -1.269  -2.162  0.00  0.00    +0.024 A 
ENDBRANCH  17  18
ENDBRANCH  11  17
TORSDOF 5
