REMARK  Name = DB11721
REMARK                            x       y       z     vdW  Elec       q    Type
REMARK                         _______ _______ _______ _____ _____    ______ ____
ROOT
ATOM      1  C   LIG    1       -1.840   3.903  -0.004  0.00  0.00    -0.046 A 
ATOM      2  C   LIG    1       -0.517   3.836  -0.443  0.00  0.00    +0.007 A 
ATOM      3  C   LIG    1        0.142   2.611  -0.487  0.00  0.00    +0.046 A 
ATOM      4  C   LIG    1       -0.520   1.438  -0.089  0.00  0.00    +0.121 A 
ATOM      5  C   LIG    1       -1.842   1.516   0.350  0.00  0.00    +0.046 A 
ATOM      6  C   LIG    1       -2.502   2.740   0.394  0.00  0.00    +0.007 A 
ENDROOT
BRANCH   1   7
ATOM      7  C   LIG    1       -2.559   5.247   0.038  0.00  0.00    +0.059 C 
BRANCH   7  15
ATOM      8  S   LIG    1       -4.218   4.673  -2.154  0.00  0.00    -0.054 S 
ATOM      9  C   LIG    1       -5.429   6.001  -2.256  0.00  0.00    +0.279 C 
ATOM     10  N   LIG    1       -4.899   7.118  -1.746  0.00  0.00    -0.246 N 
ATOM     11  H   LIG    1       -5.447   7.965  -1.736  0.00  0.00    +0.158 HD
ATOM     12  C   LIG    1       -3.655   7.138  -1.252  0.00  0.00    +0.234 C 
ATOM     13  O   LIG    1       -3.097   8.127  -0.780  0.00  0.00    -0.274 OA
ATOM     14  O   LIG    1       -6.555   5.871  -2.729  0.00  0.00    -0.263 OA
ATOM     15  C   LIG    1       -3.009   5.755  -1.355  0.00  0.00    +0.146 C 
ENDBRANCH   7  15
ENDBRANCH   1   7
BRANCH   4  16
ATOM     16  O   LIG    1        0.052   0.181  -0.099  0.00  0.00    -0.484 OA
BRANCH  16  17
ATOM     17  C   LIG    1        1.399   0.042  -0.547  0.00  0.00    +0.310 C 
BRANCH  17  18
ATOM     18  C   LIG    1        1.847  -1.430  -0.505  0.00  0.00    +0.218 C 
ATOM     19  O   LIG    1        1.058  -2.295  -0.116  0.00  0.00    -0.287 OA
BRANCH  18  20
ATOM     20  C   LIG    1        3.240  -1.742  -0.957  0.00  0.00    +0.110 A 
ATOM     21  C   LIG    1        3.695  -3.069  -0.987  0.00  0.00    +0.032 A 
ATOM     22  C   LIG    1        4.999  -3.330  -1.413  0.00  0.00    +0.007 A 
ATOM     23  C   LIG    1        5.827  -2.272  -1.797  0.00  0.00    -0.029 A 
ATOM     24  C   LIG    1        5.307  -0.976  -1.741  0.00  0.00    +0.115 A 
ATOM     25  N   LIG    1        4.042  -0.705  -1.331  0.00  0.00    -0.252 NA
BRANCH  23  26
ATOM     26  C   LIG    1        7.251  -2.522  -2.267  0.00  0.00    +0.033 C 
ATOM     27  C   LIG    1        7.354  -2.655  -3.793  0.00  0.00    +0.009 C 
ENDBRANCH  23  26
ENDBRANCH  18  20
ENDBRANCH  17  18
ENDBRANCH  16  17
ENDBRANCH   4  16
TORSDOF 7
