REMARK  Name = DB11870
REMARK                            x       y       z     vdW  Elec       q    Type
REMARK                         _______ _______ _______ _____ _____    ______ ____
ROOT
ATOM      1  C   LIG    1       -0.680   1.248   0.489  0.00  0.00    +0.228 C 
ATOM      2  N   LIG    1       -1.878   1.389  -0.117  0.00  0.00    -0.299 N 
ATOM      3  H   LIG    1       -2.305   0.562  -0.506  0.00  0.00    +0.150 HD
ATOM      4  O   LIG    1       -0.148   2.175   1.104  0.00  0.00    -0.275 OA
ENDROOT
BRANCH   2   5
ATOM      5  C   LIG    1       -2.709   2.608  -0.146  0.00  0.00    +0.190 C 
ATOM      6  C   LIG    1       -3.660   2.599   1.076  0.00  0.00    +0.242 C 
ATOM      7  O   LIG    1       -3.862   1.611   1.783  0.00  0.00    -0.273 OA
ATOM      8  N   LIG    1       -4.229   3.793   1.331  0.00  0.00    -0.283 N 
ATOM      9  H   LIG    1       -4.765   3.794   2.187  0.00  0.00    +0.155 HD
ATOM     10  C   LIG    1       -4.142   5.042   0.693  0.00  0.00    +0.041 A 
ATOM     11  C   LIG    1       -4.108   6.181   1.505  0.00  0.00    +0.024 A 
ATOM     12  C   LIG    1       -4.021   7.459   0.964  0.00  0.00    +0.002 A 
ATOM     13  C   LIG    1       -3.961   7.618  -0.413  0.00  0.00    +0.001 A 
ATOM     14  C   LIG    1       -3.984   6.500  -1.240  0.00  0.00    +0.010 A 
ATOM     15  C   LIG    1       -4.063   5.194  -0.720  0.00  0.00    +0.004 A 
ATOM     16  C   LIG    1       -4.099   4.050  -1.704  0.00  0.00    -0.011 A 
ATOM     17  C   LIG    1       -4.752   4.244  -2.936  0.00  0.00    +0.009 A 
ATOM     18  C   LIG    1       -4.842   3.226  -3.880  0.00  0.00    +0.001 A 
ATOM     19  C   LIG    1       -4.273   1.988  -3.615  0.00  0.00    +0.000 A 
ATOM     20  C   LIG    1       -3.610   1.778  -2.412  0.00  0.00    +0.006 A 
ATOM     21  C   LIG    1       -3.504   2.793  -1.445  0.00  0.00    -0.011 A 
ENDBRANCH   2   5
BRANCH   1  23
ATOM     22  C   LIG    1       -0.615  -1.102  -0.636  0.00  0.00    +0.030 C 
ATOM     23  C   LIG    1        0.020  -0.147   0.420  0.00  0.00    +0.117 C 
ATOM     24  C   LIG    1       -0.209  -0.816   1.809  0.00  0.00    +0.030 C 
BRANCH  23  25
ATOM     25  C   LIG    1        1.548  -0.041   0.116  0.00  0.00    +0.228 C 
ATOM     26  N   LIG    1        1.908   0.682  -0.965  0.00  0.00    -0.308 N 
ATOM     27  H   LIG    1        1.184   1.151  -1.489  0.00  0.00    +0.149 HD
ATOM     28  O   LIG    1        2.376  -0.638   0.808  0.00  0.00    -0.275 OA
BRANCH  26  29
ATOM     29  C   LIG    1        3.279   0.877  -1.444  0.00  0.00    +0.189 C 
BRANCH  29  30
ATOM     30  C   LIG    1        3.763  -0.217  -2.429  0.00  0.00    +0.356 C 
ATOM     31  F   LIG    1        2.932  -0.274  -3.473  0.00  0.00    -0.194 F 
ATOM     32  F   LIG    1        3.713  -1.417  -1.846  0.00  0.00    -0.194 F 
BRANCH  30  33
ATOM     33  C   LIG    1        5.201   0.052  -2.928  0.00  0.00    +0.455 C 
ATOM     34  F   LIG    1        6.072   0.079  -1.918  0.00  0.00    -0.165 F 
ATOM     35  F   LIG    1        5.292   1.231  -3.546  0.00  0.00    -0.165 F 
ATOM     36  F   LIG    1        5.609  -0.884  -3.786  0.00  0.00    -0.165 F 
ENDBRANCH  30  33
ENDBRANCH  29  30
ENDBRANCH  26  29
ENDBRANCH  23  25
ENDBRANCH   1  23
TORSDOF 6
