REMARK  Name = DB11807
REMARK                            x       y       z     vdW  Elec       q    Type
REMARK                         _______ _______ _______ _____ _____    ______ ____
ROOT
ATOM      1  C   LIG    1       -0.461   1.597  -0.021  0.00  0.00    +0.028 C 
ATOM      2  C   LIG    1       -0.019   0.101  -0.016  0.00  0.00    +0.024 C 
ATOM      3  C   LIG    1       -0.548  -0.757   1.233  0.00  0.00    -0.014 C 
ATOM      4  C   LIG    1       -1.455   0.021   2.232  0.00  0.00    +0.013 C 
ATOM      5  C   LIG    1        0.573  -1.387   2.120  0.00  0.00    +0.013 C 
ATOM      6  C   LIG    1       -1.315  -1.921   0.515  0.00  0.00    -0.003 C 
ATOM      7  C   LIG    1       -0.478  -2.157  -0.743  0.00  0.00    +0.009 C 
ATOM      8  C   LIG    1       -2.648  -1.476  -0.130  0.00  0.00    +0.004 C 
ATOM      9  C   LIG    1       -2.174  -0.611  -1.310  0.00  0.00    +0.005 C 
ATOM     10  C   LIG    1       -0.631  -0.713  -1.213  0.00  0.00    +0.010 C 
ENDROOT
BRANCH   2  11
ATOM     11  N   LIG    1        1.459   0.124  -0.068  0.00  0.00    -0.313 NA
ATOM     12  H   LIG    1        1.830   0.602   0.740  0.00  0.00    +0.122 HD
ATOM     13  C   LIG    1        2.115   0.598  -1.283  0.00  0.00    +0.101 C 
ENDBRANCH   2  11
TORSDOF 1
