REMARK  Name = DB11924
REMARK                            x       y       z     vdW  Elec       q    Type
REMARK                         _______ _______ _______ _____ _____    ______ ____
ROOT
ATOM      1  C   UNK    1        3.591  -1.481  -0.101  0.00  0.00    +0.000 C 
ENDROOT
BRANCH   1   2
ATOM      2  C   UNK    1        2.055  -1.456  -0.003  0.00  0.00    +0.000 C 
BRANCH   2   3
ATOM      3  C   UNK    1        1.482  -0.028   0.026  0.00  0.00    +0.000 C 
BRANCH   3   4
ATOM      4  C   UNK    1       -0.055   0.005   0.103  0.00  0.00    -0.000 C 
BRANCH   4   5
ATOM      5  C   UNK    1       -0.621   1.437   0.098  0.00  0.00    -0.000 C 
BRANCH   5   6
ATOM      6  C   UNK    1       -2.159   1.480   0.140  0.00  0.00    -0.000 C 
BRANCH   6   7
ATOM      7  C   UNK    1       -2.716   2.914   0.110  0.00  0.00    -0.000 C 
BRANCH   7   8
ATOM      8  C   UNK    1       -4.254   2.966   0.113  0.00  0.00    -0.000 C 
BRANCH   8   9
ATOM      9  C   UNK    1       -4.805   4.403   0.073  0.00  0.00    -0.000 C 
BRANCH   9  10
ATOM     10  C   UNK    1       -6.343   4.457   0.054  0.00  0.00    -0.000 C 
BRANCH  10  11
ATOM     11  C   UNK    1       -6.894   5.893   0.011  0.00  0.00    -0.000 C 
BRANCH  11  13
ATOM     12  C   UNK    1       -8.984   7.377  -0.057  0.00  0.00    +0.004 C 
ATOM     13  C   UNK    1       -8.432   5.945  -0.018  0.00  0.00    -0.003 C 
ENDBRANCH  11  13
ENDBRANCH  10  11
ENDBRANCH   9  10
ENDBRANCH   8   9
ENDBRANCH   7   8
ENDBRANCH   6   7
ENDBRANCH   5   6
ENDBRANCH   4   5
ENDBRANCH   3   4
ENDBRANCH   2   3
ENDBRANCH   1   2
BRANCH   1  14
ATOM     14  C   UNK    1        4.166  -2.910  -0.138  0.00  0.00    +0.002 C 
BRANCH  14  15
ATOM     15  C   UNK    1        5.710  -2.980  -0.157  0.00  0.00    +0.030 C 
BRANCH  15  16
ATOM     16  C   UNK    1        6.398  -2.371  -1.409  0.00  0.00    +0.102 C 
BRANCH  16  17
ATOM     17  O   UNK    1        5.924  -3.009  -2.585  0.00  0.00    -0.393 OA
ATOM     18  H   UNK    1        4.966  -2.946  -2.602  0.00  0.00    +0.210 HD
ENDBRANCH  16  17
BRANCH  16  19
ATOM     19  C   UNK    1        7.957  -2.364  -1.357  0.00  0.00    -0.020 C 
BRANCH  19  20
ATOM     20  N   UNK    1        8.525  -3.797  -1.272  0.00  0.00    +0.383 N 
ATOM     21  H   UNK    1        9.532  -3.767  -1.196  0.00  0.00    -0.089 HD
ATOM     22  H   UNK    1        8.150  -4.277  -0.466  0.00  0.00    -0.089 HD
ATOM     23  H   UNK    1        8.277  -4.315  -2.103  0.00  0.00    -0.089 HD
ENDBRANCH  19  20
BRANCH  19  24
ATOM     24  C   UNK    1        8.618  -1.599  -2.533  0.00  0.00    +0.142 C 
BRANCH  24  25
ATOM     25  O   UNK    1       10.012  -1.430  -2.353  0.00  0.00    -0.397 OA
ATOM     26  H   UNK    1       10.358  -0.921  -3.090  0.00  0.00    +0.209 HD
ENDBRANCH  24  25
ENDBRANCH  19  24
ENDBRANCH  16  19
ENDBRANCH  15  16
ENDBRANCH  14  15
ENDBRANCH   1  14
TORSDOF 19
