REMARK  Name = DB11206
REMARK                            x       y       z     vdW  Elec       q    Type
REMARK                         _______ _______ _______ _____ _____    ______ ____
ROOT
ATOM      1  C   LIG    1        1.415  -0.249  -0.026  0.00  0.00    +0.168 A 
ATOM      2  N   LIG    1        1.991   0.985  -0.015  0.00  0.00    -0.208 NA
ATOM      3  C   LIG    1        3.355   1.002   0.005  0.00  0.00    +0.164 A 
ATOM      4  N   LIG    1        4.131  -0.121   0.004  0.00  0.00    -0.208 NA
ATOM      5  C   LIG    1        3.460  -1.307  -0.019  0.00  0.00    +0.168 A 
ATOM      6  N   LIG    1        2.104  -1.423  -0.029  0.00  0.00    -0.208 NA
ENDROOT
BRANCH   1  12
ATOM      7  C   LIG    1       -0.835  -1.253   0.647  0.00  0.00    +0.131 A 
ATOM      8  C   LIG    1       -2.227  -1.292   0.534  0.00  0.00    +0.091 A 
ATOM      9  C   LIG    1       -2.906  -0.397  -0.306  0.00  0.00    +0.124 A 
ATOM     10  C   LIG    1       -2.163   0.545  -1.015  0.00  0.00    +0.046 A 
ATOM     11  C   LIG    1       -0.775   0.587  -0.904  0.00  0.00    +0.019 A 
ATOM     12  C   LIG    1       -0.080  -0.314  -0.084  0.00  0.00    +0.061 A 
BRANCH   7  13
ATOM     13  O   LIG    1       -0.244  -2.143   1.510  0.00  0.00    -0.506 OA
ATOM     14  H   LIG    1       -0.875  -2.721   1.944  0.00  0.00    +0.292 HD
ENDBRANCH   7  13
BRANCH   9  15
ATOM     15  O   LIG    1       -4.276  -0.374  -0.488  0.00  0.00    -0.492 OA
BRANCH  15  16
ATOM     16  C   LIG    1       -5.089  -1.339   0.177  0.00  0.00    +0.232 C 
BRANCH  16  17
ATOM     17  C   LIG    1       -6.564  -1.200  -0.274  0.00  0.00    +0.026 C 
BRANCH  17  18
ATOM     18  C   LIG    1       -6.691  -1.357  -1.814  0.00  0.00    +0.003 C 
ATOM     19  C   LIG    1       -8.068  -0.997  -2.397  0.00  0.00    +0.004 C 
ENDBRANCH  17  18
BRANCH  17  20
ATOM     20  C   LIG    1       -7.504  -2.175   0.487  0.00  0.00    +0.007 C 
BRANCH  20  21
ATOM     21  C   LIG    1       -7.564  -1.971   2.018  0.00  0.00    +0.000 C 
BRANCH  21  22
ATOM     22  C   LIG    1       -8.574  -2.885   2.739  0.00  0.00    -0.003 C 
ATOM     23  C   LIG    1      -10.047  -2.575   2.429  0.00  0.00    +0.004 C 
ENDBRANCH  21  22
ENDBRANCH  20  21
ENDBRANCH  17  20
ENDBRANCH  16  17
ENDBRANCH  15  16
ENDBRANCH   9  15
ENDBRANCH   1  12
BRANCH   3  24
ATOM     24  C   LIG    1        4.047   2.338   0.027  0.00  0.00    +0.019 A 
ATOM     25  C   LIG    1        3.317   3.534   0.122  0.00  0.00    +0.015 A 
ATOM     26  C   LIG    1        3.954   4.772   0.142  0.00  0.00    +0.046 A 
ATOM     27  C   LIG    1        5.352   4.848   0.067  0.00  0.00    +0.120 A 
ATOM     28  C   LIG    1        6.087   3.669  -0.027  0.00  0.00    +0.046 A 
ATOM     29  C   LIG    1        5.446   2.434  -0.045  0.00  0.00    +0.015 A 
BRANCH  27  30
ATOM     30  O   LIG    1        6.072   6.027   0.079  0.00  0.00    -0.495 OA
ATOM     31  C   LIG    1        5.375   7.265   0.178  0.00  0.00    +0.277 C 
ENDBRANCH  27  30
ENDBRANCH   3  24
BRANCH   5  32
ATOM     32  C   LIG    1        4.280  -2.563  -0.003  0.00  0.00    +0.061 A 
ATOM     33  C   LIG    1        5.467  -2.600   0.744  0.00  0.00    +0.019 A 
ATOM     34  C   LIG    1        6.255  -3.747   0.802  0.00  0.00    +0.046 A 
ATOM     35  C   LIG    1        5.886  -4.901   0.115  0.00  0.00    +0.124 A 
ATOM     36  C   LIG    1        4.708  -4.879  -0.645  0.00  0.00    +0.091 A 
ATOM     37  C   LIG    1        3.917  -3.730  -0.710  0.00  0.00    +0.131 A 
BRANCH  37  38
ATOM     38  O   LIG    1        2.800  -3.780  -1.506  0.00  0.00    -0.506 OA
ATOM     39  H   LIG    1        2.676  -4.633  -1.928  0.00  0.00    +0.292 HD
ENDBRANCH  37  38
BRANCH  35  40
ATOM     40  O   LIG    1        6.724  -5.991   0.235  0.00  0.00    -0.492 OA
BRANCH  40  41
ATOM     41  C   LIG    1        6.377  -7.218  -0.404  0.00  0.00    +0.232 C 
BRANCH  41  42
ATOM     42  C   LIG    1        7.437  -8.300  -0.088  0.00  0.00    +0.026 C 
BRANCH  42  43
ATOM     43  C   LIG    1        8.830  -7.962  -0.680  0.00  0.00    +0.003 C 
ATOM     44  C   LIG    1        8.874  -7.854  -2.214  0.00  0.00    +0.004 C 
ENDBRANCH  42  43
BRANCH  42  45
ATOM     45  C   LIG    1        7.559  -8.599   1.431  0.00  0.00    +0.007 C 
BRANCH  45  46
ATOM     46  C   LIG    1        6.261  -9.005   2.164  0.00  0.00    +0.000 C 
BRANCH  46  47
ATOM     47  C   LIG    1        5.595 -10.283   1.621  0.00  0.00    -0.003 C 
ATOM     48  C   LIG    1        4.364 -10.703   2.434  0.00  0.00    +0.004 C 
ENDBRANCH  46  47
ENDBRANCH  45  46
ENDBRANCH  42  45
ENDBRANCH  41  42
ENDBRANCH  40  41
ENDBRANCH  35  40
ENDBRANCH   5  32
TORSDOF 20
