REMARK  Name = DB12745
REMARK                            x       y       z     vdW  Elec       q    Type
REMARK                         _______ _______ _______ _____ _____    ______ ____
ROOT
ATOM      1  N   LIG    1        4.054   2.354  -0.048  0.00  0.00    -0.319 N 
ATOM      2  C   LIG    1        2.935   3.183  -0.081  0.00  0.00    +0.167 A 
ATOM      3  N   LIG    1        1.810   2.507  -0.089  0.00  0.00    -0.223 NA
ATOM      4  C   LIG    1        2.172   1.190  -0.034  0.00  0.00    +0.127 A 
ATOM      5  C   LIG    1        1.388   0.022  -0.005  0.00  0.00    +0.141 A 
ATOM      6  N   LIG    1        1.953  -1.209   0.053  0.00  0.00    -0.241 NA
ATOM      7  C   LIG    1        3.304  -1.309   0.083  0.00  0.00    +0.160 A 
ATOM      8  C   LIG    1        4.189  -0.218   0.059  0.00  0.00    +0.164 A 
ATOM      9  C   LIG    1        3.582   1.050  -0.002  0.00  0.00    +0.116 A 
ENDROOT
BRANCH   2  10
ATOM     10  C   LIG    1        2.938   4.661  -0.085  0.00  0.00    +0.190 A 
ATOM     11  N   LIG    1        3.875   5.367   0.502  0.00  0.00    -0.044 NA
ATOM     12  O   LIG    1        3.512   6.691   0.280  0.00  0.00    -0.240 OA
ATOM     13  N   LIG    1        2.330   6.772  -0.450  0.00  0.00    -0.033 NA
ATOM     14  C   LIG    1        1.995   5.525  -0.659  0.00  0.00    +0.191 A 
BRANCH  14  15
ATOM     15  N   LIG    1        0.862   5.225  -1.360  0.00  0.00    -0.339 N 
ATOM     16  H   LIG    1        0.258   5.948  -1.723  0.00  0.00    +0.144 HD
ATOM     17  H   LIG    1        0.579   4.269  -1.522  0.00  0.00    +0.144 HD
ENDBRANCH  14  15
ENDBRANCH   2  10
BRANCH   1  19
ATOM     18  C   LIG    1        5.999   2.797   1.407  0.00  0.00    +0.027 C 
ATOM     19  C   LIG    1        5.463   2.754  -0.033  0.00  0.00    +0.120 C 
ENDBRANCH   1  19
BRANCH   5  20
ATOM     20  C   LIG    1       -0.068   0.039  -0.029  0.00  0.00    -0.041 C 
ATOM     21  C   LIG    1       -1.289   0.078  -0.043  0.00  0.00    -0.061 C 
BRANCH  21  22
ATOM     22  C   LIG    1       -2.764   0.151  -0.047  0.00  0.00    +0.121 C 
ATOM     23  C   LIG    1       -3.240   1.553  -0.485  0.00  0.00    +0.055 C 
ATOM     24  C   LIG    1       -3.334  -0.212   1.341  0.00  0.00    +0.055 C 
BRANCH  22  25
ATOM     25  O   LIG    1       -3.317  -0.769  -0.967  0.00  0.00    -0.377 OA
ATOM     26  H   LIG    1       -4.274  -0.693  -0.935  0.00  0.00    +0.211 HD
ENDBRANCH  22  25
ENDBRANCH  21  22
ENDBRANCH   5  20
BRANCH   8  27
ATOM     27  O   LIG    1        5.567  -0.292   0.090  0.00  0.00    -0.488 OA
BRANCH  27  28
ATOM     28  C   LIG    1        6.186  -1.574   0.118  0.00  0.00    +0.231 C 
BRANCH  28  29
ATOM     29  C   LIG    1        7.718  -1.406   0.118  0.00  0.00    +0.009 C 
ATOM     30  C   LIG    1        8.429  -2.777  -0.008  0.00  0.00    -0.076 C 
ATOM     31  N   LIG    1        9.959  -2.578  -0.046  0.00  0.00    +0.379 N 
ATOM     32  H   LIG    1       10.414  -3.478  -0.107  0.00  0.00    -0.086 HD
ATOM     33  H   LIG    1       10.204  -2.066  -0.882  0.00  0.00    -0.086 HD
ATOM     34  C   LIG    1       10.490  -1.817   1.185  0.00  0.00    -0.083 C 
ATOM     35  C   LIG    1        9.757  -0.468   1.325  0.00  0.00    -0.019 C 
ATOM     36  C   LIG    1        8.229  -0.650   1.367  0.00  0.00    +0.003 C 
ENDBRANCH  28  29
ENDBRANCH  27  28
ENDBRANCH   8  27
TORSDOF 9
