REMARK  Name = DB12937
REMARK                            x       y       z     vdW  Elec       q    Type
REMARK                         _______ _______ _______ _____ _____    ______ ____
ROOT
ATOM      1  C   LIG    1        1.403  -0.109   0.245  0.00  0.00    +0.181 A 
ATOM      2  O   LIG    1        1.843   0.161  -1.012  0.00  0.00    -0.451 OA
ATOM      3  C   LIG    1        3.197   0.223  -1.254  0.00  0.00    +0.147 A 
ATOM      4  C   LIG    1        3.559   0.574  -2.552  0.00  0.00    +0.092 A 
ATOM      5  C   LIG    1        4.904   0.656  -2.893  0.00  0.00    +0.124 A 
ATOM      6  C   LIG    1        5.879   0.384  -1.938  0.00  0.00    +0.091 A 
ATOM      7  C   LIG    1        5.520   0.032  -0.634  0.00  0.00    +0.135 A 
ATOM      8  C   LIG    1        4.159  -0.054  -0.263  0.00  0.00    +0.109 A 
ATOM      9  C   LIG    1        3.693  -0.420   1.127  0.00  0.00    +0.238 A 
ATOM     10  O   LIG    1        4.478  -0.691   2.039  0.00  0.00    -0.283 OA
ATOM     11  C   LIG    1        2.227  -0.412   1.278  0.00  0.00    +0.208 A 
ENDROOT
BRANCH   1  13
ATOM     12  C   LIG    1       -0.811  -1.078   0.973  0.00  0.00    +0.015 A 
ATOM     13  C   LIG    1       -0.082  -0.119   0.257  0.00  0.00    +0.025 A 
ATOM     14  C   LIG    1       -0.789   0.855  -0.461  0.00  0.00    +0.061 A 
ATOM     15  C   LIG    1       -2.188   0.870  -0.485  0.00  0.00    +0.174 A 
ATOM     16  C   LIG    1       -2.894  -0.094   0.242  0.00  0.00    +0.159 A 
ATOM     17  C   LIG    1       -2.205  -1.064   0.969  0.00  0.00    +0.050 A 
BRANCH  16  18
ATOM     18  O   LIG    1       -4.265  -0.096   0.241  0.00  0.00    -0.503 OA
ATOM     19  H   LIG    1       -4.629   0.610  -0.300  0.00  0.00    +0.292 HD
ENDBRANCH  16  18
BRANCH  15  20
ATOM     20  O   LIG    1       -2.886   1.814  -1.197  0.00  0.00    -0.400 OA
BRANCH  20  21
ATOM     21  P   LIG    1       -2.325   2.905  -2.464  0.00  0.00    +0.528 P 
ATOM     22  O   LIG    1       -1.609   4.056  -1.733  0.00  0.00    -0.216 OA
BRANCH  21  23
ATOM     23  O   LIG    1       -3.595   3.363  -3.203  0.00  0.00    -0.293 OA
ATOM     24  H   LIG    1       -4.154   3.876  -2.599  0.00  0.00    +0.223 HD
ENDBRANCH  21  23
BRANCH  21  25
ATOM     25  O   LIG    1       -1.380   2.080  -3.357  0.00  0.00    -0.293 OA
ATOM     26  H   LIG    1       -0.599   1.817  -2.846  0.00  0.00    +0.223 HD
ENDBRANCH  21  25
ENDBRANCH  20  21
ENDBRANCH  15  20
ENDBRANCH   1  13
BRANCH   5  27
ATOM     27  O   LIG    1        5.266   1.004  -4.166  0.00  0.00    -0.507 OA
ATOM     28  H   LIG    1        4.509   1.177  -4.730  0.00  0.00    +0.292 HD
ENDBRANCH   5  27
BRANCH   7  29
ATOM     29  O   LIG    1        6.545  -0.215   0.244  0.00  0.00    -0.506 OA
ATOM     30  H   LIG    1        7.411  -0.113  -0.157  0.00  0.00    +0.292 HD
ENDBRANCH   7  29
BRANCH  11  31
ATOM     31  O   LIG    1        1.804  -0.708   2.541  0.00  0.00    -0.501 OA
ATOM     32  H   LIG    1        2.565  -0.875   3.103  0.00  0.00    +0.292 HD
ENDBRANCH  11  31
TORSDOF 9
