REMARK  Name = DB12226
REMARK                            x       y       z     vdW  Elec       q    Type
REMARK                         _______ _______ _______ _____ _____    ______ ____
ROOT
ATOM      1  C   LIG    1       -0.541  -0.812   1.274  0.00  0.00    +0.008 C 
ATOM      2  C   LIG    1       -0.033  -0.033   0.033  0.00  0.00    -0.007 C 
ENDROOT
BRANCH   2   3
ATOM      3  C   LIG    1        1.533   0.033  -0.033  0.00  0.00    -0.007 C 
ATOM      4  C   LIG    1        2.041   0.812  -1.273  0.00  0.00    +0.008 C 
BRANCH   3   5
ATOM      5  C   LIG    1        2.166   0.604   1.270  0.00  0.00    +0.038 C 
BRANCH   5   6
ATOM      6  C   LIG    1        3.692   0.639   1.283  0.00  0.00    -0.043 A 
ATOM      7  C   LIG    1        4.373   1.858   1.259  0.00  0.00    +0.053 A 
ATOM      8  C   LIG    1        5.779   1.902   1.271  0.00  0.00    +0.162 A 
ATOM      9  C   LIG    1        6.504   0.701   1.309  0.00  0.00    +0.161 A 
ATOM     10  C   LIG    1        5.811  -0.522   1.337  0.00  0.00    +0.049 A 
ATOM     11  C   LIG    1        4.419  -0.550   1.325  0.00  0.00    +0.007 A 
BRANCH   8  12
ATOM     12  O   LIG    1        6.509   3.077   1.248  0.00  0.00    -0.491 OA
ATOM     13  C   LIG    1        5.828   4.327   1.215  0.00  0.00    +0.277 C 
ENDBRANCH   8  12
BRANCH   9  14
ATOM     14  O   LIG    1        7.885   0.798   1.319  0.00  0.00    -0.491 OA
ATOM     15  C   LIG    1        8.671  -0.388   1.360  0.00  0.00    +0.277 C 
ENDBRANCH   9  14
ENDBRANCH   5   6
ENDBRANCH   3   5
ENDBRANCH   2   3
BRANCH   2  16
ATOM     16  C   LIG    1       -0.666  -0.604  -1.270  0.00  0.00    +0.038 C 
BRANCH  16  17
ATOM     17  C   LIG    1       -2.192  -0.639  -1.283  0.00  0.00    -0.043 A 
ATOM     18  C   LIG    1       -2.873  -1.858  -1.259  0.00  0.00    +0.053 A 
ATOM     19  C   LIG    1       -4.279  -1.902  -1.271  0.00  0.00    +0.162 A 
ATOM     20  C   LIG    1       -5.004  -0.701  -1.309  0.00  0.00    +0.161 A 
ATOM     21  C   LIG    1       -4.311   0.522  -1.337  0.00  0.00    +0.049 A 
ATOM     22  C   LIG    1       -2.919   0.550  -1.325  0.00  0.00    +0.007 A 
BRANCH  19  23
ATOM     23  O   LIG    1       -5.009  -3.077  -1.248  0.00  0.00    -0.491 OA
ATOM     24  C   LIG    1       -4.328  -4.327  -1.215  0.00  0.00    +0.277 C 
ENDBRANCH  19  23
BRANCH  20  25
ATOM     25  O   LIG    1       -6.385  -0.798  -1.319  0.00  0.00    -0.491 OA
ATOM     26  C   LIG    1       -7.171   0.388  -1.360  0.00  0.00    +0.277 C 
ENDBRANCH  20  25
ENDBRANCH  16  17
ENDBRANCH   2  16
TORSDOF 9
