REMARK  Name = DB12289
REMARK                            x       y       z     vdW  Elec       q    Type
REMARK                         _______ _______ _______ _____ _____    ______ ____
ROOT
ATOM      1  C   LIG    1        1.631   0.041  -0.303  0.00  0.00    +0.097 A 
ATOM      2  C   LIG    1        2.392   1.051  -0.923  0.00  0.00    +0.140 A 
ATOM      3  C   LIG    1        3.785   0.993  -0.887  0.00  0.00    +0.047 A 
ATOM      4  C   LIG    1        4.430  -0.063  -0.249  0.00  0.00    +0.005 A 
ATOM      5  C   LIG    1        3.687  -1.074   0.354  0.00  0.00    +0.025 A 
ATOM      6  C   LIG    1        2.284  -1.039   0.326  0.00  0.00    +0.059 A 
ENDROOT
BRANCH   1   8
ATOM      7  C   LIG    1       -0.559   0.938   0.315  0.00  0.00    +0.248 C 
ATOM      8  N   LIG    1        0.224   0.062  -0.349  0.00  0.00    -0.277 N 
ATOM      9  H   LIG    1       -0.220  -0.726  -0.798  0.00  0.00    +0.155 HD
ATOM     10  O   LIG    1       -0.119   1.912   0.933  0.00  0.00    -0.270 OA
BRANCH   7  14
ATOM     11  C   LIG    1       -4.831   0.191   0.196  0.00  0.00    +0.030 A 
ATOM     12  C   LIG    1       -3.922  -0.833  -0.095  0.00  0.00    +0.024 A 
ATOM     13  C   LIG    1       -2.550  -0.601  -0.070  0.00  0.00    +0.015 A 
ATOM     14  C   LIG    1       -2.048   0.666   0.263  0.00  0.00    +0.037 A 
ATOM     15  C   LIG    1       -2.954   1.686   0.578  0.00  0.00    +0.015 A 
ATOM     16  C   LIG    1       -4.326   1.452   0.546  0.00  0.00    +0.024 A 
BRANCH  11  22
ATOM     17  C   LIG    1      -10.751  -0.344  -0.823  0.00  0.00    -0.096 C 
ATOM     18  N   LIG    1       -9.350  -0.395  -0.177  0.00  0.00    +0.379 N 
ATOM     19  H   LIG    1       -9.467  -0.167   0.801  0.00  0.00    -0.082 HD
ATOM     20  C   LIG    1       -8.440   0.676  -0.825  0.00  0.00    -0.060 C 
ATOM     21  C   LIG    1       -7.164   0.996  -0.029  0.00  0.00    +0.086 C 
ATOM     22  N   LIG    1       -6.209  -0.098   0.178  0.00  0.00    -0.332 N 
ATOM     23  C   LIG    1       -6.679  -1.062   1.180  0.00  0.00    +0.103 C 
ATOM     24  C   LIG    1       -7.664  -2.160   0.735  0.00  0.00    +0.000 C 
ATOM     25  C   LIG    1       -8.775  -1.827  -0.278  0.00  0.00    -0.078 C 
ENDBRANCH  11  22
ENDBRANCH   7  14
ENDBRANCH   1   8
BRANCH   6  26
ATOM     26  N   LIG    1        1.510  -2.040   0.947  0.00  0.00    -0.280 N 
ATOM     27  H   LIG    1        0.564  -1.764   1.163  0.00  0.00    +0.155 HD
ATOM     28  C   LIG    1        1.705  -3.377   0.894  0.00  0.00    +0.248 C 
ATOM     29  O   LIG    1        2.723  -3.902   0.438  0.00  0.00    -0.270 OA
BRANCH  28  30
ATOM     30  C   LIG    1        0.566  -4.232   1.419  0.00  0.00    +0.037 A 
ATOM     31  C   LIG    1       -0.585  -3.662   1.991  0.00  0.00    +0.016 A 
ATOM     32  C   LIG    1       -1.619  -4.467   2.459  0.00  0.00    +0.046 A 
ATOM     33  C   LIG    1       -1.528  -5.863   2.367  0.00  0.00    +0.120 A 
ATOM     34  C   LIG    1       -0.388  -6.431   1.801  0.00  0.00    +0.046 A 
ATOM     35  C   LIG    1        0.648  -5.628   1.333  0.00  0.00    +0.016 A 
BRANCH  33  36
ATOM     36  O   LIG    1       -2.504  -6.738   2.804  0.00  0.00    -0.495 OA
ATOM     37  C   LIG    1       -3.686  -6.218   3.403  0.00  0.00    +0.277 C 
ENDBRANCH  33  36
ENDBRANCH  28  30
ENDBRANCH   6  26
BRANCH   2  38
ATOM     38  O   LIG    1        1.801   2.098  -1.587  0.00  0.00    -0.505 OA
ATOM     39  H   LIG    1        2.437   2.719  -1.949  0.00  0.00    +0.292 HD
ENDBRANCH   2  38
TORSDOF 7
