REMARK  Name = DB12305
REMARK                            x       y       z     vdW  Elec       q    Type
REMARK                         _______ _______ _______ _____ _____    ______ ____
ROOT
ATOM      1  C   LIG    1       -0.799  -2.960   2.347  0.00  0.00    +0.000 A 
ATOM      2  C   LIG    1       -0.362  -2.180   1.281  0.00  0.00    +0.004 A 
ATOM      3  C   LIG    1       -0.485  -0.783   1.293  0.00  0.00    -0.038 A 
ATOM      4  C   LIG    1        0.087   0.033   0.117  0.00  0.00    +0.049 C 
ATOM      5  C   LIG    1       -0.462   1.479   0.066  0.00  0.00    +0.011 C 
ATOM      6  C   LIG    1       -0.424   2.127   1.461  0.00  0.00    -0.011 C 
ATOM      7  C   LIG    1       -1.298   1.357   2.480  0.00  0.00    -0.044 C 
ATOM      8  C   LIG    1       -1.080  -0.161   2.421  0.00  0.00    -0.058 A 
ATOM      9  C   LIG    1       -1.505  -0.966   3.489  0.00  0.00    +0.002 A 
ATOM     10  C   LIG    1       -1.368  -2.350   3.457  0.00  0.00    +0.000 A 
ENDROOT
BRANCH   4  11
ATOM     11  C   LIG    1        1.622   0.004   0.041  0.00  0.00    -0.038 A 
ATOM     12  C   LIG    1        2.417  -0.114   1.190  0.00  0.00    +0.025 A 
ATOM     13  C   LIG    1        3.810  -0.143   1.096  0.00  0.00    +0.060 A 
ATOM     14 CL   LIG    1        4.740  -0.289   2.547  0.00  0.00    -0.082 Cl
ATOM     15  C   LIG    1        4.425  -0.054  -0.159  0.00  0.00    +0.059 A 
ATOM     16 CL   LIG    1        6.146  -0.086  -0.324  0.00  0.00    -0.082 Cl
ATOM     17  C   LIG    1        3.640   0.066  -1.306  0.00  0.00    +0.022 A 
ATOM     18  C   LIG    1        2.249   0.095  -1.207  0.00  0.00    +0.006 A 
ENDBRANCH   4  11
BRANCH   7  19
ATOM     19  N   LIG    1       -2.778   1.635   2.157  0.00  0.00    +0.383 N 
ATOM     20  H   LIG    1       -2.964   2.626   2.214  0.00  0.00    -0.089 HD
ATOM     21  H   LIG    1       -2.996   1.318   1.224  0.00  0.00    -0.089 HD
ATOM     22  H   LIG    1       -3.373   1.156   2.818  0.00  0.00    -0.089 HD
ENDBRANCH   7  19
TORSDOF 2
