REMARK  Name = DB12870
REMARK                            x       y       z     vdW  Elec       q    Type
REMARK                         _______ _______ _______ _____ _____    ______ ____
ROOT
ATOM      1  C   LIG    1        2.387  -1.331  -0.312  0.00  0.00    +0.009 C 
ENDROOT
BRANCH   1   2
ATOM      2  C   LIG    1        1.632   0.012  -0.203  0.00  0.00    +0.112 C 
BRANCH   2   3
ATOM      3  S   LIG    1       -0.245  -0.197  -0.411  0.00  0.00    +0.046 S 
ATOM      4  O   LIG    1       -0.887   1.109  -0.235  0.00  0.00    -0.248 OA
ATOM      5  N   LIG    1       -0.363  -1.043  -1.686  0.00  0.00    -0.252 NA
ATOM      6  H   LIG    1       -0.811  -1.934  -1.531  0.00  0.00    +0.197 HD
BRANCH   3   7
ATOM      7  C   LIG    1       -0.786  -1.403   0.954  0.00  0.00    +0.113 C 
BRANCH   7   8
ATOM      8  C   LIG    1       -2.132  -0.971   1.558  0.00  0.00    +0.014 C 
BRANCH   8  10
ATOM      9  C   LIG    1       -3.984  -1.519   3.239  0.00  0.00    +0.004 C 
ATOM     10  C   LIG    1       -2.642  -1.948   2.632  0.00  0.00    -0.002 C 
ENDBRANCH   8  10
ENDBRANCH   7   8
ENDBRANCH   3   7
ENDBRANCH   2   3
ENDBRANCH   1   2
BRANCH   1  11
ATOM     11  CA  LIG    1        3.890  -1.244   0.060  0.00  0.00    +0.037 C 
BRANCH  11  12
ATOM     12  N   LIG    1        4.418  -2.671   0.288  0.00  0.00    +0.387 N 
ATOM     13  H1  LIG    1        3.894  -3.118   1.026  0.00  0.00    -0.089 HD
ATOM     14  H2  LIG    1        4.320  -3.216  -0.556  0.00  0.00    -0.089 HD
ATOM     15  H3  LIG    1        5.392  -2.642   0.556  0.00  0.00    -0.089 HD
ENDBRANCH  11  12
BRANCH  11  16
ATOM     16  C   LIG    1        4.743  -0.575  -1.054  0.00  0.00    +0.290 C 
ATOM     17  O   LIG    1        4.742   0.675  -1.067  0.00  0.00    -0.253 OA
BRANCH  16  18
ATOM     18  OXT LIG    1        5.364  -1.280  -1.885  0.00  0.00    -0.482 OA
ATOM     19  HXT LIG    1        5.329  -2.215  -1.826  0.00  0.00    +0.295 HD
ENDBRANCH  16  18
ENDBRANCH  11  16
ENDBRANCH   1  11
TORSDOF 9
