REMARK  Name = DB12926
REMARK                            x       y       z     vdW  Elec       q    Type
REMARK                         _______ _______ _______ _____ _____    ______ ____
ROOT
ATOM      1  C   LIG    1        1.958   1.757   0.175  0.00  0.00    -0.060 C 
ENDROOT
BRANCH   1   2
ATOM      2  N   LIG    1        1.365   0.366   0.458  0.00  0.00    +0.384 N 
ATOM      3  H   LIG    1        1.819  -0.316  -0.134  0.00  0.00    -0.085 HD
ATOM      4  H   LIG    1        1.585   0.131   1.416  0.00  0.00    -0.085 HD
BRANCH   2   6
ATOM      5  C   LIG    1       -0.540   0.368  -1.212  0.00  0.00    -0.011 C 
ATOM      6  C   LIG    1       -0.164   0.231   0.282  0.00  0.00    -0.041 C 
BRANCH   6   7
ATOM      7  C   LIG    1       -0.639  -1.090   0.954  0.00  0.00    +0.130 C 
BRANCH   7   8
ATOM      8  C   LIG    1       -2.166  -1.156   1.072  0.00  0.00    -0.021 A 
ATOM      9  C   LIG    1       -2.941  -1.884   0.159  0.00  0.00    +0.006 A 
ATOM     10  C   LIG    1       -4.327  -1.912   0.284  0.00  0.00    +0.000 A 
ATOM     11  C   LIG    1       -4.942  -1.210   1.318  0.00  0.00    +0.000 A 
ATOM     12  C   LIG    1       -4.183  -0.480   2.228  0.00  0.00    +0.000 A 
ATOM     13  C   LIG    1       -2.796  -0.452   2.104  0.00  0.00    +0.006 A 
ENDBRANCH   7   8
BRANCH   7  14
ATOM     14  O   LIG    1       -0.074  -2.220   0.305  0.00  0.00    -0.389 OA
ATOM     15  H   LIG    1       -0.282  -3.003   0.821  0.00  0.00    +0.210 HD
ENDBRANCH   7  14
ENDBRANCH   6   7
ENDBRANCH   2   6
ENDBRANCH   1   2
BRANCH   1  16
ATOM     16  C   LIG    1        3.462   1.741   0.507  0.00  0.00    +0.104 C 
BRANCH  16  17
ATOM     17  N   LIG    1        4.067   3.043   0.243  0.00  0.00    -0.326 N 
ATOM     18  C   LIG    1        4.315   3.660  -0.967  0.00  0.00    +0.151 A 
ATOM     19  C   LIG    1        4.090   3.212  -2.327  0.00  0.00    +0.282 A 
ATOM     20  N   LIG    1        4.466   4.208  -3.217  0.00  0.00    -0.262 N 
ATOM     21  C   LIG    1        4.287   3.870  -4.650  0.00  0.00    +0.157 C 
ATOM     22  C   LIG    1        5.053   5.448  -2.981  0.00  0.00    +0.333 A 
ATOM     23  N   LIG    1        5.269   5.744  -1.655  0.00  0.00    -0.280 N 
ATOM     24  C   LIG    1        5.899   7.030  -1.319  0.00  0.00    +0.155 C 
ATOM     25  O   LIG    1        5.361   6.239  -3.881  0.00  0.00    -0.246 OA
ATOM     26  O   LIG    1        3.628   2.117  -2.656  0.00  0.00    -0.265 OA
ATOM     27  C   LIG    1        4.899   4.873  -0.638  0.00  0.00    +0.168 A 
ATOM     28  N   LIG    1        5.031   5.034   0.670  0.00  0.00    -0.218 NA
ATOM     29  C   LIG    1        4.539   3.931   1.183  0.00  0.00    +0.202 A 
ENDBRANCH  16  17
ENDBRANCH   1  16
TORSDOF 7
