REMARK  Name = DB12645
REMARK                            x       y       z     vdW  Elec       q    Type
REMARK                         _______ _______ _______ _____ _____    ______ ____
ROOT
ATOM      1  C   LIG    1        8.025  -0.060   1.373  0.00  0.00    +0.269 C 
ENDROOT
BRANCH   1   7
ATOM      2  C   LIG    1        1.601   0.032   0.029  0.00  0.00    -0.063 A 
ATOM      3  C   LIG    1        2.290   0.378   1.193  0.00  0.00    +0.010 A 
ATOM      4  C   LIG    1        3.702   0.269   1.255  0.00  0.00    -0.018 A 
ATOM      5  C   LIG    1        4.427   0.626   2.418  0.00  0.00    +0.009 A 
ATOM      6  C   LIG    1        5.815   0.513   2.445  0.00  0.00    +0.007 A 
ATOM      7  C   LIG    1        6.513   0.045   1.332  0.00  0.00    -0.010 A 
ATOM      8  C   LIG    1        5.824  -0.318   0.175  0.00  0.00    +0.015 A 
ATOM      9  C   LIG    1        4.413  -0.211   0.114  0.00  0.00    -0.018 A 
ATOM     10  C   LIG    1        3.687  -0.567  -1.050  0.00  0.00    +0.009 A 
ATOM     11  C   LIG    1        2.301  -0.445  -1.079  0.00  0.00    +0.002 A 
BRANCH   2  12
ATOM     12  C   LIG    1        0.083   0.145  -0.013  0.00  0.00    -0.043 C 
BRANCH  12  13
ATOM     13  N   LIG    1       -0.460   1.576  -0.267  0.00  0.00    +0.382 N 
ATOM     14  H   LIG    1       -0.020   2.177   0.417  0.00  0.00    -0.081 HD
BRANCH  13  16
ATOM     15  C   LIG    1       -0.210   3.641  -1.758  0.00  0.00    -0.017 C 
ATOM     16  C   LIG    1       -0.036   2.116  -1.658  0.00  0.00    -0.082 C 
ENDBRANCH  13  16
BRANCH  13  17
ATOM     17  C   LIG    1       -1.992   1.669  -0.040  0.00  0.00    -0.082 C 
ATOM     18  C   LIG    1       -2.361   1.515   1.446  0.00  0.00    -0.017 C 
ENDBRANCH  13  17
ENDBRANCH  12  13
ENDBRANCH   2  12
ENDBRANCH   1   7
BRANCH   1  19
ATOM     19  O   LIG    1        8.589   1.107   0.787  0.00  0.00    -0.445 OA
BRANCH  19  20
ATOM     20  C   LIG    1        9.921   1.226   0.619  0.00  0.00    +0.405 C 
ATOM     21  N   LIG    1       10.173   2.454   0.015  0.00  0.00    -0.251 N 
ATOM     22  H   LIG    1        9.363   3.032  -0.154  0.00  0.00    +0.158 HD
ATOM     23  O   LIG    1       10.743   0.373   0.958  0.00  0.00    -0.226 OA
BRANCH  21  24
ATOM     24  C   LIG    1       11.395   3.023  -0.381  0.00  0.00    +0.036 A 
ATOM     25  C   LIG    1       12.630   2.362  -0.333  0.00  0.00    +0.024 A 
ATOM     26  C   LIG    1       13.786   3.012  -0.756  0.00  0.00    +0.015 A 
ATOM     27  C   LIG    1       13.735   4.332  -1.236  0.00  0.00    +0.039 A 
ATOM     28  C   LIG    1       12.493   4.980  -1.281  0.00  0.00    +0.015 A 
ATOM     29  C   LIG    1       11.336   4.332  -0.860  0.00  0.00    +0.024 A 
BRANCH  27  30
ATOM     30  C   LIG    1       14.981   5.061  -1.703  0.00  0.00    +0.267 C 
ATOM     31  N   LIG    1       16.149   4.401  -1.579  0.00  0.00    -0.193 N 
ATOM     32  H   LIG    1       16.304   3.461  -1.243  0.00  0.00    +0.183 HD
ATOM     33  O   LIG    1       14.900   6.204  -2.165  0.00  0.00    -0.268 OA
BRANCH  31  34
ATOM     34  O   LIG    1       17.317   5.015  -2.045  0.00  0.00    -0.295 OA
ATOM     35  H   LIG    1       17.524   4.520  -2.841  0.00  0.00    +0.241 HD
ENDBRANCH  31  34
ENDBRANCH  27  30
ENDBRANCH  21  24
ENDBRANCH  19  20
ENDBRANCH   1  19
TORSDOF 10
