REMARK  Name = DB12160
REMARK                            x       y       z     vdW  Elec       q    Type
REMARK                         _______ _______ _______ _____ _____    ______ ____
ROOT
ATOM      1  C   UNK A  0       -0.799   0.935   0.207  0.00  0.00    +0.229 C 
ATOM      2  N   CYS A  1        0.062  -0.029  -0.174  0.00  0.00    -0.301 N 
ATOM      3  H   CYS A  1       -0.314  -0.876  -0.577  0.00  0.00    +0.150 HD
ATOM      4  O   UNK A  0       -0.411   2.022   0.639  0.00  0.00    -0.274 OA
ENDROOT
BRANCH   1   5
ATOM      5  C   UNK A  0       -2.323   0.636   0.121  0.00  0.00    +0.084 C 
ATOM      6  C   UNK A  0       -2.777  -0.157   1.367  0.00  0.00    +0.032 C 
ATOM      7  C   UNK A  0       -3.167   1.924  -0.042  0.00  0.00    +0.032 C 
BRANCH   5   8
ATOM      8  S   UNK A  0       -2.704  -0.399  -1.340  0.00  0.00    -0.163 S 
ATOM      9  H   UNK A  0       -4.014  -0.504  -1.099  0.00  0.00    +0.103 HD
ENDBRANCH   5   8
ENDBRANCH   1   5
BRANCH   2  10
ATOM     10  CA  CYS A  1        1.535   0.039  -0.145  0.00  0.00    +0.191 C 
BRANCH  10  11
ATOM     11  C   CYS A  1        2.081  -0.781  -1.373  0.00  0.00    +0.326 C 
ATOM     12  O   CYS A  1        1.665  -1.961  -1.492  0.00  0.00    -0.249 OA
BRANCH  11  13
ATOM     13  OXT CYS A  1        2.926  -0.172  -2.068  0.00  0.00    -0.479 OA
ATOM     14  HXT CYS A  1        3.146   0.716  -1.867  0.00  0.00    +0.295 HD
ENDBRANCH  11  13
ENDBRANCH  10  11
BRANCH  10  15
ATOM     15  CB  CYS A  1        2.144  -0.514   1.176  0.00  0.00    +0.099 C 
BRANCH  15  16
ATOM     16  SG  CYS A  1        1.753   0.504   2.629  0.00  0.00    -0.176 S 
ATOM     17  HG  CYS A  1        2.415  -0.252   3.510  0.00  0.00    +0.102 HD
ENDBRANCH  15  16
ENDBRANCH  10  15
ENDBRANCH   2  10
TORSDOF 7
