REMARK  Name = DB12200
REMARK                            x       y       z     vdW  Elec       q    Type
REMARK                         _______ _______ _______ _____ _____    ______ ____
ROOT
ATOM      1  C   LIG    1        1.597   0.171   0.143  0.00  0.00    +0.123 C 
ATOM      2  C   LIG    1        2.061   1.027   1.317  0.00  0.00    +0.228 C 
ATOM      3  O   LIG    1        1.755   0.857   2.496  0.00  0.00    -0.275 OA
ATOM      4  N   LIG    1        2.867   1.990   0.825  0.00  0.00    -0.255 N 
ATOM      5  H   LIG    1        3.308   2.677   1.419  0.00  0.00    +0.158 HD
ATOM      6  C   LIG    1        3.043   1.979  -0.512  0.00  0.00    +0.228 C 
ATOM      7  O   LIG    1        3.736   2.755  -1.168  0.00  0.00    -0.275 OA
ATOM      8  C   LIG    1        2.217   0.827  -1.075  0.00  0.00    +0.123 C 
ENDROOT
BRANCH   8   9
ATOM      9  C   LIG    1        3.080  -0.099  -1.928  0.00  0.00    -0.009 A 
ATOM     10  C   LIG    1        4.249  -0.850  -1.525  0.00  0.00    +0.004 A 
ATOM     11  C   LIG    1        4.982  -1.010  -0.334  0.00  0.00    +0.010 A 
ATOM     12  C   LIG    1        6.095  -1.855  -0.329  0.00  0.00    +0.001 A 
ATOM     13  C   LIG    1        6.494  -2.540  -1.478  0.00  0.00    +0.006 A 
ATOM     14  C   LIG    1        5.800  -2.415  -2.684  0.00  0.00    -0.023 A 
ATOM     15  C   LIG    1        6.125  -3.088  -4.012  0.00  0.00    +0.039 C 
ATOM     16  C   LIG    1        4.852  -3.206  -4.894  0.00  0.00    +0.026 C 
ATOM     17  C   LIG    1        4.074  -1.866  -5.047  0.00  0.00    +0.122 C 
ATOM     18  N   LIG    1        3.843  -1.294  -3.714  0.00  0.00    -0.346 N 
ATOM     19  C   LIG    1        4.694  -1.562  -2.666  0.00  0.00    +0.053 A 
ATOM     20  C   LIG    1        2.889  -0.411  -3.271  0.00  0.00    +0.091 A 
ENDBRANCH   8   9
BRANCH   1  24
ATOM     21  C   LIG    1       -1.968   3.284  -0.234  0.00  0.00    +0.001 A 
ATOM     22  C   LIG    1       -0.803   2.528  -0.128  0.00  0.00    +0.010 A 
ATOM     23  C   LIG    1       -0.896   1.129  -0.020  0.00  0.00    +0.004 A 
ATOM     24  C   LIG    1        0.075   0.063   0.103  0.00  0.00    -0.009 A 
ATOM     25  C   LIG    1       -0.673  -1.100   0.161  0.00  0.00    +0.088 A 
ATOM     26  N   LIG    1       -2.011  -0.822   0.085  0.00  0.00    -0.360 N 
ATOM     27  H   LIG    1       -2.719  -1.541   0.110  0.00  0.00    +0.165 HD
ATOM     28  C   LIG    1       -2.197   0.537  -0.028  0.00  0.00    +0.047 A 
ATOM     29  C   LIG    1       -3.369   1.294  -0.137  0.00  0.00    +0.026 A 
ATOM     30  C   LIG    1       -3.221   2.677  -0.238  0.00  0.00    +0.002 A 
ENDBRANCH   1  24
TORSDOF 2
