REMARK  Name = DB12781
REMARK                            x       y       z     vdW  Elec       q    Type
REMARK                         _______ _______ _______ _____ _____    ______ ____
ROOT
ATOM      1  C   LIG    1        1.764  -1.335   0.027  0.00  0.00    +0.121 A 
ATOM      2  C   LIG    1        1.066  -2.545  -0.115  0.00  0.00    +0.046 A 
ATOM      3  C   LIG    1        1.750  -3.757  -0.088  0.00  0.00    +0.007 A 
ATOM      4  C   LIG    1        3.136  -3.775   0.084  0.00  0.00    -0.046 A 
ATOM      5  C   LIG    1        3.835  -2.574   0.223  0.00  0.00    +0.007 A 
ATOM      6  C   LIG    1        3.150  -1.363   0.194  0.00  0.00    +0.046 A 
ENDROOT
BRANCH   1   7
ATOM      7  O   LIG    1        1.171  -0.087   0.013  0.00  0.00    -0.484 OA
BRANCH   7   8
ATOM      8  C   LIG    1       -0.249   0.016  -0.122  0.00  0.00    +0.303 C 
BRANCH   8  20
ATOM      9  C   LIG    1       -3.111   0.663  -0.103  0.00  0.00    +0.154 C 
ATOM     10  N   LIG    1       -2.105   1.746  -0.073  0.00  0.00    -0.297 N 
ATOM     11  C   LIG    1       -2.655   3.015  -0.014  0.00  0.00    +0.262 A 
ATOM     12  O   LIG    1       -3.868   3.248   0.033  0.00  0.00    -0.267 OA
ATOM     13  C   LIG    1       -1.611   4.116  -0.017  0.00  0.00    +0.065 A 
ATOM     14  C   LIG    1       -1.984   5.464   0.030  0.00  0.00    +0.015 A 
ATOM     15  C   LIG    1       -0.995   6.450   0.024  0.00  0.00    +0.001 A 
ATOM     16  C   LIG    1        0.354   6.094  -0.029  0.00  0.00    +0.002 A 
ATOM     17  C   LIG    1        0.725   4.748  -0.073  0.00  0.00    +0.028 A 
ATOM     18  C   LIG    1       -0.259   3.759  -0.067  0.00  0.00    +0.078 A 
ATOM     19  N   LIG    1        0.140   2.417  -0.105  0.00  0.00    -0.230 NA
ATOM     20  C   LIG    1       -0.736   1.473  -0.098  0.00  0.00    +0.151 A 
ENDBRANCH   8  20
ENDBRANCH   7   8
ENDBRANCH   1   7
BRANCH   4  21
ATOM     21  C   LIG    1        3.880  -5.106   0.113  0.00  0.00    +0.059 C 
BRANCH  21  22
ATOM     22  C   LIG    1        3.601  -5.983   1.362  0.00  0.00    +0.146 C 
ATOM     23  S   LIG    1        4.361  -7.611   1.188  0.00  0.00    -0.054 S 
ATOM     24  C   LIG    1        5.337  -7.385   2.684  0.00  0.00    +0.279 C 
ATOM     25  O   LIG    1        6.133  -8.214   3.119  0.00  0.00    -0.263 OA
ATOM     26  N   LIG    1        5.043  -6.198   3.224  0.00  0.00    -0.246 N 
ATOM     27  H   LIG    1        5.497  -5.918   4.081  0.00  0.00    +0.158 HD
ATOM     28  C   LIG    1        4.155  -5.374   2.655  0.00  0.00    +0.234 C 
ATOM     29  O   LIG    1        3.819  -4.281   3.108  0.00  0.00    -0.274 OA
ENDBRANCH  21  22
ENDBRANCH   4  21
TORSDOF 5
