REMARK  Name = DB12799
REMARK                            x       y       z     vdW  Elec       q    Type
REMARK                         _______ _______ _______ _____ _____    ______ ____
ROOT
ATOM      1  C   LIG    1       -2.343   5.856   5.497  0.00  0.00    +0.147 A 
ATOM      2  N   LIG    1       -3.011   5.752   4.282  0.00  0.00    -0.318 N 
ATOM      3  C   LIG    1       -3.972   6.693   3.673  0.00  0.00    +0.129 C 
ATOM      4  C   LIG    1       -4.600   6.329   2.309  0.00  0.00    +0.057 C 
ATOM      5  C   LIG    1       -5.260   4.957   2.227  0.00  0.00    -0.038 A 
ATOM      6  C   LIG    1       -4.463   3.805   2.347  0.00  0.00    -0.011 A 
ATOM      7  C   LIG    1       -2.999   3.931   2.523  0.00  0.00    +0.024 C 
ATOM      8  C   LIG    1       -2.135   3.470   1.573  0.00  0.00    -0.062 C 
ATOM      9  C   LIG    1       -0.606   3.553   1.646  0.00  0.00    +0.013 C 
ATOM     10  C   LIG    1       -0.012   2.129   1.650  0.00  0.00    -0.074 C 
ATOM     11  N   LIG    1       -0.450   1.371   0.370  0.00  0.00    +0.380 N 
ATOM     12  H   LIG    1       -0.080   1.867  -0.429  0.00  0.00    -0.082 HD
ATOM     13  C   LIG    1       -1.992   1.359   0.224  0.00  0.00    -0.074 C 
ATOM     14  C   LIG    1       -2.540   2.802   0.255  0.00  0.00    +0.013 C 
ATOM     15  C   LIG    1       -5.066   2.540   2.317  0.00  0.00    +0.009 A 
ATOM     16  C   LIG    1       -6.444   2.414   2.155  0.00  0.00    +0.001 A 
ATOM     17  C   LIG    1       -7.234   3.553   2.028  0.00  0.00    +0.000 A 
ATOM     18  C   LIG    1       -6.644   4.815   2.069  0.00  0.00    +0.004 A 
ATOM     19  C   LIG    1       -2.556   4.537   3.781  0.00  0.00    +0.142 A 
ATOM     20  N   LIG    1       -1.725   3.907   4.583  0.00  0.00    -0.235 NA
ATOM     21  C   LIG    1       -1.578   4.704   5.617  0.00  0.00    +0.146 A 
ENDROOT
BRANCH   1  22
ATOM     22  C   LIG    1       -2.504   7.007   6.398  0.00  0.00    +0.357 C 
ATOM     23  O   LIG    1       -3.223   7.985   6.181  0.00  0.00    -0.243 OA
BRANCH  22  25
ATOM     24  C   LIG    1       -1.732   7.821   8.532  0.00  0.00    +0.280 C 
ATOM     25  O   LIG    1       -1.746   6.839   7.506  0.00  0.00    -0.463 OA
ENDBRANCH  22  25
ENDBRANCH   1  22
BRANCH  11  26
ATOM     26  C   LIG    1        0.086  -0.082   0.347  0.00  0.00    -0.074 C 
BRANCH  26  27
ATOM     27  C   LIG    1        1.611  -0.118   0.124  0.00  0.00    +0.016 C 
BRANCH  27  28
ATOM     28  C   LIG    1        2.127  -1.543  -0.012  0.00  0.00    -0.049 A 
ATOM     29  C   LIG    1        2.058  -2.195  -1.245  0.00  0.00    +0.007 A 
ATOM     30  C   LIG    1        2.514  -3.505  -1.367  0.00  0.00    +0.046 A 
ATOM     31  C   LIG    1        3.049  -4.174  -0.255  0.00  0.00    +0.121 A 
ATOM     32  C   LIG    1        3.118  -3.512   0.971  0.00  0.00    +0.046 A 
ATOM     33  C   LIG    1        2.658  -2.204   1.097  0.00  0.00    +0.007 A 
BRANCH  31  34
ATOM     34  O   LIG    1        3.524  -5.472  -0.281  0.00  0.00    -0.486 OA
BRANCH  34  35
ATOM     35  C   LIG    1        3.468  -6.216  -1.497  0.00  0.00    +0.284 C 
BRANCH  35  36
ATOM     36  C   LIG    1        4.051  -7.607  -1.288  0.00  0.00    +0.079 A 
ATOM     37  N   LIG    1        3.450  -8.606  -1.986  0.00  0.00    -0.248 NA
ATOM     38  C   LIG    1        3.923  -9.876  -1.848  0.00  0.00    +0.071 A 
ATOM     39  C   LIG    1        3.295 -10.923  -2.565  0.00  0.00    +0.028 A 
ATOM     40  C   LIG    1        3.758 -12.232  -2.440  0.00  0.00    +0.002 A 
ATOM     41  C   LIG    1        4.839 -12.527  -1.615  0.00  0.00    +0.001 A 
ATOM     42  C   LIG    1        5.481 -11.519  -0.897  0.00  0.00    +0.010 A 
ATOM     43  C   LIG    1        5.034 -10.179  -1.001  0.00  0.00    +0.000 A 
ATOM     44  C   LIG    1        5.642  -9.112  -0.295  0.00  0.00    +0.012 A 
ATOM     45  C   LIG    1        5.144  -7.820  -0.445  0.00  0.00    +0.027 A 
ENDBRANCH  35  36
ENDBRANCH  34  35
ENDBRANCH  31  34
ENDBRANCH  27  28
ENDBRANCH  26  27
ENDBRANCH  11  26
TORSDOF 8
