REMARK  Name = DB12856
REMARK                            x       y       z     vdW  Elec       q    Type
REMARK                         _______ _______ _______ _____ _____    ______ ____
ROOT
ATOM      1  C   UNK    1       -0.567  -0.687   1.275  0.00  0.00    +0.100 C 
ATOM      2  S   UNK    1       -2.147   0.139   1.582  0.00  0.00    -0.143 S 
ATOM      3  C   UNK    1       -1.954   1.268   0.189  0.00  0.00    +0.151 C 
ATOM      4  N   UNK    1       -0.541   1.321  -0.130  0.00  0.00    -0.295 NA
ATOM      5  H   UNK    1       -0.379   1.690  -1.056  0.00  0.00    +0.123 HD
ATOM      6  C   UNK    1        0.008  -0.027  -0.003  0.00  0.00    +0.174 C 
ENDROOT
BRANCH   6   7
ATOM      7  C   UNK    1        1.558   0.043   0.029  0.00  0.00    +0.323 C 
ATOM      8  O   UNK    1        2.162  -0.511  -0.918  0.00  0.00    -0.249 OA
BRANCH   7   9
ATOM      9  O   UNK    1        2.134   0.636   0.974  0.00  0.00    -0.480 OA
ATOM     10  H   UNK    1        1.627   1.033   1.655  0.00  0.00    +0.295 HD
ENDBRANCH   7   9
ENDBRANCH   6   7
TORSDOF 2
