REMARK  Name = DB12450
REMARK                            x       y       z     vdW  Elec       q    Type
REMARK                         _______ _______ _______ _____ _____    ______ ____
ROOT
ATOM      1  C   LIG    1       -0.038   0.071   0.000  0.00  0.00    +0.066 A 
ATOM      2  C   LIG    1       -0.716  -1.159   0.000  0.00  0.00    +0.064 A 
ATOM      3  C   LIG    1       -2.111  -1.211   0.000  0.00  0.00    +0.163 A 
ATOM      4  C   LIG    1       -2.856  -0.025   0.000  0.00  0.00    +0.201 A 
ATOM      5  C   LIG    1       -2.193   1.208   0.000  0.00  0.00    +0.163 A 
ATOM      6  C   LIG    1       -0.798   1.250   0.000  0.00  0.00    +0.064 A 
ENDROOT
BRANCH   1   7
ATOM      7  C   LIG    1        1.461   0.159   0.000  0.00  0.00    +0.339 C 
ATOM      8  O   LIG    1        2.078   1.228   0.000  0.00  0.00    -0.245 OA
BRANCH   7   9
ATOM      9  O   LIG    1        2.068  -1.056   0.000  0.00  0.00    -0.461 OA
BRANCH   9  10
ATOM     10  C   LIG    1        3.486  -1.168   0.000  0.00  0.00    +0.232 C 
BRANCH  10  12
ATOM     11  C   LIG    1        5.399  -2.857   0.000  0.00  0.00    +0.007 C 
ATOM     12  C   LIG    1        3.880  -2.652   0.000  0.00  0.00    +0.038 C 
ENDBRANCH  10  12
ENDBRANCH   9  10
ENDBRANCH   7   9
ENDBRANCH   1   7
BRANCH   3  13
ATOM     13  O   LIG    1       -2.732  -2.435   0.000  0.00  0.00    -0.503 OA
ATOM     14  H   LIG    1       -2.114  -3.169   0.000  0.00  0.00    +0.292 HD
ENDBRANCH   3  13
BRANCH   4  15
ATOM     15  O   LIG    1       -4.230  -0.075   0.000  0.00  0.00    -0.501 OA
ATOM     16  H   LIG    1       -4.567  -0.974   0.000  0.00  0.00    +0.292 HD
ENDBRANCH   4  15
BRANCH   5  17
ATOM     17  O   LIG    1       -2.894   2.388   0.000  0.00  0.00    -0.503 OA
ATOM     18  H   LIG    1       -2.327   3.163   0.000  0.00  0.00    +0.292 HD
ENDBRANCH   5  17
TORSDOF 7
