REMARK  Name = DB12283
REMARK                            x       y       z     vdW  Elec       q    Type
REMARK                         _______ _______ _______ _____ _____    ______ ____
ROOT
ATOM      1  C   LIG    1        1.295  -0.265   0.070  0.00  0.00    +0.270 C 
ATOM      2  O   LIG    1        1.930   0.498   1.091  0.00  0.00    -0.317 OA
ATOM      3  C   LIG    1        3.240   0.053   1.292  0.00  0.00    +0.271 C 
ATOM      4  C   LIG    1        3.209  -1.467   1.110  0.00  0.00    +0.271 C 
ATOM      5  C   LIG    1        1.865  -1.672   0.378  0.00  0.00    +0.282 C 
ENDROOT
BRANCH   3   6
ATOM      6  N   LIG    1        3.803   0.585   2.531  0.00  0.00    -0.269 N 
ATOM      7  C   LIG    1        3.195   0.302   3.749  0.00  0.00    +0.352 A 
ATOM      8  O   LIG    1        2.157  -0.364   3.768  0.00  0.00    -0.244 OA
ATOM      9  N   LIG    1        3.831   0.820   4.900  0.00  0.00    -0.178 NA
ATOM     10  C   LIG    1        4.926   1.499   4.848  0.00  0.00    +0.123 A 
ATOM     11  C   LIG    1        5.570   1.776   3.598  0.00  0.00    +0.061 A 
ATOM     12  C   LIG    1        4.976   1.305   2.492  0.00  0.00    +0.096 A 
BRANCH  10  13
ATOM     13  N   LIG    1        5.501   1.972   5.963  0.00  0.00    -0.343 N 
ATOM     14  H   LIG    1        5.080   1.801   6.864  0.00  0.00    +0.144 HD
ATOM     15  H   LIG    1        6.357   2.506   5.913  0.00  0.00    +0.144 HD
ENDBRANCH  10  13
ENDBRANCH   3   6
BRANCH   1  16
ATOM     16  N   LIG    1        1.774   0.285  -1.203  0.00  0.00    -0.069 NA
ATOM     17  N   LIG    1        1.077   0.095  -2.201  0.00  0.00    -0.194 NA
ATOM     18  N   LIG    1        0.404   0.058  -3.119  0.00  0.00    -0.127 NA
ATOM     19  H   LIG    1       -0.153   0.836  -3.353  0.00  0.00    +0.228 HD
ENDBRANCH   1  16
BRANCH   1  20
ATOM     20  C   LIG    1       -0.236  -0.144   0.299  0.00  0.00    +0.298 C 
BRANCH  20  21
ATOM     21  O   LIG    1       -0.673   1.200   0.127  0.00  0.00    -0.459 OA
BRANCH  21  22
ATOM     22  C   LIG    1       -1.979   1.523   0.243  0.00  0.00    +0.310 C 
ATOM     23  O   LIG    1       -2.894   0.744   0.513  0.00  0.00    -0.251 OA
BRANCH  22  25
ATOM     24  C   LIG    1       -2.016   3.388  -1.484  0.00  0.00    +0.019 C 
ATOM     25  C   LIG    1       -2.255   3.014  -0.008  0.00  0.00    +0.092 C 
ATOM     26  C   LIG    1       -1.467   3.922   0.959  0.00  0.00    +0.019 C 
ENDBRANCH  22  25
ENDBRANCH  21  22
ENDBRANCH  20  21
ENDBRANCH   1  20
BRANCH   4  27
ATOM     27  O   LIG    1        4.379  -1.907   0.415  0.00  0.00    -0.453 OA
BRANCH  27  28
ATOM     28  C   LIG    1        4.793  -3.196   0.472  0.00  0.00    +0.310 C 
ATOM     29  O   LIG    1        4.268  -4.089   1.142  0.00  0.00    -0.251 OA
BRANCH  28  30
ATOM     30  C   LIG    1        6.021  -3.447  -0.421  0.00  0.00    +0.092 C 
ATOM     31  C   LIG    1        6.809  -4.712  -0.018  0.00  0.00    +0.019 C 
ATOM     32  C   LIG    1        5.605  -3.502  -1.905  0.00  0.00    +0.019 C 
ENDBRANCH  28  30
ENDBRANCH  27  28
ENDBRANCH   4  27
BRANCH   5  33
ATOM     33  O   LIG    1        2.020  -2.511  -0.774  0.00  0.00    -0.452 OA
BRANCH  33  34
ATOM     34  C   LIG    1        1.010  -3.260  -1.269  0.00  0.00    +0.310 C 
ATOM     35  O   LIG    1       -0.140  -3.296  -0.826  0.00  0.00    -0.251 OA
BRANCH  34  36
ATOM     36  C   LIG    1        1.462  -4.104  -2.477  0.00  0.00    +0.092 C 
ATOM     37  C   LIG    1        0.428  -5.174  -2.887  0.00  0.00    +0.019 C 
ATOM     38  C   LIG    1        1.838  -3.210  -3.676  0.00  0.00    +0.019 C 
ENDBRANCH  34  36
ENDBRANCH  33  34
ENDBRANCH   5  33
TORSDOF 13
