REMARK  Name = DB12719
REMARK                            x       y       z     vdW  Elec       q    Type
REMARK                         _______ _______ _______ _____ _____    ______ ____
ROOT
ATOM      1  C   LIG    1        0.194  -0.186  -0.583  0.00  0.00    +0.097 C 
ATOM      2  C   LIG    1       -0.544  -1.382  -0.125  0.00  0.00    +0.059 A 
ATOM      3  N   LIG    1        0.142  -2.539   0.172  0.00  0.00    -0.354 N 
ATOM      4  H   LIG    1        1.140  -2.610   0.035  0.00  0.00    +0.166 HD
ATOM      5  C   LIG    1       -0.679  -3.499   0.697  0.00  0.00    +0.047 A 
ATOM      6  C   LIG    1       -1.983  -2.929   0.737  0.00  0.00    +0.004 A 
ATOM      7  C   LIG    1       -3.013  -3.707   1.305  0.00  0.00    +0.010 A 
ATOM      8  C   LIG    1       -2.735  -4.994   1.764  0.00  0.00    +0.001 A 
ATOM      9  C   LIG    1       -1.453  -5.524   1.681  0.00  0.00    +0.002 A 
ATOM     10  C   LIG    1       -0.393  -4.791   1.152  0.00  0.00    +0.026 A 
ATOM     11  C   LIG    1       -1.908  -1.604   0.141  0.00  0.00    -0.007 A 
ATOM     12  C   LIG    1       -3.107  -0.651  -0.077  0.00  0.00    +0.009 C 
ATOM     13  C   LIG    1       -2.783   0.549  -1.014  0.00  0.00    +0.124 C 
ATOM     14  N   LIG    1       -1.674   1.422  -0.601  0.00  0.00    -0.272 N 
ATOM     15  C   LIG    1       -1.983   2.701  -0.230  0.00  0.00    +0.251 C 
ATOM     16  O   LIG    1       -2.914   3.329  -0.744  0.00  0.00    -0.270 OA
ATOM     17  C   LIG    1       -4.267  -1.395  -0.789  0.00  0.00    +0.017 C 
ATOM     18  C   LIG    1       -3.595  -0.121   1.291  0.00  0.00    +0.017 C 
ATOM     19  C   LIG    1       -0.374   1.037  -0.719  0.00  0.00    +0.095 C 
ENDROOT
BRANCH  15  20
ATOM     20  C   LIG    1       -1.175   3.374   0.870  0.00  0.00    +0.040 A 
ATOM     21  C   LIG    1       -1.113   4.776   0.933  0.00  0.00    +0.054 A 
ATOM     22  C   LIG    1       -0.382   5.418   1.933  0.00  0.00    +0.159 A 
ATOM     23  F   LIG    1       -0.328   6.769   1.965  0.00  0.00    -0.202 F 
ATOM     24  C   LIG    1        0.293   4.668   2.895  0.00  0.00    +0.158 A 
ATOM     25  F   LIG    1        1.005   5.286   3.864  0.00  0.00    -0.202 F 
ATOM     26  C   LIG    1        0.228   3.277   2.860  0.00  0.00    +0.042 A 
ATOM     27  C   LIG    1       -0.504   2.635   1.861  0.00  0.00    +0.016 A 
ENDBRANCH  15  20
BRANCH   1  28
ATOM     28  C   LIG    1        1.661  -0.209  -0.840  0.00  0.00    +0.343 C 
ATOM     29  O   LIG    1        2.225  -1.188  -1.335  0.00  0.00    -0.245 OA
BRANCH  28  30
ATOM     30  O   LIG    1        2.329   0.911  -0.425  0.00  0.00    -0.458 OA
BRANCH  30  32
ATOM     31  C   LIG    1        4.198   2.144   0.407  0.00  0.00    +0.052 C 
ATOM     32  C   LIG    1        3.737   1.071  -0.591  0.00  0.00    +0.171 C 
ATOM     33  C   LIG    1        4.080   1.457  -2.043  0.00  0.00    +0.052 C 
ENDBRANCH  30  32
ENDBRANCH  28  30
ENDBRANCH   1  28
TORSDOF 4
