REMARK  Name = DB12454
REMARK                            x       y       z     vdW  Elec       q    Type
REMARK                         _______ _______ _______ _____ _____    ______ ____
ROOT
ATOM      1  C   LIG    1        0.722   6.521   3.685  0.00  0.00    +0.047 C 
ATOM      2  C   LIG    1       -0.313   5.725   2.905  0.00  0.00    -0.005 A 
ATOM      3  C   LIG    1       -1.282   4.969   3.569  0.00  0.00    +0.164 A 
ATOM      4  C   LIG    1       -2.238   4.263   2.827  0.00  0.00    +0.164 A 
ATOM      5  C   LIG    1       -2.217   4.269   1.421  0.00  0.00    +0.020 A 
ATOM      6  C   LIG    1       -3.160   3.378   0.580  0.00  0.00    +0.108 C 
ATOM      7  N   LIG    1       -3.452   3.942  -0.747  0.00  0.00    -0.290 NA
ATOM      8  C   LIG    1       -4.305   5.129  -0.706  0.00  0.00    +0.106 C 
ATOM      9  C   LIG    1       -2.185   4.133  -1.473  0.00  0.00    +0.105 C 
ATOM     10  C   LIG    1       -1.241   5.148  -0.765  0.00  0.00    +0.058 C 
ATOM     11  C   LIG    1       -1.536   2.732  -1.716  0.00  0.00    +0.204 C 
ATOM     12  N   LIG    1       -1.368   1.977  -0.456  0.00  0.00    -0.263 NA
ATOM     13  C   LIG    1       -0.565   0.739  -0.596  0.00  0.00    +0.111 C 
ATOM     14  C   LIG    1       -1.011  -0.446   0.286  0.00  0.00    +0.023 A 
ATOM     15  C   LIG    1       -0.596  -1.757   0.044  0.00  0.00    +0.172 A 
ATOM     16  O   LIG    1        0.150  -2.231  -0.990  0.00  0.00    -0.452 OA
ATOM     17  C   LIG    1        0.441  -3.563  -0.679  0.00  0.00    +0.466 C 
ATOM     18  O   LIG    1       -0.453  -3.961   0.321  0.00  0.00    -0.452 OA
ATOM     19  C   LIG    1       -0.971  -2.810   0.829  0.00  0.00    +0.173 A 
ATOM     20  C   LIG    1       -1.793  -2.648   1.936  0.00  0.00    +0.038 A 
ATOM     21  C   LIG    1       -2.217  -3.829   2.797  0.00  0.00    +0.051 C 
ATOM     22  C   LIG    1       -2.225  -1.339   2.229  0.00  0.00    +0.142 A 
ATOM     23  C   LIG    1       -1.853  -0.248   1.402  0.00  0.00    +0.005 A 
ATOM     24  C   LIG    1       -2.337   1.168   1.669  0.00  0.00    +0.060 C 
ATOM     25  C   LIG    1       -2.608   1.926   0.350  0.00  0.00    +0.086 C 
ATOM     26  C   LIG    1       -1.245   5.049   0.760  0.00  0.00    -0.037 A 
ATOM     27  C   LIG    1       -0.307   5.761   1.512  0.00  0.00    +0.011 A 
ENDROOT
BRANCH   3  28
ATOM     28  O   LIG    1       -1.301   4.936   4.944  0.00  0.00    -0.491 OA
ATOM     29  C   LIG    1       -0.686   3.785   5.509  0.00  0.00    +0.277 C 
ENDBRANCH   3  28
BRANCH   4  30
ATOM     30  O   LIG    1       -3.211   3.564   3.498  0.00  0.00    -0.503 OA
ATOM     31  H   LIG    1       -3.134   3.654   4.451  0.00  0.00    +0.292 HD
ENDBRANCH   4  30
BRANCH  11  32
ATOM     32  O   LIG    1       -2.240   2.054  -2.744  0.00  0.00    -0.376 OA
ATOM     33  H   LIG    1       -1.667   1.374  -3.106  0.00  0.00    +0.212 HD
ENDBRANCH  11  32
BRANCH  13  34
ATOM     34  C   LIG    1        0.955   1.044  -0.470  0.00  0.00    +0.128 C 
BRANCH  34  35
ATOM     35  N   LIG    1        1.835   0.108  -1.167  0.00  0.00    -0.310 N 
ATOM     36  H   LIG    1        2.350  -0.540  -0.588  0.00  0.00    +0.149 HD
ATOM     37  C   LIG    1        1.980   0.036  -2.502  0.00  0.00    +0.237 C 
ATOM     38  O   LIG    1        1.396   0.786  -3.289  0.00  0.00    -0.271 OA
BRANCH  37  39
ATOM     39  C   LIG    1        2.877  -1.018  -2.916  0.00  0.00    +0.068 C 
ATOM     40  C   LIG    1        3.135  -1.286  -4.215  0.00  0.00    +0.013 C 
BRANCH  40  41
ATOM     41  C   LIG    1        4.017  -2.356  -4.725  0.00  0.00    -0.024 A 
ATOM     42  C   LIG    1        4.449  -3.423  -3.923  0.00  0.00    +0.020 A 
ATOM     43  C   LIG    1        5.292  -4.418  -4.436  0.00  0.00    +0.055 A 
ATOM     44  C   LIG    1        5.705  -4.337  -5.771  0.00  0.00    +0.012 A 
ATOM     45  C   LIG    1        5.283  -3.281  -6.576  0.00  0.00    +0.001 A 
ATOM     46  C   LIG    1        4.446  -2.297  -6.055  0.00  0.00    +0.008 A 
BRANCH  43  47
ATOM     47  C   LIG    1        5.755  -5.576  -3.553  0.00  0.00    +0.417 C 
ATOM     48  F   LIG    1        6.971  -5.998  -3.904  0.00  0.00    -0.166 F 
ATOM     49  F   LIG    1        4.901  -6.591  -3.686  0.00  0.00    -0.166 F 
ATOM     50  F   LIG    1        5.797  -5.226  -2.266  0.00  0.00    -0.166 F 
ENDBRANCH  43  47
ENDBRANCH  40  41
ENDBRANCH  37  39
ENDBRANCH  34  35
ENDBRANCH  13  34
BRANCH  22  51
ATOM     51  O   LIG    1       -3.046  -1.133   3.320  0.00  0.00    -0.425 OA
BRANCH  51  52
ATOM     52  C   LIG    1       -2.506  -0.700   4.494  0.00  0.00    +0.309 C 
ATOM     53  C   LIG    1       -3.561  -0.528   5.579  0.00  0.00    +0.136 C 
ATOM     54  O   LIG    1       -1.319  -0.451   4.714  0.00  0.00    -0.251 OA
ENDBRANCH  51  52
ENDBRANCH  22  51
TORSDOF 10
