REMARK  Name = DB12643
REMARK                            x       y       z     vdW  Elec       q    Type
REMARK                         _______ _______ _______ _____ _____    ______ ____
ROOT
ATOM      1  C   LIG    1       -2.312  -0.721   0.113  0.00  0.00    +0.157 C 
ATOM      2  C   LIG    1       -0.841  -1.189   0.243  0.00  0.00    +0.269 C 
ATOM      3  O   LIG    1       -0.446  -2.354   0.314  0.00  0.00    -0.271 OA
ATOM      4  N   LIG    1       -0.044  -0.019   0.251  0.00  0.00    -0.137 N 
ATOM      5  C   LIG    1       -0.810   1.113  -0.050  0.00  0.00    +0.066 A 
ATOM      6  C   LIG    1       -0.400   2.432  -0.267  0.00  0.00    +0.027 A 
ATOM      7  C   LIG    1       -1.339   3.402  -0.619  0.00  0.00    +0.022 A 
ATOM      8  C   LIG    1       -2.681   3.054  -0.766  0.00  0.00    +0.041 A 
ATOM      9 CL   LIG    1       -3.837   4.248  -1.230  0.00  0.00    -0.084 Cl
ATOM     10  C   LIG    1       -3.088   1.737  -0.547  0.00  0.00    +0.028 A 
ATOM     11  C   LIG    1       -2.150   0.768  -0.171  0.00  0.00    +0.011 A 
ENDROOT
BRANCH   1  12
ATOM     12  C   LIG    1       -2.934  -1.556  -1.059  0.00  0.00    +0.028 A 
ATOM     13  C   LIG    1       -2.676  -1.249  -2.421  0.00  0.00    +0.126 A 
ATOM     14  C   LIG    1       -3.252  -2.042  -3.431  0.00  0.00    +0.046 A 
ATOM     15  C   LIG    1       -4.039  -3.144  -3.116  0.00  0.00    +0.004 A 
ATOM     16  C   LIG    1       -4.250  -3.485  -1.788  0.00  0.00    +0.001 A 
ATOM     17  C   LIG    1       -3.694  -2.709  -0.776  0.00  0.00    +0.010 A 
BRANCH  13  18
ATOM     18  O   LIG    1       -1.830  -0.193  -2.716  0.00  0.00    -0.495 OA
ATOM     19  C   LIG    1       -1.551   0.158  -4.067  0.00  0.00    +0.277 C 
ENDBRANCH  13  18
ENDBRANCH   1  12
BRANCH   1  21
ATOM     20  C   LIG    1       -2.452  -0.461   2.695  0.00  0.00    +0.147 C 
ATOM     21  N   LIG    1       -3.040  -0.926   1.412  0.00  0.00    -0.268 NA
ATOM     22  C   LIG    1       -4.460  -0.562   1.468  0.00  0.00    +0.118 C 
ATOM     23  C   LIG    1       -4.866  -0.672   2.930  0.00  0.00    +0.131 C 
ATOM     24  C   LIG    1       -3.635  -0.118   3.635  0.00  0.00    +0.061 C 
BRANCH  20  27
ATOM     25  C   LIG    1        0.493  -2.217   4.540  0.00  0.00    +0.131 C 
ATOM     26  N   LIG    1       -0.463  -1.218   4.056  0.00  0.00    -0.306 N 
ATOM     27  C   LIG    1       -1.579  -1.567   3.362  0.00  0.00    +0.232 C 
ATOM     28  O   LIG    1       -1.918  -2.748   3.228  0.00  0.00    -0.274 OA
ATOM     29  C   LIG    1       -0.035   0.157   4.325  0.00  0.00    +0.131 C 
ENDBRANCH  20  27
BRANCH  23  30
ATOM     30  O   LIG    1       -6.078  -0.042   3.290  0.00  0.00    -0.390 OA
ATOM     31  H   LIG    1       -6.759  -0.313   2.670  0.00  0.00    +0.210 HD
ENDBRANCH  23  30
ENDBRANCH   1  21
BRANCH   4  32
ATOM     32  S   LIG    1        1.744  -0.045   0.214  0.00  0.00    +0.085 S 
ATOM     33  O   LIG    1        2.207   1.124   0.973  0.00  0.00    -0.149 OA
ATOM     34  O   LIG    1        2.207  -1.389   0.582  0.00  0.00    -0.149 OA
BRANCH  32  35
ATOM     35  C   LIG    1        2.150   0.213  -1.520  0.00  0.00    +0.151 A 
ATOM     36  C   LIG    1        1.842  -0.762  -2.482  0.00  0.00    +0.150 A 
ATOM     37  C   LIG    1        2.131  -0.497  -3.833  0.00  0.00    +0.093 A 
ATOM     38  C   LIG    1        2.715   0.718  -4.227  0.00  0.00    +0.124 A 
ATOM     39  C   LIG    1        3.015   1.666  -3.251  0.00  0.00    +0.048 A 
ATOM     40  C   LIG    1        2.737   1.420  -1.910  0.00  0.00    +0.036 A 
BRANCH  36  41
ATOM     41  O   LIG    1        1.254  -1.934  -2.048  0.00  0.00    -0.493 OA
ATOM     42  C   LIG    1        0.875  -2.935  -2.986  0.00  0.00    +0.277 C 
ENDBRANCH  36  41
BRANCH  38  43
ATOM     43  O   LIG    1        3.017   1.056  -5.532  0.00  0.00    -0.495 OA
ATOM     44  C   LIG    1        2.719   0.135  -6.576  0.00  0.00    +0.277 C 
ENDBRANCH  38  43
ENDBRANCH  32  35
ENDBRANCH   4  32
TORSDOF 9
