REMARK  Name = DB12109
REMARK                            x       y       z     vdW  Elec       q    Type
REMARK                         _______ _______ _______ _____ _____    ______ ____
ROOT
ATOM      1  C   LIG    1        0.297   0.024  -0.420  0.00  0.00    +0.048 C 
ENDROOT
BRANCH   1   2
ATOM      2  C   LIG    1       -1.123  -0.383  -0.884  0.00  0.00    +0.025 C 
BRANCH   2   3
ATOM      3  C   LIG    1       -2.026   0.785  -1.327  0.00  0.00    +0.070 C 
BRANCH   3   4
ATOM      4  S   LIG    1       -1.442   1.717  -2.776  0.00  0.00    -0.156 S 
BRANCH   4   5
ATOM      5  C   LIG    1       -2.171   3.355  -2.476  0.00  0.00    +0.104 C 
BRANCH   5   9
ATOM      6  C   LIG    1        0.097   5.639   0.379  0.00  0.00    +0.000 A 
ATOM      7  C   LIG    1        0.528   5.562  -0.944  0.00  0.00    +0.000 A 
ATOM      8  C   LIG    1       -0.206   4.819  -1.866  0.00  0.00    +0.004 A 
ATOM      9  C   LIG    1       -1.369   4.157  -1.462  0.00  0.00    -0.038 A 
ATOM     10  C   LIG    1       -1.797   4.242  -0.134  0.00  0.00    +0.004 A 
ATOM     11  C   LIG    1       -1.061   4.982   0.788  0.00  0.00    +0.000 A 
ENDBRANCH   5   9
ENDBRANCH   4   5
ENDBRANCH   3   4
ENDBRANCH   2   3
ENDBRANCH   1   2
BRANCH   1  12
ATOM     12  S   LIG    1        0.266   1.139   1.026  0.00  0.00    -0.153 S 
BRANCH  12  13
ATOM     13  C   LIG    1        1.601   2.314   0.637  0.00  0.00    +0.104 C 
BRANCH  13  14
ATOM     14  C   LIG    1        2.974   1.659   0.636  0.00  0.00    -0.038 A 
ATOM     15  C   LIG    1        3.613   1.379   1.847  0.00  0.00    +0.004 A 
ATOM     16  C   LIG    1        4.861   0.762   1.847  0.00  0.00    +0.000 A 
ATOM     17  C   LIG    1        5.468   0.430   0.637  0.00  0.00    +0.000 A 
ATOM     18  C   LIG    1        4.839   0.713  -0.574  0.00  0.00    +0.000 A 
ATOM     19  C   LIG    1        3.592   1.332  -0.575  0.00  0.00    +0.004 A 
ENDBRANCH  13  14
ENDBRANCH  12  13
ENDBRANCH   1  12
BRANCH   1  20
ATOM     20  C   LIG    1        1.194  -1.212  -0.168  0.00  0.00    +0.014 C 
BRANCH  20  21
ATOM     21  C   LIG    1        1.716  -1.889  -1.451  0.00  0.00    +0.002 C 
BRANCH  21  22
ATOM     22  C   LIG    1        2.701  -3.040  -1.161  0.00  0.00    +0.011 C 
BRANCH  22  23
ATOM     23  C   LIG    1        3.307  -3.705  -2.426  0.00  0.00    +0.120 C 
BRANCH  23  24
ATOM     24  C   LIG    1        2.299  -4.467  -3.320  0.00  0.00    +0.305 C 
ATOM     25  O   LIG    1        2.564  -4.521  -4.542  0.00  0.00    -0.251 OA
BRANCH  24  26
ATOM     26  O   LIG    1        1.308  -5.023  -2.792  0.00  0.00    -0.481 OA
ATOM     27  H   LIG    1        1.164  -4.945  -1.869  0.00  0.00    +0.295 HD
ENDBRANCH  24  26
ENDBRANCH  23  24
ENDBRANCH  22  23
ENDBRANCH  21  22
ENDBRANCH  20  21
ENDBRANCH   1  20
TORSDOF 14
