REMARK  Name = DB12037
REMARK                            x       y       z     vdW  Elec       q    Type
REMARK                         _______ _______ _______ _____ _____    ______ ____
ROOT
ATOM      1  C   LIG    1       -0.505  -2.754   0.733  0.00  0.00    +0.166 C 
ATOM      2  N   LIG    1       -0.703  -2.655  -0.727  0.00  0.00    -0.285 N 
ATOM      3  C   LIG    1       -0.501  -3.711  -1.560  0.00  0.00    +0.237 C 
ATOM      4  O   LIG    1       -0.165  -4.824  -1.147  0.00  0.00    -0.274 OA
ATOM      5  C   LIG    1       -0.770  -1.254  -1.152  0.00  0.00    +0.153 C 
ATOM      6  C   LIG    1        0.030  -0.513  -0.073  0.00  0.00    +0.193 C 
ATOM      7  C   LIG    1       -0.220  -1.313   1.200  0.00  0.00    +0.078 C 
ENDROOT
BRANCH   1  10
ATOM      8  N   LIG    1       -1.492  -4.358   2.306  0.00  0.00    -0.298 N 
ATOM      9  H   LIG    1       -0.532  -4.609   2.489  0.00  0.00    +0.150 HD
ATOM     10  C   LIG    1       -1.740  -3.371   1.426  0.00  0.00    +0.235 C 
ATOM     11  O   LIG    1       -2.865  -2.910   1.220  0.00  0.00    -0.274 OA
BRANCH   8  13
ATOM     12  C   LIG    1       -3.596  -5.799   2.303  0.00  0.00    +0.026 C 
ATOM     13  C   LIG    1       -2.506  -5.069   3.106  0.00  0.00    +0.135 C 
ATOM     14  C   LIG    1       -2.525  -6.601   2.970  0.00  0.00    +0.043 C 
BRANCH  12  16
ATOM     15  C   LIG    1       -5.897  -4.739   2.670  0.00  0.00    +0.004 C 
ATOM     16  C   LIG    1       -5.057  -6.021   2.748  0.00  0.00    +0.003 C 
ENDBRANCH  12  16
BRANCH  13  17
ATOM     17  C   LIG    1       -2.787  -4.437   4.520  0.00  0.00    +0.329 C 
ATOM     18  O   LIG    1       -3.507  -5.061   5.334  0.00  0.00    -0.249 OA
BRANCH  17  19
ATOM     19  O   LIG    1       -2.266  -3.332   4.809  0.00  0.00    -0.479 OA
ATOM     20  H   LIG    1       -1.731  -2.888   4.180  0.00  0.00    +0.295 HD
ENDBRANCH  17  19
ENDBRANCH  13  17
ENDBRANCH   8  13
ENDBRANCH   1  10
BRANCH   3  21
ATOM     21  C   LIG    1       -0.836  -3.581  -3.077  0.00  0.00    +0.168 C 
BRANCH  21  22
ATOM     22  N   LIG    1        0.363  -3.915  -3.868  0.00  0.00    -0.269 N 
ATOM     23  H   LIG    1        0.588  -4.888  -4.013  0.00  0.00    +0.153 HD
ATOM     24  C   LIG    1        1.236  -2.937  -4.330  0.00  0.00    +0.401 C 
ATOM     25  O   LIG    1        1.113  -1.717  -4.195  0.00  0.00    -0.226 OA
BRANCH  24  26
ATOM     26  O   LIG    1        2.256  -3.545  -4.979  0.00  0.00    -0.447 OA
BRANCH  26  27
ATOM     27  C   LIG    1        3.236  -2.813  -5.718  0.00  0.00    +0.179 C 
ATOM     28  C   LIG    1        4.169  -3.811  -6.423  0.00  0.00    +0.048 C 
ATOM     29  C   LIG    1        5.590  -3.235  -6.348  0.00  0.00    -0.004 C 
ATOM     30  C   LIG    1        6.298  -3.359  -5.016  0.00  0.00    +0.008 C 
ATOM     31  C   LIG    1        5.574  -2.082  -5.375  0.00  0.00    -0.004 C 
ATOM     32  C   LIG    1        4.146  -1.939  -4.838  0.00  0.00    +0.048 C 
ENDBRANCH  26  27
ENDBRANCH  24  26
ENDBRANCH  21  22
BRANCH  21  33
ATOM     33  C   LIG    1       -2.108  -4.382  -3.559  0.00  0.00    -0.011 C 
ATOM     34  C   LIG    1       -1.926  -5.921  -3.470  0.00  0.00    +0.013 C 
ATOM     35  C   LIG    1       -3.357  -3.987  -2.725  0.00  0.00    +0.013 C 
ATOM     36  C   LIG    1       -2.416  -4.035  -5.040  0.00  0.00    +0.013 C 
ENDBRANCH  21  33
ENDBRANCH   3  21
BRANCH   6  37
ATOM     37  O   LIG    1        1.428  -0.587  -0.369  0.00  0.00    -0.486 OA
BRANCH  37  38
ATOM     38  C   LIG    1        1.994   0.190  -1.365  0.00  0.00    +0.132 A 
ATOM     39  C   LIG    1        3.382   0.013  -1.636  0.00  0.00    +0.044 A 
ATOM     40  C   LIG    1        4.179  -0.933  -0.942  0.00  0.00    +0.017 A 
ATOM     41  C   LIG    1        5.525  -1.085  -1.253  0.00  0.00    +0.048 A 
ATOM     42  C   LIG    1        6.123  -0.310  -2.243  0.00  0.00    +0.141 A 
ATOM     43  C   LIG    1        5.377   0.641  -2.945  0.00  0.00    +0.108 A 
ATOM     44 CL   LIG    1        6.149   1.580  -4.184  0.00  0.00    -0.078 Cl
ATOM     45  C   LIG    1        3.991   0.811  -2.654  0.00  0.00    +0.097 A 
ATOM     46  N   LIG    1        3.267   1.720  -3.364  0.00  0.00    -0.243 NA
ATOM     47  C   LIG    1        1.943   1.874  -3.106  0.00  0.00    +0.094 A 
ATOM     48  C   LIG    1        1.288   1.136  -2.120  0.00  0.00    +0.076 A 
BRANCH  47  49
ATOM     49  C   LIG    1        1.207   2.880  -3.944  0.00  0.00    +0.098 A 
ATOM     50  N   LIG    1        1.693   3.282  -5.112  0.00  0.00    -0.223 NA
ATOM     51  C   LIG    1        0.932   4.150  -5.726  0.00  0.00    +0.159 A 
ATOM     52  S   LIG    1       -0.523   4.558  -4.871  0.00  0.00    -0.060 S 
ATOM     53  C   LIG    1       -0.021   3.466  -3.619  0.00  0.00    +0.078 A 
BRANCH  51  54
ATOM     54  N   LIG    1        1.247   4.685  -6.952  0.00  0.00    -0.321 N 
ATOM     55  H   LIG    1        2.139   4.457  -7.368  0.00  0.00    +0.148 HD
BRANCH  54  56
ATOM     56  C   LIG    1        0.555   5.741  -7.683  0.00  0.00    +0.066 C 
ATOM     57  C   LIG    1        0.869   7.137  -7.114  0.00  0.00    +0.027 C 
ATOM     58  C   LIG    1        0.884   5.671  -9.182  0.00  0.00    +0.027 C 
ENDBRANCH  54  56
ENDBRANCH  51  54
ENDBRANCH  47  49
BRANCH  42  59
ATOM     59  O   LIG    1        7.449  -0.498  -2.544  0.00  0.00    -0.489 OA
BRANCH  59  60
ATOM     60  C   LIG    1        8.363  -0.016  -1.563  0.00  0.00    +0.244 C 
BRANCH  60  61
ATOM     61  C   LIG    1        9.773   0.089  -2.176  0.00  0.00    +0.125 C 
BRANCH  61  62
ATOM     62  N   LIG    1        9.838   0.962  -3.355  0.00  0.00    -0.295 NA
ATOM     63  C   LIG    1       11.119   0.792  -4.052  0.00  0.00    +0.112 C 
ATOM     64  C   LIG    1       11.229   1.729  -5.273  0.00  0.00    +0.175 C 
ATOM     65  O   LIG    1       11.015   3.077  -4.870  0.00  0.00    -0.377 OA
ATOM     66  C   LIG    1        9.728   3.269  -4.293  0.00  0.00    +0.175 C 
ATOM     67  C   LIG    1        9.563   2.373  -3.046  0.00  0.00    +0.112 C 
ENDBRANCH  61  62
ENDBRANCH  60  61
ENDBRANCH  59  60
ENDBRANCH  42  59
ENDBRANCH  37  38
ENDBRANCH   6  37
TORSDOF 19
