REMARK  Name = DB12365
REMARK                            x       y       z     vdW  Elec       q    Type
REMARK                         _______ _______ _______ _____ _____    ______ ____
ROOT
ATOM      1  C   LIG    1       -0.597   3.691   1.333  0.00  0.00    +0.037 C 
ATOM      2  C   LIG    1       -0.535   2.140   1.276  0.00  0.00    +0.107 C 
ATOM      3  N   LIG    1       -0.263   1.514  -0.024  0.00  0.00    -0.325 N 
ATOM      4  C   LIG    1       -0.687   2.072  -1.216  0.00  0.00    +0.106 C 
ATOM      5  C   LIG    1       -0.652   1.555  -2.649  0.00  0.00    +0.250 C 
ATOM      6  C   LIG    1       -1.324   2.929  -3.040  0.00  0.00    +0.250 C 
ATOM      7  O   LIG    1       -1.715   3.477  -4.069  0.00  0.00    -0.282 OA
ATOM      8  O   LIG    1       -0.276   0.543  -3.238  0.00  0.00    -0.282 OA
ATOM      9  C   LIG    1       -1.259   3.253  -1.562  0.00  0.00    +0.104 C 
ATOM     10  N   LIG    1       -1.644   4.382  -0.889  0.00  0.00    -0.339 N 
ATOM     11  H   LIG    1       -2.240   5.037  -1.375  0.00  0.00    +0.146 HD
ATOM     12  C   LIG    1       -1.745   4.396   0.565  0.00  0.00    +0.103 C 
ENDROOT
BRANCH   3  13
ATOM     13  C   LIG    1        0.108   0.098   0.026  0.00  0.00    +0.117 C 
BRANCH  13  14
ATOM     14  C   LIG    1        1.621  -0.121  -0.115  0.00  0.00    +0.146 C 
BRANCH  14  15
ATOM     15  P   LIG    1        2.060  -1.937   0.004  0.00  0.00    +0.329 P 
ATOM     16  O   LIG    1        1.795  -2.418   1.413  0.00  0.00    -0.259 OA
BRANCH  15  17
ATOM     17  O   LIG    1        3.752  -1.742  -0.181  0.00  0.00    -0.324 OA
ATOM     18  H   LIG    1        4.196  -1.688  -1.049  0.00  0.00    +0.220 HD
ENDBRANCH  15  17
BRANCH  15  19
ATOM     19  O   LIG    1        1.537  -2.653  -1.221  0.00  0.00    -0.324 OA
ATOM     20  H   LIG    1        0.578  -2.775  -1.139  0.00  0.00    +0.220 HD
ENDBRANCH  15  19
ENDBRANCH  14  15
ENDBRANCH  13  14
ENDBRANCH   3  13
TORSDOF 5
