REMARK  Name = DB12707
REMARK                            x       y       z     vdW  Elec       q    Type
REMARK                         _______ _______ _______ _____ _____    ______ ____
ROOT
ATOM      1  N   LIG    1       -0.634   1.099   0.001  0.00  0.00    -0.285 N 
ATOM      2  H   LIG    1       -0.009   1.873  -0.170  0.00  0.00    +0.155 HD
ATOM      3  C   LIG    1       -0.054  -0.115   0.130  0.00  0.00    +0.225 C 
ATOM      4  O   LIG    1       -0.663  -1.178   0.260  0.00  0.00    -0.275 OA
ENDROOT
BRANCH   1   8
ATOM      5  C   LIG    1       -4.657   2.371   0.036  0.00  0.00    +0.039 A 
ATOM      6  C   LIG    1       -4.353   1.057   0.416  0.00  0.00    +0.015 A 
ATOM      7  C   LIG    1       -3.039   0.599   0.416  0.00  0.00    +0.024 A 
ATOM      8  C   LIG    1       -1.996   1.453   0.027  0.00  0.00    +0.033 A 
ATOM      9  C   LIG    1       -2.291   2.765  -0.346  0.00  0.00    +0.024 A 
ATOM     10  C   LIG    1       -3.606   3.220  -0.346  0.00  0.00    +0.015 A 
BRANCH   5  13
ATOM     11  N   LIG    1       -6.302   4.164  -0.096  0.00  0.00    -0.193 N 
ATOM     12  H   LIG    1       -5.600   4.830  -0.386  0.00  0.00    +0.183 HD
ATOM     13  C   LIG    1       -6.100   2.840   0.043  0.00  0.00    +0.267 C 
ATOM     14  O   LIG    1       -7.020   2.033   0.205  0.00  0.00    -0.268 OA
BRANCH  11  15
ATOM     15  O   LIG    1       -7.601   4.595  -0.386  0.00  0.00    -0.295 OA
ATOM     16  H   LIG    1       -8.031   3.794  -0.699  0.00  0.00    +0.241 HD
ENDBRANCH  11  15
ENDBRANCH   5  13
ENDBRANCH   1   8
BRANCH   3  17
ATOM     17  C   LIG    1        1.493  -0.127   0.095  0.00  0.00    +0.108 C 
BRANCH  17  18
ATOM     18  C   LIG    1        1.965  -0.750  -1.231  0.00  0.00    -0.035 A 
ATOM     19  C   LIG    1        1.939  -2.138  -1.427  0.00  0.00    +0.004 A 
ATOM     20  C   LIG    1        2.360  -2.683  -2.637  0.00  0.00    +0.000 A 
ATOM     21  C   LIG    1        2.800  -1.844  -3.656  0.00  0.00    +0.000 A 
ATOM     22  C   LIG    1        2.822  -0.463  -3.478  0.00  0.00    +0.000 A 
ATOM     23  C   LIG    1        2.402   0.083  -2.268  0.00  0.00    +0.004 A 
ENDBRANCH  17  18
BRANCH  17  24
ATOM     24  C   LIG    1        2.137  -0.773   1.370  0.00  0.00    -0.001 C 
ATOM     25  C   LIG    1        3.680  -0.790   1.303  0.00  0.00    +0.008 C 
ATOM     26  C   LIG    1        1.688  -0.096   2.686  0.00  0.00    +0.008 C 
ENDBRANCH  17  24
ENDBRANCH   3  17
TORSDOF 6
