REMARK  Name = DB12651
REMARK                            x       y       z     vdW  Elec       q    Type
REMARK                         _______ _______ _______ _____ _____    ______ ____
ROOT
ATOM      1  C   LIG    1       -0.199   0.459   0.364  0.00  0.00    +0.013 C 
ATOM      2  C   LIG    1        1.296   0.016   0.168  0.00  0.00    -0.013 C 
ATOM      3  C   LIG    1        2.228   0.659   1.316  0.00  0.00    -0.004 C 
ATOM      4  C   LIG    1        3.733   0.243   1.184  0.00  0.00    +0.016 C 
ATOM      5  C   LIG    1        1.747   0.183   2.728  0.00  0.00    +0.012 C 
ATOM      6  C   LIG    1        2.217   1.043   3.898  0.00  0.00    +0.006 C 
ATOM      7  C   LIG    1        1.759   2.500   3.684  0.00  0.00    +0.016 C 
ATOM      8  C   LIG    1        1.730   3.365   5.011  0.00  0.00    +0.033 C 
ATOM      9  C   LIG    1        3.077   3.340   5.784  0.00  0.00    +0.019 C 
ATOM     10  C   LIG    1        0.570   2.856   5.921  0.00  0.00    +0.019 C 
ATOM     11  C   LIG    1        1.415   4.863   4.712  0.00  0.00    +0.179 C 
ATOM     12  O   LIG    1        1.078   5.648   5.604  0.00  0.00    -0.291 OA
ATOM     13  C   LIG    1        1.509   5.332   3.328  0.00  0.00    +0.092 C 
ATOM     14  C   LIG    1        1.973   4.566   2.320  0.00  0.00    +0.006 C 
ATOM     15  C   LIG    1        2.488   3.120   2.431  0.00  0.00    +0.013 C 
ATOM     16  C   LIG    1        4.033   3.260   2.561  0.00  0.00    +0.020 C 
ATOM     17  C   LIG    1        2.195   2.229   1.168  0.00  0.00    -0.050 C 
ATOM     18  C   LIG    1        2.049   2.774  -0.074  0.00  0.00    +0.047 C 
ATOM     19  C   LIG    1        1.868   2.050  -1.329  0.00  0.00    +0.160 C 
ATOM     20  O   LIG    1        1.759   2.664  -2.389  0.00  0.00    -0.292 OA
ATOM     21  C   LIG    1        1.850   0.508  -1.229  0.00  0.00    +0.070 C 
ATOM     22  C   LIG    1        1.420  -0.258  -2.542  0.00  0.00    +0.017 C 
ATOM     23  C   LIG    1        0.025   0.095  -3.156  0.00  0.00    +0.011 C 
ATOM     24  C   LIG    1       -0.235  -0.592  -4.521  0.00  0.00    -0.035 C 
ATOM     25  C   LIG    1       -1.644  -0.171  -5.002  0.00  0.00    +0.011 C 
ATOM     26  C   LIG    1        0.832  -0.244  -5.593  0.00  0.00    +0.011 C 
ATOM     27  C   LIG    1       -0.281  -2.104  -4.189  0.00  0.00    +0.007 C 
ATOM     28  C   LIG    1        1.057  -2.631  -3.621  0.00  0.00    +0.019 C 
ATOM     29  C   LIG    1        1.593  -1.830  -2.371  0.00  0.00    +0.071 C 
ATOM     30  C   LIG    1        0.787  -2.230  -1.087  0.00  0.00    +0.019 C 
ATOM     31  C   LIG    1        1.291  -1.554   0.211  0.00  0.00    +0.009 C 
ENDROOT
BRANCH  13  32
ATOM     32  C   LIG    1        1.128   6.678   3.035  0.00  0.00    +0.102 C 
ATOM     33  N   LIG    1        0.828   7.766   2.775  0.00  0.00    -0.191 NA
ENDBRANCH  13  32
BRANCH  29  34
ATOM     34  C   LIG    1        3.113  -2.260  -2.249  0.00  0.00    +0.311 C 
ATOM     35  O   LIG    1        4.009  -1.527  -2.732  0.00  0.00    -0.250 OA
BRANCH  34  36
ATOM     36  O   LIG    1        3.379  -3.367  -1.721  0.00  0.00    -0.480 OA
ATOM     37  H   LIG    1        2.690  -3.895  -1.368  0.00  0.00    +0.295 HD
ENDBRANCH  34  36
ENDBRANCH  29  34
TORSDOF 3
