REMARK  Name = DB12506
REMARK                            x       y       z     vdW  Elec       q    Type
REMARK                         _______ _______ _______ _____ _____    ______ ____
ROOT
ATOM      1  N   LIG    1        0.067  -0.078  -0.041  0.00  0.00    -0.181 N 
ATOM      2  N   LIG    1       -0.659   1.050  -0.118  0.00  0.00    -0.038 NA
ATOM      3  N   LIG    1       -1.978   0.640  -0.091  0.00  0.00    -0.021 NA
ATOM      4  N   LIG    1       -2.043  -0.746  -0.002  0.00  0.00    -0.092 NA
ATOM      5  C   LIG    1       -0.800  -1.155   0.023  0.00  0.00    +0.237 A 
ENDROOT
BRANCH   1   6
ATOM      6  C   LIG    1        1.480  -0.032  -0.025  0.00  0.00    +0.071 A 
ATOM      7  C   LIG    1        2.164   0.810  -0.912  0.00  0.00    +0.028 A 
ATOM      8  C   LIG    1        3.555   0.855  -0.893  0.00  0.00    +0.002 A 
ATOM      9  C   LIG    1        4.260   0.064   0.012  0.00  0.00    +0.000 A 
ATOM     10  C   LIG    1        3.587  -0.773   0.899  0.00  0.00    +0.002 A 
ATOM     11  C   LIG    1        2.195  -0.821   0.883  0.00  0.00    +0.028 A 
ENDBRANCH   1   6
BRANCH   5  12
ATOM     12  N   LIG    1       -0.407  -2.464   0.078  0.00  0.00    -0.326 N 
ATOM     13  H   LIG    1        0.568  -2.727   0.049  0.00  0.00    +0.145 HD
ATOM     14  H   LIG    1       -1.081  -3.214   0.123  0.00  0.00    +0.145 HD
ENDBRANCH   5  12
TORSDOF 2
