REMARK  Name = DB12411
REMARK                            x       y       z     vdW  Elec       q    Type
REMARK                         _______ _______ _______ _____ _____    ______ ____
ROOT
ATOM      1  N   LIG    1       -2.150   0.234  -0.310  0.00  0.00    -0.179 N 
ATOM      2  N   LIG    1       -0.978   0.616   0.225  0.00  0.00    -0.126 NA
ATOM      3  C   LIG    1       -0.160  -0.371  -0.084  0.00  0.00    +0.241 A 
ATOM      4  N   LIG    1       -0.696  -1.354  -0.788  0.00  0.00    -0.180 NA
ATOM      5  C   LIG    1       -1.942  -0.984  -0.926  0.00  0.00    +0.219 A 
ENDROOT
BRANCH   1  14
ATOM      6  C   LIG    1       -9.532   4.262   0.386  0.00  0.00    +0.000 A 
ATOM      7  C   LIG    1       -8.552   4.896  -0.373  0.00  0.00    +0.004 A 
ATOM      8  C   LIG    1       -7.277   4.334  -0.520  0.00  0.00    -0.038 A 
ATOM      9  C   LIG    1       -6.216   5.025  -1.369  0.00  0.00    +0.036 C 
ATOM     10  C   LIG    1       -4.977   5.544  -0.613  0.00  0.00    +0.009 C 
ATOM     11  C   LIG    1       -4.409   4.639   0.496  0.00  0.00    +0.038 C 
ATOM     12  C   LIG    1       -4.419   3.144   0.206  0.00  0.00    -0.016 A 
ATOM     13  C   LIG    1       -3.239   2.405   0.090  0.00  0.00    +0.056 A 
ATOM     14  C   LIG    1       -3.319   1.030  -0.166  0.00  0.00    +0.180 A 
ATOM     15  N   LIG    1       -4.522   0.411  -0.305  0.00  0.00    -0.129 NA
ATOM     16  N   LIG    1       -5.660   1.111  -0.197  0.00  0.00    -0.147 NA
ATOM     17  C   LIG    1       -5.636   2.454   0.040  0.00  0.00    +0.097 A 
ATOM     18  C   LIG    1       -6.981   3.112   0.124  0.00  0.00    +0.006 A 
ATOM     19  C   LIG    1       -7.984   2.484   0.881  0.00  0.00    +0.010 A 
ATOM     20  C   LIG    1       -9.249   3.053   1.012  0.00  0.00    +0.001 A 
ENDBRANCH   1  14
BRANCH   5  21
ATOM     21  N   LIG    1       -2.890  -1.700  -1.604  0.00  0.00    -0.327 N 
ATOM     22  H   LIG    1       -2.671  -2.579  -2.050  0.00  0.00    +0.145 HD
ATOM     23  H   LIG    1       -3.848  -1.382  -1.666  0.00  0.00    +0.145 HD
ENDBRANCH   5  21
BRANCH   3  24
ATOM     24  N   LIG    1        1.178  -0.422   0.238  0.00  0.00    -0.282 N 
ATOM     25  H   LIG    1        1.767  -1.027  -0.316  0.00  0.00    +0.155 HD
BRANCH  24  26
ATOM     26  C   LIG    1        1.937   0.377   1.113  0.00  0.00    +0.034 A 
ATOM     27  C   LIG    1        1.388   1.165   2.132  0.00  0.00    +0.027 A 
ATOM     28  C   LIG    1        2.191   1.932   2.988  0.00  0.00    -0.042 A 
ATOM     29  C   LIG    1        1.536   2.782   4.077  0.00  0.00    +0.034 C 
ATOM     30  C   LIG    1        1.773   4.305   3.994  0.00  0.00    -0.011 C 
ATOM     31  C   LIG    1        3.146   4.822   4.484  0.00  0.00    -0.068 C 
ATOM     32  C   LIG    1        4.335   4.255   3.675  0.00  0.00    -0.011 C 
ATOM     33  C   LIG    1        4.525   2.724   3.709  0.00  0.00    +0.034 C 
ATOM     34  C   LIG    1        3.593   1.904   2.819  0.00  0.00    -0.044 A 
ATOM     35  C   LIG    1        4.134   1.105   1.805  0.00  0.00    +0.006 A 
ATOM     36  C   LIG    1        3.322   0.349   0.967  0.00  0.00    +0.023 A 
BRANCH  31  37
ATOM     37  N   LIG    1        3.334   4.512   5.998  0.00  0.00    +0.382 N 
ATOM     38  H   LIG    1        3.316   3.507   6.103  0.00  0.00    -0.081 HD
ATOM     39  C   LIG    1        2.249   5.092   6.924  0.00  0.00    -0.079 C 
ATOM     40  C   LIG    1        2.876   5.015   8.311  0.00  0.00    -0.020 C 
ATOM     41  C   LIG    1        4.365   5.273   8.100  0.00  0.00    -0.020 C 
ATOM     42  C   LIG    1        4.650   5.044   6.611  0.00  0.00    -0.079 C 
ENDBRANCH  31  37
ENDBRANCH  24  26
ENDBRANCH   3  24
TORSDOF 5
