REMARK  Name = DB12876
REMARK                            x       y       z     vdW  Elec       q    Type
REMARK                         _______ _______ _______ _____ _____    ______ ____
ROOT
ATOM      1  C   LIG    1        2.733  -1.910  -0.402  0.00  0.00    +0.193 C 
ATOM      2  C   LIG    1        2.284  -2.552  -1.721  0.00  0.00    +0.153 C 
ATOM      3  N   LIG    1        3.480  -3.253  -2.201  0.00  0.00    -0.285 N 
ATOM      4  C   LIG    1        3.567  -3.912  -3.386  0.00  0.00    +0.237 C 
ATOM      5  O   LIG    1        4.612  -4.441  -3.774  0.00  0.00    -0.274 OA
ATOM      6  C   LIG    1        2.300  -4.087  -4.273  0.00  0.00    +0.162 C 
ATOM      7  C   LIG    1        1.801  -5.555  -4.325  0.00  0.00    +0.032 C 
ATOM      8  C   LIG    1        1.281  -6.099  -2.974  0.00  0.00    +0.002 C 
ATOM      9  C   LIG    1        0.630  -7.497  -3.051  0.00  0.00    +0.000 C 
ATOM     10  C   LIG    1        1.552  -8.648  -3.518  0.00  0.00    +0.000 C 
ATOM     11  C   LIG    1        2.859  -8.827  -2.717  0.00  0.00    +0.000 C 
ATOM     12  C   LIG    1        2.656  -9.193  -1.230  0.00  0.00    +0.000 C 
ATOM     13  C   LIG    1        3.948  -9.154  -0.387  0.00  0.00    +0.006 C 
ATOM     14  C   LIG    1        4.609  -7.760  -0.373  0.00  0.00    +0.025 C 
ATOM     15  C   LIG    1        5.249  -7.255   0.887  0.00  0.00    +0.042 C 
ATOM     16  C   LIG    1        4.011  -6.550   0.327  0.00  0.00    +0.114 C 
ATOM     17  N   LIG    1        4.120  -5.349  -0.496  0.00  0.00    -0.299 N 
ATOM     18  H   LIG    1        3.469  -5.320  -1.267  0.00  0.00    +0.150 HD
ATOM     19  C   LIG    1        4.872  -4.248  -0.313  0.00  0.00    +0.235 C 
ATOM     20  O   LIG    1        5.682  -4.135   0.608  0.00  0.00    -0.274 OA
ATOM     21  C   LIG    1        4.628  -3.051  -1.283  0.00  0.00    +0.166 C 
ATOM     22  C   LIG    1        4.240  -1.761  -0.537  0.00  0.00    +0.078 C 
ENDROOT
BRANCH   6  23
ATOM     23  N   LIG    1        2.565  -3.590  -5.638  0.00  0.00    -0.270 N 
ATOM     24  H   LIG    1        2.951  -4.246  -6.302  0.00  0.00    +0.153 HD
ATOM     25  C   LIG    1        2.401  -2.261  -6.036  0.00  0.00    +0.401 C 
ATOM     26  O   LIG    1        2.697  -1.842  -7.155  0.00  0.00    -0.226 OA
BRANCH  25  27
ATOM     27  O   LIG    1        1.878  -1.484  -5.049  0.00  0.00    -0.447 OA
BRANCH  27  28
ATOM     28  C   LIG    1        1.760  -0.068  -5.184  0.00  0.00    +0.178 C 
ATOM     29  C   LIG    1        0.803   0.435  -4.078  0.00  0.00    +0.045 C 
ATOM     30  C   LIG    1        1.554   1.537  -3.326  0.00  0.00    +0.004 C 
ATOM     31  C   LIG    1        3.024   1.165  -3.484  0.00  0.00    +0.004 C 
ATOM     32  C   LIG    1        3.111   0.632  -4.915  0.00  0.00    +0.045 C 
ENDBRANCH  27  28
ENDBRANCH  25  27
ENDBRANCH   6  23
BRANCH  16  33
ATOM     33  P   LIG    1        2.375  -6.541   1.293  0.00  0.00    +0.229 P 
ATOM     34  O   LIG    1        2.155  -7.908   1.900  0.00  0.00    -0.288 OA
BRANCH  33  35
ATOM     35  O   LIG    1        1.329  -5.882   0.419  0.00  0.00    -0.342 OA
ATOM     36  H   LIG    1        1.097  -6.477  -0.311  0.00  0.00    +0.218 HD
ENDBRANCH  33  35
BRANCH  33  37
ATOM     37  C   LIG    1        2.793  -5.353   2.693  0.00  0.00    +0.140 C 
BRANCH  37  38
ATOM     38  C   LIG    1        1.619  -4.812   3.509  0.00  0.00    +0.032 A 
ATOM     39  C   LIG    1        1.321  -3.441   3.515  0.00  0.00    +0.130 A 
ATOM     40  F   LIG    1        2.095  -2.561   2.840  0.00  0.00    -0.205 F 
ATOM     41  C   LIG    1        0.224  -2.959   4.230  0.00  0.00    +0.039 A 
ATOM     42  C   LIG    1       -0.582  -3.837   4.952  0.00  0.00    +0.006 A 
ATOM     43  C   LIG    1       -0.279  -5.197   4.973  0.00  0.00    +0.039 A 
ATOM     44  C   LIG    1        0.819  -5.683   4.263  0.00  0.00    +0.130 A 
ATOM     45  F   LIG    1        1.106  -7.002   4.323  0.00  0.00    -0.205 F 
ENDBRANCH  37  38
ENDBRANCH  33  37
ENDBRANCH  16  33
BRANCH   1  46
ATOM     46  O   LIG    1        2.070  -0.668  -0.143  0.00  0.00    -0.486 OA
BRANCH  46  56
ATOM     47  C   LIG    1       -1.229  -1.827   1.133  0.00  0.00    +0.094 A 
ATOM     48  N   LIG    1       -1.846  -0.659   1.436  0.00  0.00    -0.243 NA
ATOM     49  C   LIG    1       -1.193   0.519   1.212  0.00  0.00    +0.097 A 
ATOM     50  C   LIG    1       -1.845   1.747   1.532  0.00  0.00    +0.108 A 
ATOM     51 CL   LIG    1       -3.457   1.760   2.177  0.00  0.00    -0.078 Cl
ATOM     52  C   LIG    1       -1.181   2.961   1.327  0.00  0.00    +0.140 A 
ATOM     53  C   LIG    1        0.111   2.981   0.807  0.00  0.00    +0.048 A 
ATOM     54  C   LIG    1        0.770   1.800   0.487  0.00  0.00    +0.017 A 
ATOM     55  C   LIG    1        0.135   0.547   0.673  0.00  0.00    +0.044 A 
ATOM     56  C   LIG    1        0.771  -0.687   0.352  0.00  0.00    +0.132 A 
ATOM     57  C   LIG    1        0.050  -1.865   0.581  0.00  0.00    +0.076 A 
BRANCH  47  61
ATOM     58  C   LIG    1       -2.137  -5.290   1.536  0.00  0.00    +0.159 A 
ATOM     59  S   LIG    1       -3.642  -4.880   2.297  0.00  0.00    -0.060 S 
ATOM     60  C   LIG    1       -3.221  -3.203   2.088  0.00  0.00    +0.078 A 
ATOM     61  C   LIG    1       -1.974  -3.090   1.462  0.00  0.00    +0.098 A 
ATOM     62  N   LIG    1       -1.426  -4.260   1.169  0.00  0.00    -0.223 NA
BRANCH  58  63
ATOM     63  N   LIG    1       -1.720  -6.580   1.323  0.00  0.00    -0.321 N 
ATOM     64  H   LIG    1       -0.789  -6.728   0.955  0.00  0.00    +0.148 HD
BRANCH  63  66
ATOM     65  C   LIG    1       -2.067  -8.097   3.256  0.00  0.00    +0.027 C 
ATOM     66  C   LIG    1       -2.331  -7.825   1.765  0.00  0.00    +0.066 C 
ATOM     67  C   LIG    1       -1.843  -8.997   0.897  0.00  0.00    +0.027 C 
ENDBRANCH  63  66
ENDBRANCH  58  63
ENDBRANCH  47  61
BRANCH  52  68
ATOM     68  O   LIG    1       -1.801   4.149   1.627  0.00  0.00    -0.494 OA
ATOM     69  C   LIG    1       -1.443   4.687   2.892  0.00  0.00    +0.277 C 
ENDBRANCH  52  68
ENDBRANCH  46  56
ENDBRANCH   1  46
TORSDOF 13
