REMARK  Name = DB12203
REMARK                            x       y       z     vdW  Elec       q    Type
REMARK                         _______ _______ _______ _____ _____    ______ ____
ROOT
ATOM      1  C   LIG    1        1.499   0.013  -1.127  0.00  0.00    +0.167 A 
ATOM      2  S   LIG    1        2.479   1.464  -1.084  0.00  0.00    -0.050 S 
ATOM      3  C   LIG    1        3.880   0.469  -0.638  0.00  0.00    +0.065 A 
ATOM      4  C   LIG    1        5.225   0.826  -0.384  0.00  0.00    +0.046 A 
ATOM      5  C   LIG    1        6.108  -0.222  -0.088  0.00  0.00    +0.028 A 
ATOM      6  C   LIG    1        5.696  -1.551  -0.041  0.00  0.00    +0.050 A 
ATOM      7  C   LIG    1        4.366  -1.913  -0.287  0.00  0.00    +0.147 A 
ATOM      8  C   LIG    1        3.448  -0.891  -0.593  0.00  0.00    +0.124 A 
ATOM      9  N   LIG    1        2.125  -1.095  -0.861  0.00  0.00    -0.221 NA
ENDROOT
BRANCH   1  16
ATOM     10  C   LIG    1       -5.375   0.892  -0.293  0.00  0.00    +0.041 C 
ATOM     11  C   LIG    1       -3.897   1.267   0.032  0.00  0.00    +0.066 C 
ATOM     12  C   LIG    1       -3.510   2.317  -1.060  0.00  0.00    +0.053 C 
ATOM     13  C   LIG    1       -2.940   1.714  -2.370  0.00  0.00    +0.112 C 
ATOM     14  N   LIG    1       -1.951   0.681  -2.019  0.00  0.00    -0.285 N 
ATOM     15  C   LIG    1       -0.674   1.041  -1.699  0.00  0.00    +0.308 C 
ATOM     16  N   LIG    1        0.140  -0.007  -1.417  0.00  0.00    -0.248 N 
ATOM     17  H   LIG    1       -0.285  -0.922  -1.404  0.00  0.00    +0.158 HD
ATOM     18  O   LIG    1       -0.275   2.208  -1.782  0.00  0.00    -0.252 OA
ATOM     19  C   LIG    1       -2.619  -0.490  -1.421  0.00  0.00    +0.112 C 
ATOM     20  C   LIG    1       -3.127  -0.091  -0.014  0.00  0.00    +0.053 C 
BRANCH  11  21
ATOM     21  O   LIG    1       -4.109   1.797   1.326  0.00  0.00    -0.389 OA
ATOM     22  H   LIG    1       -3.268   2.107   1.669  0.00  0.00    +0.210 HD
ENDBRANCH  11  21
ENDBRANCH   1  16
BRANCH   4  23
ATOM     23  N   LIG    1        5.628   2.160  -0.396  0.00  0.00    -0.325 N 
ATOM     24  C   LIG    1        7.042   2.516  -0.605  0.00  0.00    +0.133 C 
ATOM     25  C   LIG    1        7.227   4.011  -0.944  0.00  0.00    +0.178 C 
ATOM     26  O   LIG    1        6.667   4.811   0.088  0.00  0.00    -0.377 OA
ATOM     27  C   LIG    1        5.282   4.551   0.272  0.00  0.00    +0.178 C 
ATOM     28  C   LIG    1        5.069   3.064   0.626  0.00  0.00    +0.133 C 
ENDBRANCH   4  23
BRANCH   7  29
ATOM     29  O   LIG    1        3.863  -3.201  -0.261  0.00  0.00    -0.493 OA
ATOM     30  C   LIG    1        4.745  -4.273   0.049  0.00  0.00    +0.277 C 
ENDBRANCH   7  29
TORSDOF 4
