REMARK  Name = DB12665
REMARK                            x       y       z     vdW  Elec       q    Type
REMARK                         _______ _______ _______ _____ _____    ______ ____
ROOT
ATOM      1  C   LIG    1        1.982   0.663  -1.050  0.00  0.00    +0.214 A 
ATOM      2  C   LIG    1        2.213  -0.078  -2.160  0.00  0.00    +0.181 A 
ATOM      3  O   LIG    1        2.813   0.409  -3.278  0.00  0.00    -0.451 OA
ATOM      4  C   LIG    1        3.150   1.746  -3.328  0.00  0.00    +0.147 A 
ATOM      5  C   LIG    1        3.707   2.182  -4.527  0.00  0.00    +0.092 A 
ATOM      6  C   LIG    1        4.083   3.512  -4.670  0.00  0.00    +0.124 A 
ATOM      7  C   LIG    1        3.903   4.401  -3.614  0.00  0.00    +0.091 A 
ATOM      8  C   LIG    1        3.345   3.970  -2.409  0.00  0.00    +0.135 A 
ATOM      9  C   LIG    1        2.953   2.623  -2.242  0.00  0.00    +0.109 A 
ATOM     10  C   LIG    1        2.341   2.087  -0.969  0.00  0.00    +0.238 A 
ATOM     11  O   LIG    1        2.162   2.782   0.033  0.00  0.00    -0.283 OA
ENDROOT
BRANCH   2  12
ATOM     12  C   LIG    1        1.962  -1.528  -2.303  0.00  0.00    +0.025 A 
ATOM     13  C   LIG    1        2.269  -2.422  -1.269  0.00  0.00    +0.060 A 
ATOM     14  C   LIG    1        2.006  -3.787  -1.401  0.00  0.00    +0.159 A 
ATOM     15  C   LIG    1        1.430  -4.276  -2.580  0.00  0.00    +0.158 A 
ATOM     16  C   LIG    1        1.124  -3.393  -3.616  0.00  0.00    +0.050 A 
ATOM     17  C   LIG    1        1.388  -2.031  -3.477  0.00  0.00    +0.015 A 
BRANCH  14  18
ATOM     18  O   LIG    1        2.315  -4.631  -0.365  0.00  0.00    -0.503 OA
ATOM     19  H   LIG    1        2.067  -5.541  -0.546  0.00  0.00    +0.292 HD
ENDBRANCH  14  18
BRANCH  15  20
ATOM     20  O   LIG    1        1.160  -5.612  -2.735  0.00  0.00    -0.503 OA
ATOM     21  H   LIG    1        0.762  -5.819  -3.584  0.00  0.00    +0.292 HD
ENDBRANCH  15  20
ENDBRANCH   2  12
BRANCH   6  22
ATOM     22  O   LIG    1        4.630   3.946  -5.847  0.00  0.00    -0.507 OA
ATOM     23  H   LIG    1        4.851   4.880  -5.831  0.00  0.00    +0.292 HD
ENDBRANCH   6  22
BRANCH   8  24
ATOM     24  O   LIG    1        3.202   4.911  -1.420  0.00  0.00    -0.506 OA
ATOM     25  H   LIG    1        3.516   5.779  -1.683  0.00  0.00    +0.292 HD
ENDBRANCH   8  24
BRANCH   1  26
ATOM     26  O   LIG    1        1.400   0.154   0.069  0.00  0.00    -0.453 OA
BRANCH  26  32
ATOM     27  C   LIG    1       -0.453  -0.790   1.208  0.00  0.00    +0.214 C 
ATOM     28  C   LIG    1       -2.001  -0.807   1.295  0.00  0.00    +0.180 C 
ATOM     29  C   LIG    1       -2.584   0.624   1.285  0.00  0.00    +0.177 C 
ATOM     30  C   LIG    1       -1.958   1.450   0.132  0.00  0.00    +0.179 C 
ATOM     31  O   LIG    1       -0.531   1.397   0.227  0.00  0.00    -0.331 OA
ATOM     32  C   LIG    1       -0.003   0.107   0.042  0.00  0.00    +0.340 C 
BRANCH  27  33
ATOM     33  O   LIG    1        0.072  -2.100   1.088  0.00  0.00    -0.383 OA
ATOM     34  H   LIG    1       -0.510  -2.613   0.523  0.00  0.00    +0.210 HD
ENDBRANCH  27  33
BRANCH  28  35
ATOM     35  O   LIG    1       -2.446  -1.537   2.426  0.00  0.00    -0.386 OA
ATOM     36  H   LIG    1       -3.362  -1.303   2.594  0.00  0.00    +0.210 HD
ENDBRANCH  28  35
BRANCH  29  37
ATOM     37  O   LIG    1       -3.999   0.603   1.197  0.00  0.00    -0.386 OA
ATOM     38  H   LIG    1       -4.330   1.476   1.421  0.00  0.00    +0.210 HD
ENDBRANCH  29  37
BRANCH  30  39
ATOM     39  C   LIG    1       -2.390   2.933   0.095  0.00  0.00    +0.190 C 
BRANCH  39  40
ATOM     40  O   LIG    1       -2.107   3.605   1.306  0.00  0.00    -0.392 OA
ATOM     41  H   LIG    1       -2.334   4.533   1.203  0.00  0.00    +0.210 HD
ENDBRANCH  39  40
ENDBRANCH  30  39
ENDBRANCH  26  32
ENDBRANCH   1  26
TORSDOF 12
