REMARK  Name = DB12391
REMARK                            x       y       z     vdW  Elec       q    Type
REMARK                         _______ _______ _______ _____ _____    ______ ____
ROOT
ATOM      1  C   LIG    1        1.464  -0.191  -0.348  0.00  0.00    +0.209 C 
ATOM      2  O   LIG    1        1.951  -1.305   0.409  0.00  0.00    -0.456 OA
ATOM      3  C   LIG    1        1.932  -1.295   1.768  0.00  0.00    +0.310 C 
ATOM      4  O   LIG    1        1.725  -0.308   2.475  0.00  0.00    -0.251 OA
ATOM      5  C   LIG    1        2.161  -2.678   2.399  0.00  0.00    +0.152 C 
ATOM      6  C   LIG    1        1.274  -3.841   1.847  0.00  0.00    +0.138 C 
ATOM      7  C   LIG    1        1.333  -5.198   2.650  0.00  0.00    +0.050 C 
ATOM      8  C   LIG    1        0.804  -4.971   4.101  0.00  0.00    +0.021 C 
ATOM      9  C   LIG    1        0.394  -6.248   1.992  0.00  0.00    +0.021 C 
ATOM     10  C   LIG    1        2.804  -5.734   2.719  0.00  0.00    +0.147 C 
ATOM     11  O   LIG    1        3.508  -5.497   3.704  0.00  0.00    -0.296 OA
ATOM     12  C   LIG    1        3.420  -6.498   1.508  0.00  0.00    +0.088 C 
ATOM     13  C   LIG    1        4.956  -6.213   1.319  0.00  0.00    +0.128 C 
ATOM     14  C   LIG    1        5.372  -4.727   1.081  0.00  0.00    +0.015 C 
ATOM     15  C   LIG    1        6.900  -4.550   1.241  0.00  0.00    +0.010 C 
ATOM     16  C   LIG    1        4.850  -4.154  -0.266  0.00  0.00    +0.006 C 
ATOM     17  C   LIG    1        5.050  -2.638  -0.447  0.00  0.00    +0.003 C 
ATOM     18  C   LIG    1        4.598  -2.135  -1.832  0.00  0.00    +0.037 C 
ATOM     19  C   LIG    1        4.663  -0.599  -2.007  0.00  0.00    +0.093 C 
ATOM     20  C   LIG    1        6.009   0.043  -1.622  0.00  0.00    +0.044 C 
ATOM     21  O   LIG    1        4.065  -0.073  -3.163  0.00  0.00    -0.365 OA
ATOM     22  C   LIG    1        3.432   0.267  -1.954  0.00  0.00    +0.154 C 
ATOM     23  C   LIG    1        1.993  -0.262  -1.795  0.00  0.00    +0.084 C 
ENDROOT
BRANCH   1  30
ATOM     24  C   LIG    1       -5.185   2.758   1.124  0.00  0.00    +0.073 C 
ATOM     25  C   LIG    1       -4.144   1.767   0.657  0.00  0.00    +0.076 A 
ATOM     26  S   LIG    1       -4.564   0.208  -0.024  0.00  0.00    -0.072 S 
ATOM     27  C   LIG    1       -2.850  -0.123  -0.218  0.00  0.00    +0.039 A 
ATOM     28  C   LIG    1       -2.205  -1.252  -0.737  0.00  0.00    +0.017 A 
ATOM     29  C   LIG    1       -0.811  -1.246  -0.770  0.00  0.00    +0.008 A 
ATOM     30  C   LIG    1       -0.067  -0.155  -0.303  0.00  0.00    -0.005 A 
ATOM     31  C   LIG    1       -0.711   0.974   0.215  0.00  0.00    +0.036 A 
ATOM     32  C   LIG    1       -2.113   0.990   0.258  0.00  0.00    +0.079 A 
ATOM     33  N   LIG    1       -2.865   2.017   0.735  0.00  0.00    -0.244 NA
ENDBRANCH   1  30
BRANCH   6  34
ATOM     34  O   LIG    1       -0.077  -3.404   1.745  0.00  0.00    -0.390 OA
ATOM     35  H   LIG    1       -0.603  -4.120   1.384  0.00  0.00    +0.210 HD
ENDBRANCH   6  34
BRANCH  13  36
ATOM     36  O   LIG    1        5.484  -7.005   0.266  0.00  0.00    -0.391 OA
ATOM     37  H   LIG    1        5.083  -6.723  -0.559  0.00  0.00    +0.210 HD
ENDBRANCH  13  36
BRANCH  12  38
ATOM     38  C   LIG    1        3.134  -8.033   1.600  0.00  0.00    +0.040 C 
BRANCH  38  39
ATOM     39  C   LIG    1        3.686  -8.741   2.829  0.00  0.00    -0.034 C 
ATOM     40  C   LIG    1        2.936  -9.299   3.792  0.00  0.00    +0.004 C 
ENDBRANCH  38  39
ENDBRANCH  12  38
TORSDOF 5
