REMARK  Name = DB12377
REMARK                            x       y       z     vdW  Elec       q    Type
REMARK                         _______ _______ _______ _____ _____    ______ ____
ROOT
ATOM      1  C   LIG    1       -0.891   1.731   1.271  0.00  0.00    +0.029 C 
ATOM      2  C   LIG    1       -0.591   1.240  -0.175  0.00  0.00    +0.127 C 
ATOM      3  N   LIG    1        0.042  -0.071  -0.248  0.00  0.00    -0.132 N 
ATOM      4  C   LIG    1       -0.812  -1.118  -0.156  0.00  0.00    +0.331 C 
ATOM      5  O   LIG    1       -0.574  -2.318  -0.027  0.00  0.00    -0.250 OA
ATOM      6  N   LIG    1       -1.993  -0.455  -0.068  0.00  0.00    -0.270 N 
ATOM      7  C   LIG    1       -2.592  -0.318   1.288  0.00  0.00    +0.164 C 
ATOM      8  C   LIG    1       -1.867   0.783  -0.836  0.00  0.00    +0.135 C 
ATOM      9  C   LIG    1       -1.693   0.691   2.112  0.00  0.00    +0.034 C 
ENDROOT
BRANCH   7  10
ATOM     10  C   LIG    1       -4.082   0.101   1.207  0.00  0.00    +0.234 C 
ATOM     11  N   LIG    1       -4.892  -0.746   0.543  0.00  0.00    -0.311 N 
ATOM     12  H   LIG    1       -4.465  -1.538   0.084  0.00  0.00    +0.149 HD
ATOM     13  O   LIG    1       -4.482   1.143   1.727  0.00  0.00    -0.274 OA
BRANCH  11  14
ATOM     14  C   LIG    1       -6.325  -0.569   0.293  0.00  0.00    +0.075 C 
ATOM     15  C   LIG    1       -7.232  -0.523   1.547  0.00  0.00    +0.037 C 
ATOM     16  C   LIG    1       -8.725  -0.337   1.207  0.00  0.00    +0.082 C 
ATOM     17  N   LIG    1       -8.947   0.820   0.342  0.00  0.00    -0.316 NA
ATOM     18  H   LIG    1       -9.934   0.916   0.149  0.00  0.00    +0.122 HD
ATOM     19  C   LIG    1       -8.208   0.720  -0.914  0.00  0.00    +0.082 C 
ATOM     20  C   LIG    1       -6.689   0.575  -0.681  0.00  0.00    +0.037 C 
ENDBRANCH  11  14
ENDBRANCH   7  10
BRANCH   3  21
ATOM     21  O   LIG    1        1.327  -0.136   0.277  0.00  0.00    -0.096 OA
BRANCH  21  22
ATOM     22  S   LIG    1        2.500  -0.209  -0.912  0.00  0.00    +0.227 S 
ATOM     23  O   LIG    1        3.796  -0.385  -0.248  0.00  0.00    -0.116 OA
ATOM     24  O   LIG    1        2.280   0.880  -1.871  0.00  0.00    -0.116 OA
BRANCH  22  25
ATOM     25  O   LIG    1        2.099  -1.646  -1.645  0.00  0.00    -0.230 OA
ATOM     26  H   LIG    1        1.724  -1.491  -2.534  0.00  0.00    +0.247 HD
ENDBRANCH  22  25
ENDBRANCH  21  22
ENDBRANCH   3  21
TORSDOF 5
