REMARK  Name = DB12816
REMARK                            x       y       z     vdW  Elec       q    Type
REMARK                         _______ _______ _______ _____ _____    ______ ____
ROOT
ATOM      1  C   LIG    1       -2.795  -1.080   0.031  0.00  0.00    -0.076 C 
ATOM      2  C   LIG    1       -4.277  -1.413   0.025  0.00  0.00    +0.039 C 
ATOM      3  C   LIG    1       -2.166  -0.745  -1.319  0.00  0.00    +0.033 C 
ATOM      4  C   LIG    1       -0.623  -0.743  -1.242  0.00  0.00    +0.039 C 
ATOM      5  C   LIG    1       -0.059   0.043  -0.024  0.00  0.00    +0.072 C 
ATOM      6  C   LIG    1       -0.620  -0.600   1.286  0.00  0.00    +0.062 C 
ATOM      7  C   LIG    1       -2.092  -0.995   1.180  0.00  0.00    -0.025 C 
ENDROOT
BRANCH   5   8
ATOM      8  C   LIG    1        1.512   0.089   0.003  0.00  0.00    +0.015 C 
ATOM      9  C   LIG    1        2.152   0.705  -1.265  0.00  0.00    +0.010 C 
ATOM     10  C   LIG    1        2.100   0.778   1.258  0.00  0.00    +0.010 C 
ENDBRANCH   5   8
BRANCH   5  11
ATOM     11  O   LIG    1       -0.530   1.383  -0.081  0.00  0.00    -0.388 OA
ATOM     12  H   LIG    1       -0.363   1.800   0.767  0.00  0.00    +0.210 HD
ENDBRANCH   5  11
TORSDOF 2
