REMARK  Name = DB12647
REMARK                            x       y       z     vdW  Elec       q    Type
REMARK                         _______ _______ _______ _____ _____    ______ ____
ROOT
ATOM      1  C   LIG    1        0.030   4.127   0.095  0.00  0.00    +0.031 C 
ENDROOT
BRANCH   1   2
ATOM      2  C   LIG    1        0.483   2.686  -0.081  0.00  0.00    -0.028 C 
ATOM      3  C   LIG    1       -0.294   1.614  -0.362  0.00  0.00    -0.076 C 
ATOM      4  C   LIG    1       -1.796   1.708  -0.605  0.00  0.00    +0.039 C 
BRANCH   3   5
ATOM      5  C   LIG    1        0.245   0.187  -0.486  0.00  0.00    +0.034 C 
BRANCH   5   6
ATOM      6  C   LIG    1        1.750  -0.036  -0.233  0.00  0.00    +0.031 C 
BRANCH   6   7
ATOM      7  C   LIG    1        2.159  -1.498  -0.330  0.00  0.00    -0.028 C 
ATOM      8  C   LIG    1        2.799  -2.115  -1.351  0.00  0.00    -0.076 C 
ATOM      9  C   LIG    1        3.194  -1.416  -2.648  0.00  0.00    +0.039 C 
BRANCH   8  10
ATOM     10  C   LIG    1        3.184  -3.596  -1.332  0.00  0.00    +0.034 C 
BRANCH  10  11
ATOM     11  C   LIG    1        2.784  -4.426  -0.094  0.00  0.00    +0.031 C 
BRANCH  11  12
ATOM     12  C   LIG    1        3.234  -5.876  -0.172  0.00  0.00    -0.028 C 
ATOM     13  C   LIG    1        2.494  -6.951  -0.518  0.00  0.00    -0.080 C 
ATOM     14  C   LIG    1        1.034  -6.894  -0.947  0.00  0.00    +0.038 C 
ATOM     15  C   LIG    1        3.088  -8.350  -0.522  0.00  0.00    +0.038 C 
ENDBRANCH  11  12
ENDBRANCH  10  11
ENDBRANCH   8  10
ENDBRANCH   6   7
ENDBRANCH   5   6
ENDBRANCH   3   5
ENDBRANCH   1   2
BRANCH   1  16
ATOM     16  C   LIG    1        0.149   4.963  -1.197  0.00  0.00    +0.052 C 
BRANCH  16  22
ATOM     17  C   LIG    1       -4.276   9.322   0.453  0.00  0.00    +0.117 A 
ATOM     18  C   LIG    1       -2.889   9.467   0.522  0.00  0.00    +0.052 A 
ATOM     19  C   LIG    1       -2.035   8.457   0.067  0.00  0.00    -0.002 A 
ATOM     20  C   LIG    1       -0.519   8.611   0.106  0.00  0.00    +0.043 C 
ATOM     21  C   LIG    1        0.153   7.234  -0.015  0.00  0.00    +0.052 C 
ATOM     22  C   LIG    1       -0.479   6.382  -1.158  0.00  0.00    +0.108 C 
ATOM     23  C   LIG    1       -0.368   7.096  -2.530  0.00  0.00    +0.055 C 
ATOM     24  O   LIG    1       -1.871   6.178  -0.853  0.00  0.00    -0.486 OA
ATOM     25  C   LIG    1       -2.611   7.281  -0.457  0.00  0.00    +0.125 A 
ATOM     26  C   LIG    1       -3.997   7.132  -0.521  0.00  0.00    +0.049 A 
ATOM     27  C   LIG    1       -4.829   8.155  -0.071  0.00  0.00    +0.049 A 
BRANCH  17  28
ATOM     28  O   LIG    1       -5.092  10.326   0.901  0.00  0.00    -0.507 OA
ATOM     29  H   LIG    1       -6.025  10.118   0.810  0.00  0.00    +0.292 HD
ENDBRANCH  17  28
ENDBRANCH  16  22
ENDBRANCH   1  16
TORSDOF 10
