REMARK  Name = DB12389
REMARK                            x       y       z     vdW  Elec       q    Type
REMARK                         _______ _______ _______ _____ _____    ______ ____
ROOT
ATOM      1  C   LIG    1        1.535  -2.693  -1.151  0.00  0.00    +0.036 A 
ATOM      2  N   LIG    1        2.130  -2.563  -2.384  0.00  0.00    -0.317 N 
ATOM      3  C   LIG    1        1.469  -3.345  -3.307  0.00  0.00    +0.158 A 
ATOM      4  S   LIG    1        1.692  -3.574  -4.942  0.00  0.00    -0.013 S 
ATOM      5  N   LIG    1        0.523  -3.958  -2.556  0.00  0.00    -0.340 N 
ATOM      6  H   LIG    1       -0.123  -4.622  -2.958  0.00  0.00    +0.167 HD
ATOM      7  C   LIG    1        0.555  -3.581  -1.282  0.00  0.00    +0.106 A 
ENDROOT
BRANCH   2   8
ATOM      8  C   LIG    1        3.318  -1.700  -2.616  0.00  0.00    +0.131 C 
ATOM      9  C   LIG    1        4.606  -2.425  -3.078  0.00  0.00    +0.254 C 
ATOM     10  O   LIG    1        5.756  -1.575  -3.070  0.00  0.00    -0.487 OA
ATOM     11  C   LIG    1        5.606  -0.313  -3.615  0.00  0.00    +0.159 A 
ATOM     12  C   LIG    1        6.791   0.361  -3.927  0.00  0.00    +0.168 A 
ATOM     13  F   LIG    1        7.992  -0.234  -3.736  0.00  0.00    -0.202 F 
ATOM     14  C   LIG    1        6.740   1.659  -4.432  0.00  0.00    +0.080 A 
ATOM     15  C   LIG    1        5.510   2.285  -4.618  0.00  0.00    +0.127 A 
ATOM     16  F   LIG    1        5.460   3.547  -5.101  0.00  0.00    -0.205 F 
ATOM     17  C   LIG    1        4.329   1.610  -4.307  0.00  0.00    +0.045 A 
ATOM     18  C   LIG    1        4.356   0.303  -3.809  0.00  0.00    +0.002 A 
ATOM     19  C   LIG    1        3.075  -0.450  -3.491  0.00  0.00    +0.067 C 
ENDBRANCH   2   8
BRANCH   1  20
ATOM     20  C   LIG    1        2.015  -1.932   0.087  0.00  0.00    +0.036 C 
BRANCH  20  21
ATOM     21  C   LIG    1        1.724  -0.415   0.103  0.00  0.00    -0.076 C 
BRANCH  21  22
ATOM     22  N   LIG    1        0.212  -0.156  -0.023  0.00  0.00    +0.382 N 
ATOM     23  H   LIG    1       -0.130  -0.624  -0.850  0.00  0.00    -0.085 HD
ATOM     24  H   LIG    1       -0.257  -0.559   0.776  0.00  0.00    -0.085 HD
BRANCH  22  25
ATOM     25  C   LIG    1       -0.158   1.332  -0.117  0.00  0.00    -0.047 C 
BRANCH  25  29
ATOM     26  C   LIG    1       -4.390   2.019  -0.426  0.00  0.00    +0.000 A 
ATOM     27  C   LIG    1       -3.633   1.852  -1.583  0.00  0.00    +0.000 A 
ATOM     28  C   LIG    1       -2.263   1.623  -1.484  0.00  0.00    +0.002 A 
ATOM     29  C   LIG    1       -1.656   1.557  -0.226  0.00  0.00    -0.064 A 
ATOM     30  C   LIG    1       -2.421   1.733   0.931  0.00  0.00    +0.002 A 
ATOM     31  C   LIG    1       -3.791   1.961   0.831  0.00  0.00    +0.000 A 
ENDBRANCH  25  29
ENDBRANCH  22  25
ENDBRANCH  21  22
ENDBRANCH  20  21
ENDBRANCH   1  20
TORSDOF 6
