REMARK  Name = DB12504
REMARK                            x       y       z     vdW  Elec       q    Type
REMARK                         _______ _______ _______ _____ _____    ______ ____
ROOT
ATOM      1  C   LIG    1       -2.181   1.164   0.022  0.00  0.00    +0.088 A 
ATOM      2  N   LIG    1       -0.829   1.119  -0.097  0.00  0.00    -0.250 NA
ATOM      3  C   LIG    1       -0.197  -0.085  -0.057  0.00  0.00    +0.045 A 
ATOM      4  C   LIG    1       -0.903  -1.274   0.170  0.00  0.00    +0.025 A 
ATOM      5  C   LIG    1       -2.291  -1.224   0.302  0.00  0.00    +0.027 A 
ATOM      6  C   LIG    1       -2.958   0.007   0.214  0.00  0.00    +0.060 A 
ENDROOT
BRANCH   3   7
ATOM      7  C   LIG    1        1.340  -0.069  -0.169  0.00  0.00    +0.043 C 
ATOM      8  C   LIG    1        1.984  -1.293  -0.875  0.00  0.00    +0.044 C 
ATOM      9  C   LIG    1        1.930  -1.276  -2.431  0.00  0.00    +0.065 C 
ATOM     10  C   LIG    1        2.971  -2.284  -2.963  0.00  0.00    +0.041 C 
ATOM     11  C   LIG    1        0.524  -1.595  -2.989  0.00  0.00    +0.041 C 
ATOM     12  O   LIG    1        2.437  -0.010  -2.891  0.00  0.00    -0.368 OA
ATOM     13  C   LIG    1        1.963   1.247  -2.372  0.00  0.00    +0.065 C 
ATOM     14  C   LIG    1        3.043   2.250  -2.831  0.00  0.00    +0.041 C 
ATOM     15  C   LIG    1        0.585   1.628  -2.960  0.00  0.00    +0.041 C 
ATOM     16  C   LIG    1        1.974   1.199  -0.812  0.00  0.00    +0.044 C 
ENDBRANCH   3   7
BRANCH   1  22
ATOM     17  C   LIG    1       -5.453   4.263   1.069  0.00  0.00    +0.011 C 
ATOM     18  C   LIG    1       -4.413   4.928   0.130  0.00  0.00    -0.031 C 
ATOM     19  C   LIG    1       -4.776   6.400  -0.167  0.00  0.00    +0.011 C 
ATOM     20  C   LIG    1       -4.336   4.159  -1.224  0.00  0.00    +0.034 C 
ATOM     21  C   LIG    1       -3.583   2.835  -1.081  0.00  0.00    -0.021 C 
ATOM     22  C   LIG    1       -2.733   2.532  -0.071  0.00  0.00    -0.024 C 
ATOM     23  C   LIG    1       -2.537   3.473   1.121  0.00  0.00    +0.037 C 
ATOM     24  C   LIG    1       -2.989   4.905   0.759  0.00  0.00    +0.011 C 
ENDBRANCH   1  22
BRANCH   6  25
ATOM     25  N   LIG    1       -4.351   0.137   0.365  0.00  0.00    -0.277 N 
ATOM     26  H   LIG    1       -4.664   1.042   0.688  0.00  0.00    +0.155 HD
ATOM     27  C   LIG    1       -5.320  -0.734   0.001  0.00  0.00    +0.284 C 
ATOM     28  O   LIG    1       -5.116  -1.857  -0.468  0.00  0.00    -0.267 OA
BRANCH  27  29
ATOM     29  C   LIG    1       -6.668  -0.238   0.216  0.00  0.00    +0.195 A 
ATOM     30  N   LIG    1       -7.710  -1.038   0.307  0.00  0.00    -0.231 NA
ATOM     31  C   LIG    1       -8.718  -0.227   0.472  0.00  0.00    +0.150 A 
ATOM     32  C   LIG    1       -8.270   1.072   0.465  0.00  0.00    +0.137 A 
ATOM     33  N   LIG    1       -6.976   1.045   0.292  0.00  0.00    -0.326 N 
ATOM     34  H   LIG    1       -6.364   1.813   0.232  0.00  0.00    +0.168 HD
BRANCH  32  35
ATOM     35  C   LIG    1       -9.034   2.300   0.613  0.00  0.00    +0.119 C 
ATOM     36  N   LIG    1       -9.642   3.278   0.731  0.00  0.00    -0.189 NA
ENDBRANCH  32  35
ENDBRANCH  27  29
ENDBRANCH   6  25
TORSDOF 5
