REMARK  Name = DB12290
REMARK                            x       y       z     vdW  Elec       q    Type
REMARK                         _______ _______ _______ _____ _____    ______ ____
ROOT
ATOM      1  C   LIG    1        1.500   0.034  -0.077  0.00  0.00    +0.068 A 
ATOM      2  C   LIG    1        2.200  -0.918  -0.839  0.00  0.00    +0.126 A 
ATOM      3  C   LIG    1        3.585  -0.838  -0.965  0.00  0.00    +0.047 A 
ATOM      4  C   LIG    1        4.294   0.182  -0.337  0.00  0.00    +0.019 A 
ATOM      5  C   LIG    1        3.630   1.144   0.433  0.00  0.00    +0.065 A 
ATOM      6  C   LIG    1        4.391   2.241   1.121  0.00  0.00    +0.200 A 
ATOM      7  O   LIG    1        5.620   2.300   1.054  0.00  0.00    -0.286 OA
ATOM      8  C   LIG    1        3.534   3.199   1.863  0.00  0.00    +0.064 A 
ATOM      9  C   LIG    1        2.201   2.971   1.922  0.00  0.00    +0.208 A 
ATOM     10  O   LIG    1        1.526   1.961   1.322  0.00  0.00    -0.462 OA
ATOM     11  C   LIG    1        2.231   1.054   0.557  0.00  0.00    +0.148 A 
ENDROOT
BRANCH   1  12
ATOM     12  C   LIG    1       -0.028  -0.041   0.079  0.00  0.00    +0.187 C 
ATOM     13  O   LIG    1       -0.610   1.241  -0.169  0.00  0.00    -0.361 OA
ATOM     14  C   LIG    1       -2.038   1.270  -0.196  0.00  0.00    +0.175 C 
ATOM     15  C   LIG    1       -2.561   0.886   1.213  0.00  0.00    +0.176 C 
ATOM     16  C   LIG    1       -1.996  -0.487   1.655  0.00  0.00    +0.177 C 
ATOM     17  C   LIG    1       -0.459  -0.550   1.484  0.00  0.00    +0.179 C 
BRANCH  15  18
ATOM     18  O   LIG    1       -3.978   0.898   1.265  0.00  0.00    -0.386 OA
ATOM     19  H   LIG    1       -4.310   0.160   0.750  0.00  0.00    +0.210 HD
ENDBRANCH  15  18
BRANCH  16  20
ATOM     20  O   LIG    1       -2.381  -0.808   2.983  0.00  0.00    -0.386 OA
ATOM     21  H   LIG    1       -2.031  -0.137   3.574  0.00  0.00    +0.210 HD
ENDBRANCH  16  20
BRANCH  17  22
ATOM     22  O   LIG    1        0.027  -1.860   1.725  0.00  0.00    -0.386 OA
ATOM     23  H   LIG    1       -0.113  -2.071   2.652  0.00  0.00    +0.210 HD
ENDBRANCH  17  22
BRANCH  14  24
ATOM     24  C   LIG    1       -2.469   2.694  -0.610  0.00  0.00    +0.190 C 
BRANCH  24  25
ATOM     25  O   LIG    1       -2.069   2.977  -1.936  0.00  0.00    -0.392 OA
ATOM     26  H   LIG    1       -2.341   3.872  -2.154  0.00  0.00    +0.210 HD
ENDBRANCH  24  25
ENDBRANCH  14  24
ENDBRANCH   1  12
BRANCH   8  27
ATOM     27  C   LIG    1        4.138   4.335   2.624  0.00  0.00    -0.011 A 
ATOM     28  C   LIG    1        5.189   5.095   2.087  0.00  0.00    +0.012 A 
ATOM     29  C   LIG    1        5.730   6.166   2.793  0.00  0.00    +0.046 A 
ATOM     30  C   LIG    1        5.218   6.497   4.044  0.00  0.00    +0.117 A 
ATOM     31  C   LIG    1        4.168   5.765   4.591  0.00  0.00    +0.046 A 
ATOM     32  C   LIG    1        3.630   4.695   3.882  0.00  0.00    +0.012 A 
BRANCH  30  33
ATOM     33  O   LIG    1        5.747   7.551   4.740  0.00  0.00    -0.507 OA
ATOM     34  H   LIG    1        6.462   7.987   4.270  0.00  0.00    +0.292 HD
ENDBRANCH  30  33
ENDBRANCH   8  27
BRANCH   2  35
ATOM     35  O   LIG    1        1.555  -1.950  -1.470  0.00  0.00    -0.506 OA
ATOM     36  H   LIG    1        2.157  -2.529  -1.943  0.00  0.00    +0.292 HD
ENDBRANCH   2  35
TORSDOF 9
