REMARK  Name = DB12888
REMARK                            x       y       z     vdW  Elec       q    Type
REMARK                         _______ _______ _______ _____ _____    ______ ____
ROOT
ATOM      1  C   LIG    1        2.228  -1.722  -0.010  0.00  0.00    +0.090 A 
ATOM      2  C   LIG    1        2.392  -2.418  -1.217  0.00  0.00    +0.058 A 
ATOM      3  C   LIG    1        2.696  -3.786  -1.156  0.00  0.00    +0.112 A 
ATOM      4  N   LIG    1        2.909  -4.707  -2.143  0.00  0.00    -0.209 NA
ATOM      5  C   LIG    1        3.155  -5.825  -1.486  0.00  0.00    +0.228 A 
ATOM      6  O   LIG    1        3.119  -5.717  -0.120  0.00  0.00    -0.435 OA
ATOM      7  C   LIG    1        2.824  -4.407   0.095  0.00  0.00    +0.156 A 
ATOM      8  C   LIG    1        2.661  -3.734   1.309  0.00  0.00    +0.050 A 
ATOM      9  C   LIG    1        2.357  -2.373   1.226  0.00  0.00    +0.030 A 
ENDROOT
BRANCH   5  10
ATOM     10  C   LIG    1        3.461  -7.166  -2.077  0.00  0.00    +0.038 A 
ATOM     11  C   LIG    1        3.715  -8.262  -1.247  0.00  0.00    +0.021 A 
ATOM     12  C   LIG    1        4.012  -9.536  -1.792  0.00  0.00    -0.017 A 
ATOM     13  C   LIG    1        4.276 -10.659  -0.967  0.00  0.00    +0.008 A 
ATOM     14  C   LIG    1        4.569 -11.896  -1.535  0.00  0.00    +0.001 A 
ATOM     15  C   LIG    1        4.606 -12.048  -2.917  0.00  0.00    +0.001 A 
ATOM     16  C   LIG    1        4.349 -10.967  -3.756  0.00  0.00    +0.008 A 
ATOM     17  C   LIG    1        4.049  -9.693  -3.210  0.00  0.00    -0.018 A 
ATOM     18  C   LIG    1        3.785  -8.572  -4.032  0.00  0.00    +0.009 A 
ATOM     19  C   LIG    1        3.497  -7.335  -3.463  0.00  0.00    +0.014 A 
ENDBRANCH   5  10
BRANCH   1  20
ATOM     20  S   LIG    1        1.829   0.025  -0.045  0.00  0.00    -0.003 S 
ATOM     21  O   LIG    1        2.322   0.615   1.204  0.00  0.00    -0.169 OA
ATOM     22  O   LIG    1        2.276   0.555  -1.339  0.00  0.00    -0.169 OA
BRANCH  20  24
ATOM     23  C   LIG    1       -0.583   1.473  -0.009  0.00  0.00    +0.028 C 
ATOM     24  C   LIG    1       -0.062   0.031  -0.012  0.00  0.00    +0.168 C 
ENDBRANCH  20  24
ENDBRANCH   1  20
TORSDOF 3
