REMARK  Name = DB12597
REMARK                            x       y       z     vdW  Elec       q    Type
REMARK                         _______ _______ _______ _____ _____    ______ ____
ROOT
ATOM      1  C   LIG    1        1.488  -0.139  -0.712  0.00  0.00    +0.056 A 
ATOM      2  C   LIG    1        2.216   0.844  -1.390  0.00  0.00    +0.126 A 
ATOM      3  N   LIG    1        3.563   0.959  -1.313  0.00  0.00    -0.239 NA
ATOM      4  C   LIG    1        4.270   0.095  -0.533  0.00  0.00    +0.131 A 
ATOM      5  C   LIG    1        3.621  -0.959   0.150  0.00  0.00    +0.040 A 
ATOM      6  C   LIG    1        2.225  -1.049   0.062  0.00  0.00    +0.028 A 
ENDROOT
BRANCH   5   7
ATOM      7  C   LIG    1        4.296  -2.038   0.927  0.00  0.00    +0.069 A 
ATOM      8  N   LIG    1        3.987  -2.365   2.224  0.00  0.00    -0.277 N 
ATOM      9  H   LIG    1        3.285  -1.892   2.776  0.00  0.00    +0.189 HD
ATOM     10  N   LIG    1        4.707  -3.375   2.725  0.00  0.00    -0.182 NA
ATOM     11  C   LIG    1        5.495  -3.726   1.737  0.00  0.00    +0.135 A 
ATOM     12  C   LIG    1        5.289  -2.948   0.594  0.00  0.00    +0.049 A 
ENDBRANCH   5   7
BRANCH   4  13
ATOM     13  N   LIG    1        5.661   0.332  -0.486  0.00  0.00    -0.312 N 
ATOM     14  C   LIG    1        6.359   1.386  -1.235  0.00  0.00    +0.137 C 
ATOM     15  C   LIG    1        7.823   1.452  -0.806  0.00  0.00    +0.133 C 
ATOM     16  C   LIG    1        7.673   1.062   0.654  0.00  0.00    +0.052 C 
ATOM     17  C   LIG    1        6.534   0.037   0.657  0.00  0.00    +0.109 C 
BRANCH  15  18
ATOM     18  O   LIG    1        8.591   0.509  -1.531  0.00  0.00    -0.390 OA
ATOM     19  H   LIG    1        8.459  -0.356  -1.138  0.00  0.00    +0.210 HD
ENDBRANCH  15  18
ENDBRANCH   4  13
BRANCH   1  22
ATOM     20  N   LIG    1       -0.623  -1.240  -0.208  0.00  0.00    -0.281 N 
ATOM     21  H   LIG    1       -0.010  -1.910   0.232  0.00  0.00    +0.155 HD
ATOM     22  C   LIG    1       -0.021  -0.202  -0.836  0.00  0.00    +0.250 C 
ATOM     23  O   LIG    1       -0.620   0.653  -1.491  0.00  0.00    -0.270 OA
BRANCH  20  25
ATOM     24  C   LIG    1       -2.289  -2.859   0.294  0.00  0.00    +0.027 A 
ATOM     25  C   LIG    1       -1.990  -1.558  -0.113  0.00  0.00    +0.034 A 
ATOM     26  C   LIG    1       -3.035  -0.656  -0.364  0.00  0.00    +0.027 A 
ATOM     27  C   LIG    1       -4.357  -1.069  -0.222  0.00  0.00    +0.048 A 
ATOM     28  C   LIG    1       -4.661  -2.370   0.177  0.00  0.00    +0.129 A 
ATOM     29  C   LIG    1       -3.613  -3.267   0.435  0.00  0.00    +0.048 A 
BRANCH  28  30
ATOM     30  O   LIG    1       -6.005  -2.677   0.292  0.00  0.00    -0.420 OA
BRANCH  30  31
ATOM     31  C   LIG    1       -6.431  -3.971   0.724  0.00  0.00    +0.489 C 
ATOM     32 CL   LIG    1       -8.210  -4.024   0.794  0.00  0.00    +0.000 Cl
ATOM     33  F   LIG    1       -5.974  -4.239   1.949  0.00  0.00    -0.149 F 
ATOM     34  F   LIG    1       -6.034  -4.914  -0.133  0.00  0.00    -0.149 F 
ENDBRANCH  30  31
ENDBRANCH  28  30
ENDBRANCH  20  25
ENDBRANCH   1  22
TORSDOF 7
