REMARK  Name = DB12068
REMARK                            x       y       z     vdW  Elec       q    Type
REMARK                         _______ _______ _______ _____ _____    ______ ____
ROOT
ATOM      1  N   LIG    1        1.465  -0.097  -0.043  0.00  0.00    -0.216 N 
ATOM      2  H   LIG    1        1.929   0.796  -0.121  0.00  0.00    +0.174 HD
ENDROOT
BRANCH   1   6
ATOM      3  C   LIG    1       -2.760  -0.023  -0.038  0.00  0.00    +0.141 A 
ATOM      4  C   LIG    1       -2.091  -1.261  -0.054  0.00  0.00    +0.079 A 
ATOM      5  C   LIG    1       -0.686  -1.294  -0.047  0.00  0.00    +0.051 A 
ATOM      6  C   LIG    1        0.062  -0.111  -0.047  0.00  0.00    +0.050 A 
ATOM      7  C   LIG    1       -0.607   1.112  -0.049  0.00  0.00    +0.028 A 
ATOM      8  C   LIG    1       -1.998   1.158  -0.040  0.00  0.00    +0.049 A 
BRANCH   4   9
ATOM      9  N   LIG    1       -2.887  -2.426  -0.046  0.00  0.00    -0.266 N 
ATOM     10  H   LIG    1       -3.847  -2.275   0.227  0.00  0.00    +0.156 HD
ATOM     11  C   LIG    1       -2.565  -3.675  -0.439  0.00  0.00    +0.301 C 
ATOM     12  N   LIG    1       -3.571  -4.526  -0.244  0.00  0.00    -0.313 N 
ATOM     13  H   LIG    1       -3.467  -5.496  -0.503  0.00  0.00    +0.146 HD
ATOM     14  H   LIG    1       -4.437  -4.212   0.170  0.00  0.00    +0.146 HD
ATOM     15  O   LIG    1       -1.497  -4.032  -0.933  0.00  0.00    -0.253 OA
ENDBRANCH   4   9
BRANCH   3  17
ATOM     16  C   LIG    1       -4.858   1.201  -0.004  0.00  0.00    +0.277 C 
ATOM     17  O   LIG    1       -4.146  -0.032  -0.025  0.00  0.00    -0.493 OA
ENDBRANCH   3  17
ENDBRANCH   1   6
BRANCH   1  18
ATOM     18  S   LIG    1        2.474  -1.549   0.134  0.00  0.00    +0.078 S 
ATOM     19  O   LIG    1        2.265  -2.367  -1.066  0.00  0.00    -0.150 OA
ATOM     20  O   LIG    1        2.174  -2.095   1.463  0.00  0.00    -0.150 OA
BRANCH  18  21
ATOM     21  C   LIG    1        4.177  -0.974   0.097  0.00  0.00    +0.184 A 
ATOM     22  C   LIG    1        4.585  -0.120  -0.937  0.00  0.00    +0.191 A 
ATOM     23  F   LIG    1        3.713   0.266  -1.898  0.00  0.00    -0.200 F 
ATOM     24  C   LIG    1        5.903   0.340  -0.990  0.00  0.00    +0.198 A 
ATOM     25  F   LIG    1        6.290   1.168  -1.988  0.00  0.00    -0.199 F 
ATOM     26  C   LIG    1        6.821  -0.056  -0.018  0.00  0.00    +0.199 A 
ATOM     27  F   LIG    1        8.098   0.392  -0.071  0.00  0.00    -0.199 F 
ATOM     28  C   LIG    1        6.425  -0.915   1.007  0.00  0.00    +0.198 A 
ATOM     29  F   LIG    1        7.320  -1.303   1.945  0.00  0.00    -0.199 F 
ATOM     30  C   LIG    1        5.109  -1.379   1.065  0.00  0.00    +0.191 A 
ATOM     31  F   LIG    1        4.760  -2.223   2.063  0.00  0.00    -0.200 F 
ENDBRANCH  18  21
ENDBRANCH   1  18
TORSDOF 5
