REMARK  Name = DB12358
REMARK                            x       y       z     vdW  Elec       q    Type
REMARK                         _______ _______ _______ _____ _____    ______ ____
ROOT
ATOM      1  C   LIG    1        3.487  -1.329   0.000  0.00  0.00    +0.349 C 
ATOM      2  O   LIG    1        4.309  -0.407   0.000  0.00  0.00    -0.244 OA
ENDROOT
BRANCH   1   3
ATOM      3  C   LIG    1        3.870  -2.750  -0.000  0.00  0.00    +0.128 C 
ATOM      4  C   LIG    1        5.168  -3.113   0.000  0.00  0.00    +0.036 C 
BRANCH   3   5
ATOM      5  C   LIG    1        2.836  -3.738   0.000  0.00  0.00    +0.106 C 
ATOM      6  N   LIG    1        2.013  -4.553   0.000  0.00  0.00    -0.191 NA
ENDBRANCH   3   5
ENDBRANCH   1   3
BRANCH   1   7
ATOM      7  O   LIG    1        2.144  -1.140   0.000  0.00  0.00    -0.461 OA
BRANCH   7   8
ATOM      8  C   LIG    1        1.587   0.168   0.000  0.00  0.00    +0.232 C 
BRANCH   8   9
ATOM      9  C   LIG    1        0.054   0.070   0.000  0.00  0.00    +0.041 C 
BRANCH   9  11
ATOM     10  C   LIG    1       -2.158   1.361   0.000  0.00  0.00    +0.004 C 
ATOM     11  C   LIG    1       -0.625   1.450   0.000  0.00  0.00    -0.000 C 
ENDBRANCH   9  11
ENDBRANCH   8   9
ENDBRANCH   7   8
ENDBRANCH   1   7
TORSDOF 6
