REMARK  Name = DB12162
REMARK                            x       y       z     vdW  Elec       q    Type
REMARK                         _______ _______ _______ _____ _____    ______ ____
ROOT
ATOM      1  C   LIG    1        1.909  -1.450   0.000  0.00  0.00    +0.124 A 
ATOM      2  C   LIG    1        3.316  -1.455   0.000  0.00  0.00    -0.002 A 
ATOM      3  C   LIG    1        4.023  -2.675   0.000  0.00  0.00    -0.002 A 
ATOM      4  C   LIG    1        3.315  -3.890   0.000  0.00  0.00    +0.123 A 
ATOM      5  C   LIG    1        1.913  -3.889   0.000  0.00  0.00    -0.005 A 
ATOM      6  C   LIG    1        1.095  -5.176   0.000  0.00  0.00    +0.047 C 
ATOM      7  C   LIG    1        5.555  -2.668   0.000  0.00  0.00    +0.048 C 
ATOM      8  C   LIG    1        4.082  -0.131   0.000  0.00  0.00    +0.048 C 
ATOM      9  C   LIG    1        1.227  -2.676   0.000  0.00  0.00    +0.052 A 
ENDROOT
BRANCH   4  10
ATOM     10  O   LIG    1        3.993  -5.086   0.000  0.00  0.00    -0.506 OA
ATOM     11  H   LIG    1        4.946  -4.973   0.000  0.00  0.00    +0.292 HD
ENDBRANCH   4  10
BRANCH   1  12
ATOM     12  O   LIG    1        1.262  -0.226   0.000  0.00  0.00    -0.492 OA
BRANCH  12  13
ATOM     13  C   LIG    1       -0.162  -0.171   0.000  0.00  0.00    +0.229 C 
BRANCH  13  14
ATOM     14  C   LIG    1       -0.595   1.302   0.000  0.00  0.00    +0.041 C 
BRANCH  14  15
ATOM     15  C   LIG    1       -2.124   1.478   0.000  0.00  0.00    +0.003 C 
BRANCH  15  16
ATOM     16  C   LIG    1       -2.558   2.954   0.000  0.00  0.00    -0.000 C 
BRANCH  16  18
ATOM     17  C   LIG    1       -4.520   4.602   0.000  0.00  0.00    +0.004 C 
ATOM     18  C   LIG    1       -4.087   3.130   0.000  0.00  0.00    -0.003 C 
ENDBRANCH  16  18
ENDBRANCH  15  16
ENDBRANCH  14  15
ENDBRANCH  13  14
ENDBRANCH  12  13
ENDBRANCH   1  12
TORSDOF 7
