REMARK  Name = DB12030
REMARK                            x       y       z     vdW  Elec       q    Type
REMARK                         _______ _______ _______ _____ _____    ______ ____
ROOT
ATOM      1  C   UNK A  1        1.034  -0.732   0.470  0.00  0.00    +0.182 C 
ENDROOT
BRANCH   1   3
ATOM      2  C   UNK A  0        0.877   1.253   2.039  0.00  0.00    +0.214 C 
ATOM      3  N   UNK A  1        0.510   0.027   1.621  0.00  0.00    -0.302 N 
ATOM      4  H   UNK A  1       -0.221  -0.446   2.134  0.00  0.00    +0.150 HD
ATOM      5  O   UNK A  0        1.754   1.911   1.478  0.00  0.00    -0.276 OA
BRANCH   2   6
ATOM      6  C   UNK A  0        0.166   1.848   3.273  0.00  0.00    +0.096 C 
BRANCH   6   7
ATOM      7  C   UNK A  0       -0.844   0.931   4.021  0.00  0.00    +0.013 C 
BRANCH   7   9
ATOM      8  C   UNK A  0       -2.521   0.917   2.044  0.00  0.00    +0.008 C 
ATOM      9  C   UNK A  0       -2.341   0.967   3.577  0.00  0.00    -0.010 C 
BRANCH   9  10
ATOM     10  C   UNK A  0       -3.136  -0.164   4.315  0.00  0.00    +0.001 C 
ATOM     11  C   UNK A  0       -4.673  -0.345   4.053  0.00  0.00    +0.000 C 
ATOM     12  C   UNK A  0       -5.387   1.043   4.151  0.00  0.00    +0.014 C 
ATOM     13  C   UNK A  0       -5.108  -1.069   2.730  0.00  0.00    +0.121 C 
ATOM     14  C   UNK A  0       -6.600  -1.494   2.777  0.00  0.00    +0.036 C 
ATOM     15  C   UNK A  0       -7.001  -2.341   4.025  0.00  0.00    +0.003 C 
ATOM     16  C   UNK A  0       -8.531  -2.730   4.061  0.00  0.00    -0.026 C 
ATOM     17  C   UNK A  0       -9.446  -1.473   4.203  0.00  0.00    +0.012 C 
ATOM     18  C   UNK A  0       -9.028  -3.467   2.777  0.00  0.00    +0.010 C 
ATOM     19  C   UNK A  0       -8.357  -4.830   2.535  0.00  0.00    +0.032 C 
ATOM     20  C   UNK A  0       -8.579  -5.769   3.736  0.00  0.00    +0.115 C 
ATOM     21  C   UNK A  0       -8.171  -5.104   5.067  0.00  0.00    +0.035 C 
ATOM     22  C   UNK A  0       -8.781  -3.686   5.281  0.00  0.00    +0.000 C 
ATOM     23  C   UNK A  0       -8.320  -3.024   6.611  0.00  0.00    +0.035 C 
ATOM     24  C   UNK A  0       -6.857  -2.514   6.610  0.00  0.00    +0.118 C 
ATOM     25  C   UNK A  0       -6.539  -1.640   5.353  0.00  0.00    +0.025 C 
ATOM     26  C   UNK A  0       -5.027  -1.289   5.236  0.00  0.00    +0.003 C 
ATOM     27  C   UNK A  0       -4.311  -0.698   6.451  0.00  0.00    +0.005 C 
ATOM     28  C   UNK A  0       -3.042  -0.067   5.862  0.00  0.00    +0.005 C 
BRANCH  13  29
ATOM     29  O   UNK A  0       -4.288  -2.192   2.450  0.00  0.00    -0.391 OA
ATOM     30  H   UNK A  0       -4.550  -2.558   1.602  0.00  0.00    +0.210 HD
ENDBRANCH  13  29
BRANCH  20  31
ATOM     31  O   UNK A  0       -7.893  -6.991   3.557  0.00  0.00    -0.392 OA
ATOM     32  H   UNK A  0       -7.963  -7.248   2.635  0.00  0.00    +0.210 HD
ENDBRANCH  20  31
BRANCH  24  33
ATOM     33  O   UNK A  0       -5.955  -3.595   6.777  0.00  0.00    -0.391 OA
ATOM     34  H   UNK A  0       -5.068  -3.240   6.872  0.00  0.00    +0.210 HD
ENDBRANCH  24  33
ENDBRANCH   9  10
ENDBRANCH   7   9
ENDBRANCH   6   7
ENDBRANCH   2   6
ENDBRANCH   1   3
BRANCH   1  35
ATOM     35  C   UNK A  1        0.649  -0.073  -0.911  0.00  0.00    +0.325 C 
ATOM     36  O   UNK A  1        1.563  -0.101  -1.767  0.00  0.00    -0.249 OA
BRANCH  35  37
ATOM     37  O   UNK A  1       -0.535   0.325  -1.031  0.00  0.00    -0.479 OA
ATOM     38  H   UNK A  1       -1.119   0.287  -0.299  0.00  0.00    +0.295 HD
ENDBRANCH  35  37
ENDBRANCH   1  35
BRANCH   1  39
ATOM     39  C   UNK A  1        0.544  -2.204   0.526  0.00  0.00    +0.034 C 
BRANCH  39  40
ATOM     40  C   UNK A  1        1.064  -2.988   1.751  0.00  0.00    +0.004 C 
BRANCH  40  41
ATOM     41  C   UNK A  1        0.249  -4.264   2.047  0.00  0.00    +0.019 C 
BRANCH  41  42
ATOM     42  C   UNK A  1        0.734  -5.075   3.274  0.00  0.00    +0.103 C 
BRANCH  42  43
ATOM     43  N   UNK A  1        1.027  -4.268   4.468  0.00  0.00    -0.326 N 
ATOM     44  H   UNK A  1        2.002  -4.167   4.706  0.00  0.00    +0.148 HD
BRANCH  43  45
ATOM     45  C   UNK A  1        0.110  -3.671   5.286  0.00  0.00    +0.135 C 
ATOM     46  S   UNK A  1       -1.555  -3.885   5.180  0.00  0.00    -0.019 S 
BRANCH  45  47
ATOM     47  N   UNK A  1        0.737  -2.829   6.162  0.00  0.00    -0.297 N 
ATOM     48  H   UNK A  1        1.734  -2.736   6.030  0.00  0.00    +0.154 HD
BRANCH  47  49
ATOM     49  C   UNK A  1        0.207  -1.916   7.084  0.00  0.00    +0.033 A 
ATOM     50  C   UNK A  1       -0.652  -2.302   8.116  0.00  0.00    +0.038 A 
ATOM     51  C   UNK A  1       -1.205  -1.356   8.998  0.00  0.00    +0.065 A 
ATOM     52  C   UNK A  1       -0.852   0.014   8.845  0.00  0.00    -0.021 A 
ATOM     53  C   UNK A  1        0.051   0.365   7.828  0.00  0.00    +0.007 A 
ATOM     54  C   UNK A  1        0.579  -0.583   6.961  0.00  0.00    +0.023 A 
BRANCH  52  55
ATOM     55  C   UNK A  1       -1.369   1.144   9.766  0.00  0.00    +0.087 C 
ATOM     56  C   UNK A  1       -0.230   1.940  10.416  0.00  0.00    +0.007 A 
ATOM     57  C   UNK A  1        0.388   1.554  11.610  0.00  0.00    +0.012 A 
ATOM     58  C   UNK A  1        1.408   2.324  12.170  0.00  0.00    +0.046 A 
ATOM     59  C   UNK A  1        1.820   3.508  11.549  0.00  0.00    +0.120 A 
ATOM     60  C   UNK A  1        1.204   3.917  10.362  0.00  0.00    +0.092 A 
ATOM     61  C   UNK A  1        0.197   3.131   9.803  0.00  0.00    +0.136 A 
ATOM     62  O   UNK A  1       -0.419   3.597   8.659  0.00  0.00    -0.455 OA
ATOM     63  C   UNK A  1       -1.749   3.281   8.468  0.00  0.00    +0.136 A 
ATOM     64  C   UNK A  1       -2.539   4.206   7.786  0.00  0.00    +0.092 A 
ATOM     65  C   UNK A  1       -3.903   3.963   7.633  0.00  0.00    +0.120 A 
ATOM     66  C   UNK A  1       -4.472   2.814   8.182  0.00  0.00    +0.046 A 
ATOM     67  C   UNK A  1       -3.676   1.903   8.878  0.00  0.00    +0.012 A 
ATOM     68  C   UNK A  1       -2.299   2.109   9.017  0.00  0.00    +0.007 A 
BRANCH  59  69
ATOM     69  O   UNK A  1        2.745   4.213  12.063  0.00  0.00    -0.507 OA
ATOM     70  H   UNK A  1        3.156   3.937  12.859  0.00  0.00    +0.292 HD
ENDBRANCH  59  69
BRANCH  65  71
ATOM     71  O   UNK A  1       -4.686   4.858   6.955  0.00  0.00    -0.507 OA
ATOM     72  H   UNK A  1       -5.608   4.594   6.918  0.00  0.00    +0.292 HD
ENDBRANCH  65  71
ENDBRANCH  52  55
BRANCH  51  73
ATOM     73  C   UNK A  1       -2.158  -1.855  10.045  0.00  0.00    +0.337 C 
ATOM     74  O   UNK A  1       -1.738  -2.728  10.840  0.00  0.00    -0.245 OA
BRANCH  73  75
ATOM     75  O   UNK A  1       -3.326  -1.406  10.037  0.00  0.00    -0.477 OA
ATOM     76  H   UNK A  1       -3.573  -0.752   9.413  0.00  0.00    +0.295 HD
ENDBRANCH  73  75
ENDBRANCH  51  73
ENDBRANCH  47  49
ENDBRANCH  45  47
ENDBRANCH  43  45
ENDBRANCH  42  43
ENDBRANCH  41  42
ENDBRANCH  40  41
ENDBRANCH  39  40
ENDBRANCH   1  39
TORSDOF 23
