REMARK  Name = DB12985
REMARK                            x       y       z     vdW  Elec       q    Type
REMARK                         _______ _______ _______ _____ _____    ______ ____
ROOT
ATOM      1  C   LIG    1        2.239  -0.931   0.194  0.00  0.00    -0.025 C 
ATOM      2  C   LIG    1        1.851  -2.067  -0.765  0.00  0.00    +0.021 C 
ATOM      3  C   LIG    1        2.337  -3.435  -0.244  0.00  0.00    +0.108 C 
ATOM      4  N   LIG    1        3.783  -3.514   0.078  0.00  0.00    -0.300 N 
ATOM      5  C   LIG    1        4.289  -2.309   0.784  0.00  0.00    +0.108 C 
ATOM      6  C   LIG    1        3.769  -0.963   0.241  0.00  0.00    +0.021 C 
ENDROOT
BRANCH   4   7
ATOM      7  C   LIG    1        4.423  -4.753   0.221  0.00  0.00    +0.218 A 
ATOM      8  N   LIG    1        3.783  -5.864  -0.246  0.00  0.00    -0.222 NA
ATOM      9  C   LIG    1        4.434  -7.051  -0.146  0.00  0.00    +0.129 A 
ATOM     10  C   LIG    1        5.723  -7.169   0.397  0.00  0.00    +0.075 A 
ATOM     11  C   LIG    1        6.307  -5.972   0.835  0.00  0.00    +0.129 A 
ATOM     12  N   LIG    1        5.681  -4.771   0.749  0.00  0.00    -0.222 NA
BRANCH  10  13
ATOM     13  C   LIG    1        6.459  -8.487   0.509  0.00  0.00    +0.269 C 
ATOM     14  N   LIG    1        5.781  -9.585   0.122  0.00  0.00    -0.193 N 
ATOM     15  H   LIG    1        4.914  -9.582  -0.395  0.00  0.00    +0.183 HD
ATOM     16  O   LIG    1        7.608  -8.524   0.958  0.00  0.00    -0.268 OA
BRANCH  14  17
ATOM     17  O   LIG    1        6.512 -10.763  -0.064  0.00  0.00    -0.295 OA
ATOM     18  H   LIG    1        7.416 -10.449  -0.142  0.00  0.00    +0.241 HD
ENDBRANCH  14  17
ENDBRANCH  10  13
ENDBRANCH   4   7
BRANCH   1  19
ATOM     19  C   LIG    1        1.715   0.461  -0.229  0.00  0.00    -0.079 C 
BRANCH  19  20
ATOM     20  N   LIG    1        0.177   0.487  -0.224  0.00  0.00    +0.382 N 
ATOM     21  H   LIG    1       -0.163  -0.233  -0.846  0.00  0.00    -0.085 HD
ATOM     22  H   LIG    1       -0.149   0.274   0.708  0.00  0.00    -0.085 HD
BRANCH  20  23
ATOM     23  C   LIG    1       -0.422   1.833  -0.658  0.00  0.00    -0.045 C 
BRANCH  23  32
ATOM     24  C   LIG    1       -5.277   1.302  -2.046  0.00  0.00    +0.149 C 
ATOM     25  N   LIG    1       -4.107   1.473  -1.200  0.00  0.00    -0.349 N 
ATOM     26  C   LIG    1       -4.113   1.621   0.175  0.00  0.00    +0.049 A 
ATOM     27  C   LIG    1       -5.172   1.636   1.095  0.00  0.00    +0.026 A 
ATOM     28  C   LIG    1       -4.846   1.807   2.440  0.00  0.00    +0.002 A 
ATOM     29  C   LIG    1       -3.529   1.957   2.863  0.00  0.00    +0.001 A 
ATOM     30  C   LIG    1       -2.475   1.943   1.952  0.00  0.00    +0.010 A 
ATOM     31  C   LIG    1       -2.751   1.774   0.585  0.00  0.00    +0.001 A 
ATOM     32  C   LIG    1       -1.928   1.711  -0.594  0.00  0.00    -0.039 A 
ATOM     33  C   LIG    1       -2.808   1.539  -1.645  0.00  0.00    +0.088 A 
ENDBRANCH  23  32
ENDBRANCH  20  23
ENDBRANCH  19  20
ENDBRANCH   1  19
TORSDOF 7
