REMARK  Name = DB12838
REMARK                            x       y       z     vdW  Elec       q    Type
REMARK                         _______ _______ _______ _____ _____    ______ ____
ROOT
ATOM      1  C   LIG    1        1.845  -0.063   1.884  0.00  0.00    +0.032 A 
ATOM      2  C   LIG    1        2.004  -1.255   2.606  0.00  0.00    +0.056 A 
ATOM      3 CL   LIG    1        2.022  -2.803   1.829  0.00  0.00    -0.082 Cl
ATOM      4  C   LIG    1        2.152  -1.205   3.993  0.00  0.00    +0.042 A 
ATOM      5  C   LIG    1        2.144   0.018   4.666  0.00  0.00    +0.061 A 
ATOM      6 CL   LIG    1        2.331   0.027   6.386  0.00  0.00    -0.082 Cl
ATOM      7  C   LIG    1        1.987   1.208   3.944  0.00  0.00    +0.060 A 
ATOM      8 CL   LIG    1        1.971   2.746   4.734  0.00  0.00    -0.082 Cl
ATOM      9  C   LIG    1        1.839   1.161   2.557  0.00  0.00    +0.038 A 
ENDROOT
BRANCH   1  10
ATOM     10  S   LIG    1        1.643  -0.065   0.125  0.00  0.00    -0.088 S 
BRANCH  10  16
ATOM     11  C   LIG    1       -2.163   1.251  -0.096  0.00  0.00    +0.021 A 
ATOM     12  C   LIG    1       -2.882   0.060  -0.192  0.00  0.00    +0.041 A 
ATOM     13 CL   LIG    1       -4.604   0.107  -0.305  0.00  0.00    -0.084 Cl
ATOM     14  C   LIG    1       -2.223  -1.169  -0.197  0.00  0.00    +0.021 A 
ATOM     15  C   LIG    1       -0.834  -1.208  -0.103  0.00  0.00    +0.016 A 
ATOM     16  C   LIG    1       -0.116  -0.016  -0.004  0.00  0.00    +0.013 A 
ATOM     17  C   LIG    1       -0.774   1.214  -0.002  0.00  0.00    +0.016 A 
ENDBRANCH  10  16
ENDBRANCH   1  10
TORSDOF 2
