REMARK  Name = DB12700
REMARK                            x       y       z     vdW  Elec       q    Type
REMARK                         _______ _______ _______ _____ _____    ______ ____
ROOT
ATOM      1  C   LIG    1        1.470  -0.005   0.670  0.00  0.00    +0.282 C 
ATOM      2  C   LIG    1        2.153  -1.217   1.317  0.00  0.00    +0.208 C 
ATOM      3  C   LIG    1        3.688  -1.118   1.138  0.00  0.00    +0.180 C 
ATOM      4  C   LIG    1        4.083  -0.759  -0.319  0.00  0.00    +0.183 C 
ATOM      5  C   LIG    1        3.198   0.381  -0.899  0.00  0.00    +0.178 C 
ATOM      6  O   LIG    1        1.821   0.055  -0.687  0.00  0.00    -0.341 OA
ENDROOT
BRANCH   3   7
ATOM      7  O   LIG    1        4.315  -2.326   1.527  0.00  0.00    -0.386 OA
ATOM      8  H   LIG    1        4.016  -3.028   0.945  0.00  0.00    +0.210 HD
ENDBRANCH   3   7
BRANCH   1   9
ATOM      9  O   LIG    1        0.098  -0.213   0.792  0.00  0.00    -0.345 OA
BRANCH   9  34
ATOM     10  C   LIG    1       -9.038   7.810  -0.971  0.00  0.00    +0.009 C 
ATOM     11  C   LIG    1       -8.284   7.589   0.360  0.00  0.00    +0.006 C 
ATOM     12  C   LIG    1       -8.264   8.767   1.376  0.00  0.00    +0.040 C 
ATOM     13  N   LIG    1       -8.375  10.150   0.678  0.00  0.00    +0.399 N 
ATOM     14  H   LIG    1       -9.239  10.178   0.156  0.00  0.00    -0.082 HD
ATOM     15  H   LIG    1       -7.624  10.239   0.008  0.00  0.00    -0.082 HD
ATOM     16  C   LIG    1       -8.340  11.346   1.650  0.00  0.00    -0.075 C 
ATOM     17  C   LIG    1       -9.465  11.200   2.700  0.00  0.00    -0.031 C 
ATOM     18  C   LIG    1       -9.490  12.400   3.661  0.00  0.00    +0.005 C 
ATOM     19  C   LIG    1       -9.317   9.864   3.457  0.00  0.00    +0.002 C 
ATOM     20  C   LIG    1       -9.338   8.664   2.491  0.00  0.00    +0.016 C 
ATOM     21  O   LIG    1       -6.969   8.687   1.978  0.00  0.00    -0.388 OA
ATOM     22  C   LIG    1       -6.021   8.267   1.001  0.00  0.00    +0.121 C 
ATOM     23  C   LIG    1       -4.785   7.548   1.578  0.00  0.00    +0.036 C 
ATOM     24  C   LIG    1       -4.787   6.198   0.850  0.00  0.00    +0.001 C 
ATOM     25  C   LIG    1       -6.284   5.847   0.678  0.00  0.00    -0.023 C 
ATOM     26  C   LIG    1       -6.970   5.399   2.013  0.00  0.00    +0.012 C 
ATOM     27  C   LIG    1       -6.349   4.720  -0.382  0.00  0.00    +0.007 C 
ATOM     28  C   LIG    1       -5.571   3.466   0.083  0.00  0.00    +0.005 C 
ATOM     29  C   LIG    1       -4.083   3.764   0.477  0.00  0.00    +0.003 C 
ATOM     30  C   LIG    1       -3.293   2.508   1.016  0.00  0.00    -0.008 C 
ATOM     31  C   LIG    1       -4.027   1.842   2.215  0.00  0.00    +0.016 C 
ATOM     32  C   LIG    1       -3.116   1.481  -0.151  0.00  0.00    +0.014 C 
ATOM     33  C   LIG    1       -2.131   0.335   0.137  0.00  0.00    +0.033 C 
ATOM     34  C   LIG    1       -0.757   0.895   0.527  0.00  0.00    +0.125 C 
ATOM     35  C   LIG    1       -0.876   1.814   1.760  0.00  0.00    +0.062 C 
ATOM     36  C   LIG    1       -1.881   2.943   1.502  0.00  0.00    -0.065 C 
ATOM     37  C   LIG    1       -1.543   4.234   1.713  0.00  0.00    -0.027 C 
ATOM     38  C   LIG    1       -2.459   5.436   1.565  0.00  0.00    +0.031 C 
ATOM     39  C   LIG    1       -3.939   5.018   1.402  0.00  0.00    +0.000 C 
ATOM     40  C   LIG    1       -6.799   7.233   0.171  0.00  0.00    +0.028 C 
ENDBRANCH   9  34
ENDBRANCH   1   9
BRANCH   2  41
ATOM     41  O   LIG    1        1.802  -1.252   2.704  0.00  0.00    -0.338 OA
BRANCH  41  42
ATOM     42  C   LIG    1        1.509  -2.509   3.248  0.00  0.00    +0.282 C 
ATOM     43  C   LIG    1        1.573  -2.406   4.782  0.00  0.00    +0.201 C 
ATOM     44  C   LIG    1        0.387  -1.579   5.333  0.00  0.00    +0.179 C 
ATOM     45  C   LIG    1       -0.955  -2.103   4.782  0.00  0.00    +0.174 C 
ATOM     46  C   LIG    1       -0.877  -2.215   3.242  0.00  0.00    +0.149 C 
ATOM     47  C   LIG    1       -2.128  -2.847   2.609  0.00  0.00    +0.041 C 
ATOM     48  O   LIG    1        0.255  -2.992   2.824  0.00  0.00    -0.343 OA
BRANCH  43  49
ATOM     49  O   LIG    1        1.655  -3.699   5.356  0.00  0.00    -0.384 OA
ATOM     50  H   LIG    1        0.765  -4.049   5.444  0.00  0.00    +0.210 HD
ENDBRANCH  43  49
BRANCH  44  51
ATOM     51  O   LIG    1        0.404  -1.512   6.750  0.00  0.00    -0.386 OA
ATOM     52  H   LIG    1        0.700  -0.637   7.012  0.00  0.00    +0.210 HD
ENDBRANCH  44  51
BRANCH  45  53
ATOM     53  O   LIG    1       -2.037  -1.280   5.186  0.00  0.00    -0.387 OA
ATOM     54  H   LIG    1       -1.854  -0.377   4.916  0.00  0.00    +0.210 HD
ENDBRANCH  45  53
ENDBRANCH  41  42
ENDBRANCH   2  41
BRANCH   4  55
ATOM     55  O   LIG    1        5.488  -0.541  -0.497  0.00  0.00    -0.340 OA
BRANCH  55  56
ATOM     56  C   LIG    1        6.117   0.482   0.232  0.00  0.00    +0.282 C 
ATOM     57  C   LIG    1        7.138  -0.148   1.195  0.00  0.00    +0.201 C 
ATOM     58  C   LIG    1        8.310  -0.779   0.407  0.00  0.00    +0.179 C 
ATOM     59  C   LIG    1        8.911   0.235  -0.590  0.00  0.00    +0.174 C 
ATOM     60  C   LIG    1        7.785   0.868  -1.446  0.00  0.00    +0.149 C 
ATOM     61  C   LIG    1        8.286   2.004  -2.354  0.00  0.00    +0.041 C 
ATOM     62  O   LIG    1        6.742   1.408  -0.623  0.00  0.00    -0.343 OA
BRANCH  57  63
ATOM     63  O   LIG    1        7.570   0.804   2.152  0.00  0.00    -0.384 OA
ATOM     64  H   LIG    1        8.423   0.525   2.495  0.00  0.00    +0.210 HD
ENDBRANCH  57  63
BRANCH  58  65
ATOM     65  O   LIG    1        9.290  -1.335   1.268  0.00  0.00    -0.386 OA
ATOM     66  H   LIG    1        8.844  -1.766   2.001  0.00  0.00    +0.210 HD
ENDBRANCH  58  65
BRANCH  59  67
ATOM     67  O   LIG    1        9.900  -0.374  -1.403  0.00  0.00    -0.387 OA
ATOM     68  H   LIG    1       10.614  -0.675  -0.836  0.00  0.00    +0.210 HD
ENDBRANCH  59  67
ENDBRANCH  55  56
ENDBRANCH   4  55
BRANCH   5  69
ATOM     69  C   LIG    1        3.370   0.589  -2.419  0.00  0.00    +0.190 C 
BRANCH  69  70
ATOM     70  O   LIG    1        4.599   1.207  -2.734  0.00  0.00    -0.392 OA
ATOM     71  H   LIG    1        5.313   0.617  -2.478  0.00  0.00    +0.210 HD
ENDBRANCH  69  70
ENDBRANCH   5  69
TORSDOF 15
