REMARK  Name = DB12622
REMARK                            x       y       z     vdW  Elec       q    Type
REMARK                         _______ _______ _______ _____ _____    ______ ____
ROOT
ATOM      1  C   LIG    1       -1.408  -0.871  -3.673  0.00  0.00    -0.023 C 
ATOM      2  C   LIG    1       -0.545  -2.135  -4.039  0.00  0.00    +0.012 C 
ATOM      3  C   LIG    1       -2.741  -1.459  -3.056  0.00  0.00    +0.008 C 
ATOM      4  C   LIG    1       -2.580  -2.105  -1.654  0.00  0.00    +0.007 C 
ATOM      5  C   LIG    1       -1.940  -1.113  -0.652  0.00  0.00    -0.028 C 
ATOM      6  C   LIG    1       -2.892   0.095  -0.382  0.00  0.00    +0.011 C 
ATOM      7  C   LIG    1       -1.562  -1.724   0.710  0.00  0.00    +0.007 C 
ATOM      8  C   LIG    1       -0.351  -0.914   1.222  0.00  0.00    +0.008 C 
ATOM      9  C   LIG    1        0.185  -0.105   0.013  0.00  0.00    +0.018 C 
ATOM     10  C   LIG    1       -0.537  -0.749  -1.197  0.00  0.00    +0.006 C 
ATOM     11  C   LIG    1       -0.649  -0.009  -2.574  0.00  0.00    -0.000 C 
ATOM     12  C   LIG    1        0.680   0.554  -3.118  0.00  0.00    +0.005 C 
ATOM     13  C   LIG    1        0.465   1.417  -4.369  0.00  0.00    +0.005 C 
ATOM     14  C   LIG    1       -0.307   0.671  -5.500  0.00  0.00    +0.002 C 
ATOM     15  C   LIG    1       -0.331   1.426  -6.908  0.00  0.00    -0.025 C 
ATOM     16  C   LIG    1       -0.985   0.431  -7.954  0.00  0.00    +0.003 C 
ATOM     17  C   LIG    1       -0.901   0.850  -9.483  0.00  0.00    -0.006 C 
ATOM     18  C   LIG    1       -1.742   2.113  -9.815  0.00  0.00    +0.014 C 
ATOM     19  C   LIG    1       -1.361  -0.350 -10.361  0.00  0.00    +0.014 C 
ATOM     20  C   LIG    1        0.609   1.109  -9.827  0.00  0.00    +0.120 C 
ATOM     21  C   LIG    1        1.306   2.079  -8.852  0.00  0.00    +0.032 C 
ATOM     22  C   LIG    1       -2.393  -0.022  -7.475  0.00  0.00    +0.005 C 
ATOM     23  C   LIG    1       -2.319  -0.761  -6.127  0.00  0.00    +0.008 C 
ATOM     24  C   LIG    1       -1.054   2.808  -6.827  0.00  0.00    +0.012 C 
ATOM     25  C   LIG    1        1.144   1.650  -7.382  0.00  0.00    +0.010 C 
ATOM     26  C   LIG    1       -1.685   0.070  -4.965  0.00  0.00    -0.023 C 
ATOM     27  C   LIG    1       -2.696   1.219  -4.623  0.00  0.00    +0.012 C 
ENDROOT
BRANCH   9  28
ATOM     28  C   LIG    1        1.719  -0.050   0.014  0.00  0.00    -0.076 C 
ATOM     29  C   LIG    1        2.311   0.997   0.944  0.00  0.00    +0.039 C 
ATOM     30  C   LIG    1        2.515  -0.847  -0.726  0.00  0.00    +0.007 C 
ENDBRANCH   9  28
BRANCH  20  31
ATOM     31  O   LIG    1        0.822   1.553 -11.157  0.00  0.00    -0.391 OA
ATOM     32  H   LIG    1        0.529   0.865 -11.758  0.00  0.00    +0.210 HD
ENDBRANCH  20  31
TORSDOF 2
