REMARK  Name = DB12486
REMARK                            x       y       z     vdW  Elec       q    Type
REMARK                         _______ _______ _______ _____ _____    ______ ____
ROOT
ATOM      1  C   UNK A  0       -5.690  -1.973   0.271  0.00  0.00    +0.007 C 
ATOM      2  C   UNK A  0       -4.801  -2.560  -0.861  0.00  0.00    +0.180 C 
ATOM      3  S   UNK A  0       -2.983  -2.890  -0.419  0.00  0.00    -0.001 S 
ATOM      4  O   UNK A  0       -2.889  -3.661   0.824  0.00  0.00    -0.169 OA
ATOM      5  O   UNK A  0       -2.345  -3.432  -1.625  0.00  0.00    -0.169 OA
ATOM      6  C   UNK A  0       -2.133  -1.330  -0.091  0.00  0.00    +0.113 A 
ATOM      7  C   UNK A  0       -0.737  -1.429  -0.101  0.00  0.00    +0.075 A 
ATOM      8  C   UNK A  0        0.080  -0.299   0.036  0.00  0.00    +0.136 A 
ATOM      9  C   UNK A  0       -0.532   0.946   0.210  0.00  0.00    +0.051 A 
ATOM     10  C   UNK A  0       -1.922   1.047   0.231  0.00  0.00    +0.043 A 
ATOM     11  C   UNK A  0       -2.757  -0.075   0.095  0.00  0.00    +0.060 A 
ATOM     12  N   UNK A  0       -4.156   0.095   0.182  0.00  0.00    -0.298 N 
ATOM     13  C   UNK A  0       -4.895  -0.866   1.023  0.00  0.00    +0.119 C 
ENDROOT
BRANCH  12  14
ATOM     14  C   UNK A  0       -4.833   1.214  -0.365  0.00  0.00    +0.034 A 
ATOM     15  C   UNK A  0       -4.372   1.787  -1.562  0.00  0.00    +0.023 A 
ATOM     16  C   UNK A  0       -5.009   2.886  -2.130  0.00  0.00    +0.002 A 
ATOM     17  C   UNK A  0       -6.120   3.438  -1.502  0.00  0.00    +0.000 A 
ATOM     18  C   UNK A  0       -6.592   2.899  -0.310  0.00  0.00    +0.002 A 
ATOM     19  C   UNK A  0       -5.953   1.799   0.255  0.00  0.00    +0.023 A 
ENDBRANCH  12  14
BRANCH   9  20
ATOM     20  S   UNK A  0        0.420   2.433   0.386  0.00  0.00    -0.125 S 
ATOM     21  C   UNK A  0        1.597   2.158   1.740  0.00  0.00    +0.090 C 
ENDBRANCH   9  20
BRANCH   1  22
ATOM     22  C   UNK A  0       -6.087  -3.095   1.285  0.00  0.00    +0.010 C 
BRANCH  22  23
ATOM     23  C   UNK A  0       -7.060  -2.696   2.420  0.00  0.00    +0.000 C 
BRANCH  23  25
ATOM     24  C   UNK A  0       -8.352  -3.476   4.490  0.00  0.00    +0.004 C 
ATOM     25  C   UNK A  0       -7.368  -3.861   3.377  0.00  0.00    -0.003 C 
ENDBRANCH  23  25
ENDBRANCH  22  23
ENDBRANCH   1  22
BRANCH   1  26
ATOM     26  C   UNK A  0       -6.971  -1.350  -0.379  0.00  0.00    +0.010 C 
BRANCH  26  27
ATOM     27  C   UNK A  0       -7.941  -2.328  -1.081  0.00  0.00    +0.000 C 
BRANCH  27  28
ATOM     28  C   UNK A  0       -9.126  -1.610  -1.751  0.00  0.00    -0.003 C 
ATOM     29  C   UNK A  0      -10.090  -2.576  -2.452  0.00  0.00    +0.004 C 
ENDBRANCH  27  28
ENDBRANCH  26  27
ENDBRANCH   1  26
BRANCH   8  30
ATOM     30  O   UNK A  0        1.459  -0.346  -0.001  0.00  0.00    -0.482 OA
BRANCH  30  31
ATOM     31  C   UNK A  0        2.131  -1.550  -0.376  0.00  0.00    +0.324 C 
BRANCH  31  32
ATOM     32  C   UNK A  0        3.628  -1.270  -0.582  0.00  0.00    +0.251 C 
ATOM     33  N   UNK A  1        4.051   0.005  -0.487  0.00  0.00    -0.298 N 
ATOM     34  H   UNK A  1        3.368   0.730  -0.314  0.00  0.00    +0.150 HD
ATOM     35  O   UNK A  0        4.388  -2.207  -0.827  0.00  0.00    -0.272 OA
BRANCH  33  36
ATOM     36  C   UNK A  1        5.434   0.476  -0.639  0.00  0.00    +0.190 C 
BRANCH  36  37
ATOM     37  C   UNK A  1        6.303   0.131   0.561  0.00  0.00    -0.018 A 
ATOM     38  C   UNK A  1        5.776   0.001   1.856  0.00  0.00    +0.006 A 
ATOM     39  C   UNK A  1        6.607  -0.323   2.925  0.00  0.00    +0.000 A 
ATOM     40  C   UNK A  1        7.968  -0.518   2.706  0.00  0.00    +0.000 A 
ATOM     41  C   UNK A  1        8.505  -0.391   1.428  0.00  0.00    +0.000 A 
ATOM     42  C   UNK A  1        7.674  -0.068   0.360  0.00  0.00    +0.006 A 
ENDBRANCH  36  37
BRANCH  36  43
ATOM     43  C   UNK A  1        5.412   2.002  -0.858  0.00  0.00    +0.238 C 
ATOM     44  N   GLY A  2        6.109   2.456  -1.915  0.00  0.00    -0.303 N 
ATOM     45  H   GLY A  2        6.560   1.788  -2.523  0.00  0.00    +0.149 HD
ATOM     46  O   UNK A  1        4.821   2.731  -0.057  0.00  0.00    -0.273 OA
BRANCH  44  47
ATOM     47  CA  GLY A  2        6.281   3.874  -2.265  0.00  0.00    +0.224 C 
BRANCH  47  48
ATOM     48  C   GLY A  2        7.442   4.590  -1.522  0.00  0.00    +0.322 C 
ATOM     49  O   GLY A  2        8.281   3.927  -0.866  0.00  0.00    -0.249 OA
BRANCH  48  50
ATOM     50  OXT GLY A  2        7.487   5.833  -1.653  0.00  0.00    -0.480 OA
ATOM     51  HXT GLY A  2        6.832   6.276  -2.155  0.00  0.00    +0.295 HD
ENDBRANCH  48  50
ENDBRANCH  47  48
ENDBRANCH  44  47
ENDBRANCH  36  43
ENDBRANCH  33  36
ENDBRANCH  31  32
ENDBRANCH  30  31
ENDBRANCH   8  30
TORSDOF 17
