REMARK  Name = DB12026
REMARK                            x       y       z     vdW  Elec       q    Type
REMARK                         _______ _______ _______ _____ _____    ______ ____
ROOT
ATOM      1  C   LIG    1       -0.263  -0.681  -1.051  0.00  0.00    +0.060 C 
ATOM      2  C   LIG    1        0.476   0.124   0.068  0.00  0.00    +0.169 C 
ATOM      3  N   LIG    1       -0.284   1.380   0.233  0.00  0.00    -0.284 N 
ATOM      4  C   LIG    1       -0.260   2.124   1.374  0.00  0.00    +0.237 C 
ATOM      5  C   LIG    1       -0.999   3.500   1.427  0.00  0.00    +0.168 C 
ATOM      6  N   LIG    1       -1.903   3.547   2.592  0.00  0.00    -0.269 N 
ATOM      7  H   LIG    1       -1.562   3.938   3.458  0.00  0.00    +0.153 HD
ATOM      8  C   LIG    1       -3.166   2.967   2.550  0.00  0.00    +0.401 C 
ATOM      9  O   LIG    1       -3.755   3.112   3.754  0.00  0.00    -0.447 OA
ATOM     10  C   LIG    1       -4.837   2.266   4.116  0.00  0.00    +0.182 C 
ATOM     11  C   LIG    1       -4.467   1.027   4.893  0.00  0.00    +0.033 C 
ATOM     12  C   LIG    1       -5.251  -0.288   4.737  0.00  0.00    +0.007 C 
ATOM     13  C   LIG    1       -5.344  -0.737   3.264  0.00  0.00    +0.001 C 
ATOM     14  C   LIG    1       -5.486  -2.262   3.108  0.00  0.00    +0.006 C 
ATOM     15  C   LIG    1       -5.678  -2.773   1.663  0.00  0.00    +0.082 C 
ATOM     16  C   LIG    1       -4.639  -2.294   0.604  0.00  0.00    +0.295 C 
ATOM     17  F   LIG    1       -4.631  -3.160  -0.410  0.00  0.00    -0.198 F 
ATOM     18  F   LIG    1       -3.416  -2.320   1.138  0.00  0.00    -0.198 F 
ATOM     19  C   LIG    1       -4.924  -0.925  -0.051  0.00  0.00    +0.171 A 
ATOM     20  N   LIG    1       -6.234  -0.555  -0.127  0.00  0.00    -0.239 NA
ATOM     21  C   LIG    1       -6.544   0.605  -0.766  0.00  0.00    +0.090 A 
ATOM     22  C   LIG    1       -7.889   1.030  -0.844  0.00  0.00    +0.033 A 
ATOM     23  C   LIG    1       -8.203   2.215  -1.506  0.00  0.00    +0.048 A 
ATOM     24  C   LIG    1       -7.218   3.002  -2.103  0.00  0.00    +0.122 A 
ATOM     25  C   LIG    1       -5.876   2.594  -2.034  0.00  0.00    +0.075 A 
ATOM     26  C   LIG    1       -5.526   1.397  -1.367  0.00  0.00    +0.096 A 
ATOM     27  N   LIG    1       -4.223   1.014  -1.302  0.00  0.00    -0.210 NA
ATOM     28  C   LIG    1       -3.917  -0.128  -0.623  0.00  0.00    +0.244 A 
ATOM     29  O   LIG    1       -2.587  -0.498  -0.514  0.00  0.00    -0.470 OA
ATOM     30  C   LIG    1       -5.195   2.174   5.577  0.00  0.00    +0.052 C 
ATOM     31  O   LIG    1       -3.664   2.368   1.593  0.00  0.00    -0.226 OA
ATOM     32  O   LIG    1        0.416   1.803   2.355  0.00  0.00    -0.274 OA
ATOM     33  C   LIG    1       -1.242   1.546  -0.858  0.00  0.00    +0.153 C 
ATOM     34  C   LIG    1       -1.556   0.112  -1.308  0.00  0.00    +0.198 C 
ENDROOT
BRANCH   2  35
ATOM     35  C   LIG    1        1.979   0.411  -0.173  0.00  0.00    +0.235 C 
ATOM     36  N   LIG    1        2.843  -0.292   0.582  0.00  0.00    -0.299 N 
ATOM     37  H   LIG    1        2.474  -1.044   1.145  0.00  0.00    +0.150 HD
ATOM     38  O   LIG    1        2.331   1.247  -1.008  0.00  0.00    -0.274 OA
BRANCH  36  39
ATOM     39  C   LIG    1        4.302  -0.191   0.515  0.00  0.00    +0.121 C 
ATOM     40  C   LIG    1        4.952   1.177   0.730  0.00  0.00    +0.090 C 
ATOM     41  C   LIG    1        5.048   0.128   1.808  0.00  0.00    +0.047 C 
BRANCH  39  42
ATOM     42  C   LIG    1        4.997  -1.264  -0.343  0.00  0.00    +0.256 C 
ATOM     43  N   LIG    1        4.928  -2.568   0.200  0.00  0.00    -0.188 N 
ATOM     44  H   LIG    1        4.386  -2.722   1.054  0.00  0.00    +0.176 HD
ATOM     45  O   LIG    1        5.572  -0.991  -1.396  0.00  0.00    -0.272 OA
BRANCH  43  46
ATOM     46  S   LIG    1        5.672  -4.015  -0.479  0.00  0.00    +0.051 S 
ATOM     47  O   LIG    1        5.628  -3.913  -1.943  0.00  0.00    -0.155 OA
ATOM     48  O   LIG    1        5.056  -5.164   0.193  0.00  0.00    -0.155 OA
BRANCH  46  49
ATOM     49  C   LIG    1        7.491  -3.889   0.076  0.00  0.00    +0.104 C 
ATOM     50  C   LIG    1        8.284  -2.687  -0.460  0.00  0.00    +0.037 C 
ATOM     51  C   LIG    1        8.181  -5.222   0.248  0.00  0.00    +0.033 C 
ATOM     52  C   LIG    1        7.767  -4.416   1.465  0.00  0.00    +0.033 C 
ENDBRANCH  46  49
ENDBRANCH  43  46
ENDBRANCH  39  42
BRANCH  40  53
ATOM     53  C   LIG    1        6.269   1.632   0.070  0.00  0.00    +0.347 C 
ATOM     54  F   LIG    1        6.078   2.096  -1.164  0.00  0.00    -0.209 F 
ATOM     55  F   LIG    1        6.890   2.568   0.786  0.00  0.00    -0.209 F 
ENDBRANCH  40  53
ENDBRANCH  36  39
ENDBRANCH   2  35
BRANCH   5  56
ATOM     56  C   LIG    1       -0.062   4.766   1.348  0.00  0.00    -0.011 C 
ATOM     57  C   LIG    1       -0.916   6.060   1.269  0.00  0.00    +0.013 C 
ATOM     58  C   LIG    1        0.870   4.894   2.583  0.00  0.00    +0.013 C 
ATOM     59  C   LIG    1        0.823   4.719   0.073  0.00  0.00    +0.013 C 
ENDBRANCH   5  56
BRANCH   1  61
ATOM     60  C   LIG    1       -0.203  -1.992  -3.296  0.00  0.00    +0.004 C 
ATOM     61  C   LIG    1        0.517  -1.009  -2.357  0.00  0.00    +0.006 C 
ENDBRANCH   1  61
BRANCH  24  62
ATOM     62  O   LIG    1       -7.649   4.154  -2.733  0.00  0.00    -0.495 OA
ATOM     63  C   LIG    1       -6.694   4.999  -3.365  0.00  0.00    +0.277 C 
ENDBRANCH  24  62
TORSDOF 9
