REMARK  Name = DB12302
REMARK                            x       y       z     vdW  Elec       q    Type
REMARK                         _______ _______ _______ _____ _____    ______ ____
ROOT
ATOM      1  C   LIG    1        1.726  -0.055   0.045  0.00  0.00    +0.134 A 
ATOM      2  N   LIG    1        2.518   0.956  -0.396  0.00  0.00    -0.220 NA
ATOM      3  C   LIG    1        3.826   0.669  -0.583  0.00  0.00    +0.223 A 
ATOM      4  N   LIG    1        4.432  -0.525  -0.382  0.00  0.00    -0.235 NA
ATOM      5  C   LIG    1        3.640  -1.545   0.055  0.00  0.00    +0.076 A 
ATOM      6  C   LIG    1        4.223  -2.813   0.277  0.00  0.00    +0.029 A 
ATOM      7  C   LIG    1        3.440  -3.875   0.721  0.00  0.00    +0.010 A 
ATOM      8  C   LIG    1        2.073  -3.723   0.957  0.00  0.00    -0.024 A 
ATOM      9  C   LIG    1        1.475  -2.475   0.744  0.00  0.00    +0.021 A 
ATOM     10  C   LIG    1        2.242  -1.366   0.290  0.00  0.00    +0.041 A 
ENDROOT
BRANCH   1  11
ATOM     11  N   LIG    1        0.353   0.205   0.229  0.00  0.00    -0.299 N 
ATOM     12  H   LIG    1       -0.186  -0.621   0.446  0.00  0.00    +0.154 HD
BRANCH  11  17
ATOM     13  C   LIG    1       -2.068   3.649   0.072  0.00  0.00    +0.132 A 
ATOM     14  C   LIG    1       -2.610   2.378  -0.160  0.00  0.00    -0.006 A 
ATOM     15  C   LIG    1       -4.087   2.214  -0.478  0.00  0.00    +0.047 C 
ATOM     16  C   LIG    1       -1.780   1.253  -0.100  0.00  0.00    +0.030 A 
ATOM     17  C   LIG    1       -0.416   1.381   0.176  0.00  0.00    +0.033 A 
ATOM     18  C   LIG    1        0.112   2.655   0.419  0.00  0.00    +0.027 A 
ATOM     19  C   LIG    1       -0.709   3.781   0.361  0.00  0.00    +0.048 A 
BRANCH  13  20
ATOM     20  O   LIG    1       -2.859   4.773   0.007  0.00  0.00    -0.454 OA
BRANCH  20  25
ATOM     21  C   LIG    1       -5.397   7.250   4.410  0.00  0.00    +0.065 C 
ATOM     22  C   LIG    1       -4.682   6.528   3.284  0.00  0.00    +0.038 A 
ATOM     23  N   LIG    1       -4.803   7.088   2.053  0.00  0.00    -0.257 NA
ATOM     24  C   LIG    1       -4.183   6.474   1.013  0.00  0.00    +0.157 A 
ATOM     25  C   LIG    1       -3.432   5.303   1.146  0.00  0.00    +0.146 A 
ATOM     26  C   LIG    1       -3.325   4.742   2.431  0.00  0.00    +0.049 A 
ATOM     27  C   LIG    1       -3.955   5.358   3.514  0.00  0.00    +0.026 A 
ENDBRANCH  20  25
ENDBRANCH  13  20
ENDBRANCH  11  17
ENDBRANCH   1  11
BRANCH   8  28
ATOM     28  C   LIG    1        1.306  -4.890   1.439  0.00  0.00    +0.005 C 
ATOM     29  C   LIG    1        0.084  -4.871   2.006  0.00  0.00    -0.008 C 
BRANCH  29  30
ATOM     30  C   LIG    1       -0.665  -6.109   2.467  0.00  0.00    +0.131 C 
BRANCH  30  31
ATOM     31  N   LIG    1       -1.959  -6.287   1.813  0.00  0.00    -0.310 N 
ATOM     32  H   LIG    1       -2.771  -6.009   2.345  0.00  0.00    +0.149 HD
ATOM     33  C   LIG    1       -2.132  -6.711   0.549  0.00  0.00    +0.239 C 
ATOM     34  O   LIG    1       -1.199  -7.017  -0.196  0.00  0.00    -0.273 OA
BRANCH  33  35
ATOM     35  C   LIG    1       -3.591  -6.798   0.065  0.00  0.00    +0.255 C 
BRANCH  35  36
ATOM     36  O   LIG    1       -3.703  -7.557  -1.141  0.00  0.00    -0.374 OA
ATOM     37  C   LIG    1       -3.654  -8.971  -0.980  0.00  0.00    +0.194 C 
ENDBRANCH  35  36
ENDBRANCH  33  35
ENDBRANCH  30  31
ENDBRANCH  29  30
ENDBRANCH   8  28
TORSDOF 9
