REMARK  Name = DB12712
REMARK                            x       y       z     vdW  Elec       q    Type
REMARK                         _______ _______ _______ _____ _____    ______ ____
ROOT
ATOM      1  N   LIG    1        1.361   0.106  -0.107  0.00  0.00    -0.285 N 
ATOM      2  H   LIG    1        1.750   0.525  -0.939  0.00  0.00    +0.155 HD
ATOM      3  C   LIG    1        2.206  -0.174   0.907  0.00  0.00    +0.219 C 
ATOM      4  O   LIG    1        1.845  -0.538   2.027  0.00  0.00    -0.275 OA
ENDROOT
BRANCH   1   5
ATOM      5  C   LIG    1       -0.043   0.033  -0.053  0.00  0.00    +0.039 A 
ATOM      6  C   LIG    1       -0.775   1.206  -0.327  0.00  0.00    -0.029 A 
ATOM      7  C   LIG    1       -0.083   2.527  -0.648  0.00  0.00    +0.045 C 
ATOM      8  C   LIG    1       -2.172   1.175  -0.289  0.00  0.00    +0.005 A 
ATOM      9  C   LIG    1       -2.845  -0.007   0.003  0.00  0.00    +0.001 A 
ATOM     10  C   LIG    1       -2.128  -1.174   0.249  0.00  0.00    +0.005 A 
ATOM     11  C   LIG    1       -0.730  -1.174   0.219  0.00  0.00    -0.029 A 
ATOM     12  C   LIG    1       -0.015  -2.506   0.420  0.00  0.00    +0.045 C 
ENDBRANCH   1   5
BRANCH   3  13
ATOM     13  C   LIG    1        3.704   0.015   0.611  0.00  0.00    +0.118 C 
BRANCH  13  14
ATOM     14  C   LIG    1        4.375   1.216   1.347  0.00  0.00    +0.030 C 
ATOM     15  C   LIG    1        3.699   2.568   0.985  0.00  0.00    +0.024 C 
ATOM     16  C   LIG    1        4.845   3.550   0.824  0.00  0.00    +0.017 C 
ATOM     17  C   LIG    1        5.935   2.650   0.257  0.00  0.00    +0.085 C 
ATOM     18  N   LIG    1        5.781   1.348   0.912  0.00  0.00    -0.296 NA
ATOM     19  C   LIG    1        6.641   1.148   2.081  0.00  0.00    +0.085 C 
ATOM     20  C   LIG    1        5.803   1.507   3.301  0.00  0.00    +0.017 C 
ATOM     21  C   LIG    1        4.434   0.998   2.885  0.00  0.00    +0.024 C 
ENDBRANCH  13  14
ENDBRANCH   3  13
TORSDOF 3
