REMARK  Name = DB12853
REMARK                            x       y       z     vdW  Elec       q    Type
REMARK                         _______ _______ _______ _____ _____    ______ ____
ROOT
ATOM      1  C   LIG    1       -0.982   0.930  -0.275  0.00  0.00    +0.248 C 
ATOM      2  N   LIG    1       -0.153  -0.055   0.127  0.00  0.00    -0.311 N 
ATOM      3  H   LIG    1       -0.559  -0.890   0.522  0.00  0.00    +0.149 HD
ATOM      4  O   LIG    1       -0.571   1.997  -0.734  0.00  0.00    -0.270 OA
ENDROOT
BRANCH   1   6
ATOM      5  C   LIG    1       -3.394   1.701   0.087  0.00  0.00    +0.134 A 
ATOM      6  C   LIG    1       -2.467   0.654  -0.123  0.00  0.00    +0.080 A 
ATOM      7  C   LIG    1       -2.940  -0.666  -0.210  0.00  0.00    +0.038 A 
ATOM      8  C   LIG    1       -4.295  -0.964  -0.087  0.00  0.00    +0.062 A 
ATOM      9 CL   LIG    1       -4.798  -2.617  -0.208  0.00  0.00    -0.082 Cl
ATOM     10  C   LIG    1       -5.212   0.069   0.126  0.00  0.00    +0.047 A 
ATOM     11  C   LIG    1       -4.760   1.385   0.209  0.00  0.00    +0.070 A 
BRANCH  10  12
ATOM     12  N   LIG    1       -6.578  -0.187   0.258  0.00  0.00    -0.357 N 
ATOM     13  H   LIG    1       -7.217   0.595   0.265  0.00  0.00    +0.142 HD
ATOM     14  H   LIG    1       -6.912  -1.116   0.045  0.00  0.00    +0.142 HD
ENDBRANCH  10  12
BRANCH   5  16
ATOM     15  C   LIG    1       -3.834   4.082   0.352  0.00  0.00    +0.277 C 
ATOM     16  O   LIG    1       -2.923   3.001   0.184  0.00  0.00    -0.494 OA
ENDBRANCH   5  16
ENDBRANCH   1   6
BRANCH   2  17
ATOM     17  C   LIG    1        1.309  -0.011   0.069  0.00  0.00    +0.108 C 
BRANCH  17  18
ATOM     18  C   LIG    1        1.900  -0.085  -1.362  0.00  0.00    +0.003 C 
ATOM     19  C   LIG    1        3.431   0.095  -1.346  0.00  0.00    -0.014 C 
ATOM     20  C   LIG    1        4.003   0.141  -2.775  0.00  0.00    -0.079 C 
ATOM     21  N   LIG    1        3.633  -1.174  -3.509  0.00  0.00    +0.380 N 
ATOM     22  H   LIG    1        4.053  -1.942  -3.005  0.00  0.00    -0.082 HD
ATOM     23  C   LIG    1        2.102  -1.419  -3.517  0.00  0.00    -0.079 C 
ATOM     24  C   LIG    1        1.586  -1.423  -2.066  0.00  0.00    -0.014 C 
BRANCH  21  25
ATOM     25  C   LIG    1        4.164  -1.188  -4.964  0.00  0.00    -0.077 C 
BRANCH  25  26
ATOM     26  C   LIG    1        5.704  -1.292  -5.003  0.00  0.00    +0.005 C 
BRANCH  26  27
ATOM     27  C   LIG    1        6.283  -1.510  -6.417  0.00  0.00    +0.143 C 
BRANCH  27  28
ATOM     28  N   LIG    1        5.969  -0.398  -7.307  0.00  0.00    -0.252 N 
ATOM     29  N   LIG    1        4.888  -0.439  -8.097  0.00  0.00    -0.066 NA
ATOM     30  N   LIG    1        4.846   0.767  -8.774  0.00  0.00    -0.138 NA
ATOM     31  C   LIG    1        5.872   1.496  -8.373  0.00  0.00    +0.156 A 
ATOM     32  C   LIG    1        6.616   0.805  -7.428  0.00  0.00    +0.130 A 
ENDBRANCH  27  28
ENDBRANCH  26  27
ENDBRANCH  25  26
ENDBRANCH  21  25
ENDBRANCH  17  18
ENDBRANCH   2  17
TORSDOF 9
