REMARK  Name = DB12594
REMARK                            x       y       z     vdW  Elec       q    Type
REMARK                         _______ _______ _______ _____ _____    ______ ____
ROOT
ATOM      1  C   LIG    1       -1.075   2.418  -2.455  0.00  0.00    +0.005 A 
ATOM      2  C   LIG    1       -0.136   2.367  -1.423  0.00  0.00    -0.047 A 
ATOM      3  C   LIG    1        1.074   3.048  -1.566  0.00  0.00    +0.018 A 
ATOM      4  C   LIG    1        1.372   3.760  -2.736  0.00  0.00    +0.055 A 
ATOM      5  C   LIG    1        0.419   3.801  -3.772  0.00  0.00    +0.053 A 
ATOM      6 CL   LIG    1        0.705   4.631  -5.267  0.00  0.00    -0.083 Cl
ATOM      7  C   LIG    1       -0.800   3.136  -3.618  0.00  0.00    +0.021 A 
ENDROOT
BRANCH   4   8
ATOM      8  C   LIG    1        2.732   4.389  -2.874  0.00  0.00    +0.246 C 
ATOM      9  N   LIG    1        3.754   3.529  -2.719  0.00  0.00    -0.311 N 
ATOM     10  H   LIG    1        3.537   2.545  -2.661  0.00  0.00    +0.149 HD
ATOM     11  O   LIG    1        2.859   5.592  -3.102  0.00  0.00    -0.270 OA
BRANCH   9  12
ATOM     12  C   LIG    1        5.178   3.869  -2.678  0.00  0.00    +0.111 C 
BRANCH  12  13
ATOM     13  C   LIG    1        5.872   3.461  -1.350  0.00  0.00    -0.013 C 
ATOM     14  C   LIG    1        5.246   4.197  -0.125  0.00  0.00    +0.012 C 
ATOM     15  C   LIG    1        5.942   3.815   1.208  0.00  0.00    -0.010 C 
ATOM     16  C   LIG    1        5.824   2.278   1.396  0.00  0.00    +0.007 C 
ATOM     17  C   LIG    1        6.469   1.497   0.221  0.00  0.00    -0.010 C 
ATOM     18  C   LIG    1        7.961   1.910   0.124  0.00  0.00    +0.007 C 
ATOM     19  C   LIG    1        8.129   3.437  -0.095  0.00  0.00    -0.010 C 
ATOM     20  C   LIG    1        7.447   4.173   1.088  0.00  0.00    +0.007 C 
ATOM     21  C   LIG    1        5.761   1.925  -1.092  0.00  0.00    +0.012 C 
ATOM     22  C   LIG    1        7.385   3.825  -1.401  0.00  0.00    +0.012 C 
ENDBRANCH  12  13
ENDBRANCH   9  12
ENDBRANCH   4   8
BRANCH   2  23
ATOM     23  C   LIG    1       -0.421   1.573  -0.153  0.00  0.00    +0.033 C 
BRANCH  23  24
ATOM     24  C   LIG    1        0.244   0.180  -0.118  0.00  0.00    -0.014 C 
BRANCH  24  25
ATOM     25  C   LIG    1        1.782   0.224  -0.074  0.00  0.00    -0.082 C 
BRANCH  25  26
ATOM     26  N   LIG    1        2.343  -1.200   0.058  0.00  0.00    +0.379 N 
ATOM     27  H   LIG    1        2.036  -1.747  -0.735  0.00  0.00    -0.086 HD
ATOM     28  H   LIG    1        1.969  -1.623   0.895  0.00  0.00    -0.086 HD
BRANCH  26  29
ATOM     29  C   LIG    1        3.877  -1.233   0.122  0.00  0.00    -0.080 C 
BRANCH  29  30
ATOM     30  C   LIG    1        4.360  -2.688   0.239  0.00  0.00    +0.009 C 
BRANCH  30  31
ATOM     31  C   LIG    1        5.890  -2.827   0.337  0.00  0.00    +0.154 C 
BRANCH  31  32
ATOM     32  O   LIG    1        6.526  -2.292  -0.806  0.00  0.00    -0.395 OA
ATOM     33  H   LIG    1        6.470  -1.334  -0.771  0.00  0.00    +0.209 HD
ENDBRANCH  31  32
ENDBRANCH  30  31
ENDBRANCH  29  30
ENDBRANCH  26  29
ENDBRANCH  25  26
ENDBRANCH  24  25
ENDBRANCH  23  24
ENDBRANCH   2  23
TORSDOF 11
