REMARK  Name = DB12517
REMARK                            x       y       z     vdW  Elec       q    Type
REMARK                         _______ _______ _______ _____ _____    ______ ____
ROOT
ATOM      1  C   LIG    1        1.341  -3.559  -3.016  0.00  0.00    +0.012 C 
ATOM      2  C   LIG    1        0.507  -3.018  -1.833  0.00  0.00    +0.040 C 
ATOM      3  C   LIG    1       -1.050  -3.169  -2.017  0.00  0.00    +0.099 C 
ATOM      4  C   LIG    1       -1.812  -2.741  -0.708  0.00  0.00    +0.040 C 
ATOM      5  C   LIG    1       -3.334  -3.006  -0.748  0.00  0.00    +0.012 C 
ATOM      6  C   LIG    1       -1.187  -3.369   0.569  0.00  0.00    +0.114 C 
ATOM      7  N   LIG    1        0.239  -3.003   0.595  0.00  0.00    -0.301 N 
ATOM      8  C   LIG    1        0.634  -1.850   1.209  0.00  0.00    +0.217 C 
ATOM      9  O   LIG    1       -0.153  -1.156   1.859  0.00  0.00    -0.275 OA
ATOM     10  C   LIG    1        1.002  -3.632  -0.497  0.00  0.00    +0.114 C 
ENDROOT
BRANCH   3  11
ATOM     11  C   LIG    1       -1.541  -2.335  -3.231  0.00  0.00    -0.016 A 
ATOM     12  C   LIG    1       -2.190  -2.926  -4.328  0.00  0.00    +0.006 A 
ATOM     13  C   LIG    1       -2.620  -2.150  -5.400  0.00  0.00    +0.000 A 
ATOM     14  C   LIG    1       -2.406  -0.775  -5.388  0.00  0.00    +0.000 A 
ATOM     15  C   LIG    1       -1.766  -0.170  -4.311  0.00  0.00    +0.000 A 
ATOM     16  C   LIG    1       -1.338  -0.946  -3.239  0.00  0.00    +0.006 A 
ENDBRANCH   3  11
BRANCH   8  17
ATOM     17  C   LIG    1        2.146  -1.462   1.223  0.00  0.00    +0.064 C 
ATOM     18  C   LIG    1        2.434  -0.357   0.165  0.00  0.00    +0.015 C 
ATOM     19  C   LIG    1        2.776   0.926   0.946  0.00  0.00    -0.069 C 
ATOM     20  N   LIG    1        2.308   0.675   2.395  0.00  0.00    +0.384 N 
ATOM     21  H   LIG    1        1.305   0.804   2.406  0.00  0.00    -0.081 HD
ATOM     22  C   LIG    1        2.555  -0.837   2.572  0.00  0.00    -0.065 C 
BRANCH  18  23
ATOM     23  C   LIG    1        3.466  -0.713  -0.911  0.00  0.00    -0.010 A 
ATOM     24  C   LIG    1        3.217  -0.447  -2.267  0.00  0.00    +0.129 A 
ATOM     25  F   LIG    1        2.060   0.136  -2.657  0.00  0.00    -0.205 F 
ATOM     26  C   LIG    1        4.164  -0.783  -3.235  0.00  0.00    +0.077 A 
ATOM     27  C   LIG    1        5.368  -1.377  -2.862  0.00  0.00    +0.126 A 
ATOM     28  F   LIG    1        6.282  -1.702  -3.804  0.00  0.00    -0.205 F 
ATOM     29  C   LIG    1        5.630  -1.632  -1.518  0.00  0.00    +0.039 A 
ATOM     30  C   LIG    1        4.686  -1.299  -0.547  0.00  0.00    +0.009 A 
ENDBRANCH  18  23
BRANCH  20  31
ATOM     31  C   LIG    1        2.833   1.636   3.508  0.00  0.00    -0.074 C 
ATOM     32  C   LIG    1        2.464   3.081   3.100  0.00  0.00    -0.010 C 
ATOM     33  C   LIG    1        2.097   1.277   4.819  0.00  0.00    -0.010 C 
ATOM     34  C   LIG    1        4.366   1.504   3.699  0.00  0.00    -0.010 C 
ENDBRANCH  20  31
ENDBRANCH   8  17
BRANCH   3  35
ATOM     35  O   LIG    1       -1.307  -4.558  -2.213  0.00  0.00    -0.383 OA
ATOM     36  H   LIG    1       -0.999  -5.037  -1.441  0.00  0.00    +0.211 HD
ENDBRANCH   3  35
TORSDOF 5
