REMARK  Name = DB12418
REMARK                            x       y       z     vdW  Elec       q    Type
REMARK                         _______ _______ _______ _____ _____    ______ ____
ROOT
ATOM      1  C   LIG    1        2.354   0.008  -0.021  0.00  0.00    +0.121 A 
ATOM      2  S   LIG    1        3.664  -1.182  -0.041  0.00  0.00    +0.075 S 
ATOM      3  O   LIG    1        4.436  -1.034   1.198  0.00  0.00    -0.150 OA
ATOM      4  O   LIG    1        4.411  -1.020  -1.293  0.00  0.00    -0.150 OA
ATOM      5  N   LIG    1        2.700  -2.421  -0.038  0.00  0.00    -0.181 N 
ATOM      6  H   LIG    1        3.053  -3.340  -0.047  0.00  0.00    +0.177 HD
ATOM      7  C   LIG    1        1.407  -2.192  -0.024  0.00  0.00    +0.265 C 
ATOM      8  O   LIG    1        0.518  -3.043  -0.020  0.00  0.00    -0.269 OA
ATOM      9  C   LIG    1        1.182  -0.711  -0.013  0.00  0.00    +0.065 A 
ATOM     10  C   LIG    1       -0.034  -0.022   0.003  0.00  0.00    +0.015 A 
ATOM     11  C   LIG    1       -0.030   1.378   0.011  0.00  0.00    +0.001 A 
ATOM     12  C   LIG    1        1.181   2.082   0.003  0.00  0.00    +0.002 A 
ATOM     13  C   LIG    1        2.402   1.400  -0.013  0.00  0.00    +0.029 A 
ENDROOT
TORSDOF 0
