REMARK  Name = DB12383
REMARK                            x       y       z     vdW  Elec       q    Type
REMARK                         _______ _______ _______ _____ _____    ______ ____
ROOT
ATOM      1  C   LIG    1       -0.412   1.025  -0.084  0.00  0.00    +0.116 A 
ATOM      2  N   LIG    1        0.202  -0.199  -0.211  0.00  0.00    -0.271 N 
ATOM      3  C   LIG    1       -0.534  -1.368  -0.058  0.00  0.00    +0.352 A 
ATOM      4  O   LIG    1        0.028  -2.463  -0.120  0.00  0.00    -0.244 OA
ATOM      5  N   LIG    1       -1.920  -1.206   0.162  0.00  0.00    -0.177 NA
ATOM      6  C   LIG    1       -2.487  -0.053   0.269  0.00  0.00    +0.142 A 
ATOM      7  C   LIG    1       -1.725   1.165   0.153  0.00  0.00    +0.097 A 
ATOM      8 CL   LIG    1       -2.454   2.769   0.319  0.00  0.00    -0.078 Cl
ENDROOT
BRANCH   2   9
ATOM      9  C1* LIG    1        1.651  -0.226  -0.414  0.00  0.00    +0.226 C 
ATOM     10  O4* LIG    1        2.301   0.369   0.671  0.00  0.00    -0.348 OA
ATOM     11  C4* LIG    1        3.519   1.003   0.276  0.00  0.00    +0.175 C 
ATOM     12  C3* LIG    1        3.641   0.679  -1.221  0.00  0.00    +0.150 C 
ATOM     13  C2* LIG    1        2.198   0.471  -1.656  0.00  0.00    +0.088 C 
BRANCH  12  14
ATOM     14  O3* LIG    1        4.447  -0.460  -1.468  0.00  0.00    -0.389 OA
ATOM     15  H3* LIG    1        4.077  -1.205  -0.989  0.00  0.00    +0.210 HD
ENDBRANCH  12  14
BRANCH  11  16
ATOM     16  C5* LIG    1        3.411   2.512   0.586  0.00  0.00    +0.190 C 
BRANCH  16  17
ATOM     17  O5* LIG    1        3.210   2.735   1.967  0.00  0.00    -0.392 OA
ATOM     18  H5* LIG    1        3.153   3.681   2.120  0.00  0.00    +0.210 HD
ENDBRANCH  16  17
ENDBRANCH  11  16
ENDBRANCH   2   9
BRANCH   6  19
ATOM     19  N   LIG    1       -3.808   0.030   0.491  0.00  0.00    -0.342 N 
ATOM     20  H   LIG    1       -4.363  -0.809   0.577  0.00  0.00    +0.144 HD
ATOM     21  H   LIG    1       -4.259   0.929   0.575  0.00  0.00    +0.144 HD
ENDBRANCH   6  19
TORSDOF 5
