REMARK  Name = DB12352
REMARK                            x       y       z     vdW  Elec       q    Type
REMARK                         _______ _______ _______ _____ _____    ______ ____
ROOT
ATOM      1  N   LIG    1        1.004  -1.180   0.705  0.00  0.00    -0.269 N 
ATOM      2  H   LIG    1        1.515  -0.334   0.500  0.00  0.00    +0.156 HD
ATOM      3  C   LIG    1        1.738  -2.301   0.861  0.00  0.00    +0.308 C 
ATOM      4  N   LIG    1        3.021  -2.062   0.520  0.00  0.00    -0.269 N 
ATOM      5  H   LIG    1        3.214  -1.170   0.089  0.00  0.00    +0.156 HD
ATOM      6  O   LIG    1        1.301  -3.384   1.254  0.00  0.00    -0.252 OA
ENDROOT
BRANCH   1  13
ATOM      7  C   LIG    1       -4.947  -1.691   1.311  0.00  0.00    +0.103 A 
ATOM      8  N   LIG    1       -4.442  -0.407   1.362  0.00  0.00    -0.351 N 
ATOM      9  H   LIG    1       -5.040   0.394   1.505  0.00  0.00    +0.166 HD
ATOM     10  C   LIG    1       -3.069  -0.400   1.233  0.00  0.00    +0.047 A 
ATOM     11  C   LIG    1       -2.146   0.648   1.275  0.00  0.00    +0.028 A 
ATOM     12  C   LIG    1       -0.803   0.316   1.095  0.00  0.00    +0.025 A 
ATOM     13  C   LIG    1       -0.380  -0.998   0.886  0.00  0.00    +0.035 A 
ATOM     14  C   LIG    1       -1.319  -2.040   0.827  0.00  0.00    +0.033 A 
ATOM     15  C   LIG    1       -2.679  -1.748   1.010  0.00  0.00    +0.002 A 
ATOM     16  C   LIG    1       -3.881  -2.527   1.007  0.00  0.00    +0.041 A 
BRANCH   7  24
ATOM     17  C   LIG    1      -10.438   2.857   3.930  0.00  0.00    +0.046 C 
ATOM     18  C   LIG    1       -9.097   2.540   4.553  0.00  0.00    -0.025 A 
ATOM     19  C   LIG    1       -8.169   1.494   4.184  0.00  0.00    +0.011 A 
ATOM     20  C   LIG    1       -8.167   0.458   3.225  0.00  0.00    -0.011 A 
ATOM     21  C   LIG    1       -9.282  -0.038   2.337  0.00  0.00    +0.054 C 
ATOM     22  C   LIG    1       -8.568  -1.035   1.421  0.00  0.00    +0.123 C 
ATOM     23  N   LIG    1       -7.234  -1.235   2.001  0.00  0.00    -0.265 N 
ATOM     24  C   LIG    1       -6.359  -2.019   1.306  0.00  0.00    +0.267 C 
ATOM     25  O   LIG    1       -6.737  -2.961   0.603  0.00  0.00    -0.268 OA
ATOM     26  C   LIG    1       -7.022  -0.318   3.052  0.00  0.00    +0.044 A 
ATOM     27  C   LIG    1       -5.969  -0.239   3.966  0.00  0.00    +0.071 A 
ATOM     28  C   LIG    1       -5.939   0.734   4.962  0.00  0.00    +0.142 A 
ATOM     29  C   LIG    1       -7.030   1.609   5.044  0.00  0.00    +0.089 A 
ATOM     30  N   LIG    1       -7.278   2.668   5.888  0.00  0.00    -0.358 N 
ATOM     31  H   LIG    1       -6.685   3.023   6.625  0.00  0.00    +0.165 HD
ATOM     32  C   LIG    1       -8.497   3.217   5.598  0.00  0.00    +0.087 A 
BRANCH  21  33
ATOM     33  C   LIG    1      -10.465  -0.685   3.095  0.00  0.00    +0.118 C 
ATOM     34 CL   LIG    1       -9.973  -2.086   4.091  0.00  0.00    -0.125 Cl
ENDBRANCH  21  33
BRANCH  28  35
ATOM     35  O   LIG    1       -4.879   0.836   5.825  0.00  0.00    -0.505 OA
ATOM     36  H   LIG    1       -4.992   1.528   6.480  0.00  0.00    +0.292 HD
ENDBRANCH  28  35
ENDBRANCH   7  24
ENDBRANCH   1  13
BRANCH   4  37
ATOM     37  C   LIG    1        4.125  -2.932   0.585  0.00  0.00    +0.035 A 
ATOM     38  C   LIG    1        4.199  -4.037   1.448  0.00  0.00    +0.033 A 
ATOM     39  C   LIG    1        5.353  -4.835   1.443  0.00  0.00    +0.002 A 
ATOM     40  C   LIG    1        5.771  -5.998   2.168  0.00  0.00    +0.041 A 
ATOM     41  C   LIG    1        7.016  -6.387   1.689  0.00  0.00    +0.103 A 
ATOM     42  N   LIG    1        7.415  -5.425   0.784  0.00  0.00    -0.351 N 
ATOM     43  H   LIG    1        8.322  -5.455   0.342  0.00  0.00    +0.166 HD
ATOM     44  C   LIG    1        6.423  -4.491   0.573  0.00  0.00    +0.047 A 
ATOM     45  C   LIG    1        6.369  -3.383  -0.277  0.00  0.00    +0.028 A 
ATOM     46  C   LIG    1        5.204  -2.618  -0.246  0.00  0.00    +0.025 A 
BRANCH  41  47
ATOM     47  C   LIG    1        7.867  -7.445   2.196  0.00  0.00    +0.267 C 
ATOM     48  N   LIG    1        8.828  -7.976   1.385  0.00  0.00    -0.265 N 
ATOM     49  C   LIG    1        8.955  -7.970  -0.019  0.00  0.00    +0.044 A 
ATOM     50  C   LIG    1        7.976  -7.807  -1.003  0.00  0.00    +0.071 A 
ATOM     51  C   LIG    1        8.293  -7.842  -2.359  0.00  0.00    +0.142 A 
ATOM     52  C   LIG    1        9.627  -8.088  -2.704  0.00  0.00    +0.089 A 
ATOM     53  N   LIG    1       10.244  -8.158  -3.933  0.00  0.00    -0.358 N 
ATOM     54  H   LIG    1        9.823  -8.029  -4.842  0.00  0.00    +0.165 HD
ATOM     55  C   LIG    1       11.573  -8.442  -3.769  0.00  0.00    +0.087 A 
ATOM     56  C   LIG    1       11.880  -8.570  -2.427  0.00  0.00    -0.025 A 
ATOM     57  C   LIG    1       13.242  -8.861  -1.838  0.00  0.00    +0.046 C 
ATOM     58  C   LIG    1       10.636  -8.352  -1.723  0.00  0.00    +0.011 A 
ATOM     59  C   LIG    1       10.248  -8.355  -0.366  0.00  0.00    -0.011 A 
ATOM     60  C   LIG    1       11.017  -8.790   0.855  0.00  0.00    +0.054 C 
ATOM     61  C   LIG    1       10.109  -8.339   2.003  0.00  0.00    +0.123 C 
ATOM     62  O   LIG    1        7.746  -7.781   3.377  0.00  0.00    -0.268 OA
BRANCH  51  63
ATOM     63  O   LIG    1        7.338  -7.636  -3.320  0.00  0.00    -0.505 OA
ATOM     64  H   LIG    1        6.464  -7.478  -2.954  0.00  0.00    +0.292 HD
ENDBRANCH  51  63
BRANCH  60  65
ATOM     65  C   LIG    1       11.289 -10.309   0.897  0.00  0.00    +0.118 C 
ATOM     66 CL   LIG    1       12.220 -10.764   2.349  0.00  0.00    -0.125 Cl
ENDBRANCH  60  65
ENDBRANCH  41  47
ENDBRANCH   4  37
TORSDOF 8
