REMARK  Name = DB12708
REMARK                            x       y       z     vdW  Elec       q    Type
REMARK                         _______ _______ _______ _____ _____    ______ ____
ROOT
ATOM      1  C   LIG    1        1.652   0.445   1.496  0.00  0.00    +0.068 C 
ATOM      2  C   LIG    1        1.585  -0.830   2.358  0.00  0.00    +0.140 C 
ATOM      3  O   LIG    1        1.280  -0.887   3.548  0.00  0.00    -0.297 OA
ATOM      4  C   LIG    1        1.958  -2.025   1.476  0.00  0.00    +0.106 C 
ATOM      5  C   LIG    1        1.788  -1.527   0.038  0.00  0.00    +0.129 C 
ATOM      6  C   LIG    1        2.138  -0.034   0.107  0.00  0.00    +0.051 C 
ENDROOT
BRANCH   5   7
ATOM      7  O   LIG    1        0.467  -1.724  -0.435  0.00  0.00    -0.391 OA
ATOM      8  H   LIG    1        0.458  -1.579  -1.384  0.00  0.00    +0.210 HD
ENDBRANCH   5   7
BRANCH   6   9
ATOM      9  C   LIG    1        3.634   0.204  -0.071  0.00  0.00    -0.022 C 
ATOM     10  C   LIG    1        4.174   0.993  -1.020  0.00  0.00    +0.003 C 
BRANCH  10  11
ATOM     11  C   LIG    1        5.655   1.278  -1.267  0.00  0.00    +0.174 C 
BRANCH  11  12
ATOM     12  O   LIG    1        6.470   0.513  -0.395  0.00  0.00    -0.384 OA
ATOM     13  H   LIG    1        6.472  -0.397  -0.701  0.00  0.00    +0.210 HD
ENDBRANCH  11  12
BRANCH  11  14
ATOM     14  C   LIG    1        6.088   1.021  -2.722  0.00  0.00    +0.264 C 
BRANCH  14  15
ATOM     15  O   LIG    1        5.400   1.924  -3.586  0.00  0.00    -0.489 OA
BRANCH  15  16
ATOM     16  C   LIG    1        5.577   1.828  -4.952  0.00  0.00    +0.121 A 
ATOM     17  C   LIG    1        6.429   0.903  -5.578  0.00  0.00    +0.045 A 
ATOM     18  C   LIG    1        6.539   0.879  -6.966  0.00  0.00    +0.004 A 
ATOM     19  C   LIG    1        5.802   1.777  -7.733  0.00  0.00    +0.000 A 
ATOM     20  C   LIG    1        4.956   2.701  -7.124  0.00  0.00    +0.004 A 
ATOM     21  C   LIG    1        4.847   2.723  -5.737  0.00  0.00    +0.045 A 
ENDBRANCH  15  16
ENDBRANCH  14  15
ENDBRANCH  11  14
ENDBRANCH  10  11
ENDBRANCH   6   9
BRANCH   1  22
ATOM     22  C   LIG    1        0.273   1.150   1.506  0.00  0.00    +0.038 C 
BRANCH  22  24
ATOM     23  C   LIG    1       -0.361   2.754  -0.398  0.00  0.00    -0.031 C 
ATOM     24  C   LIG    1        0.264   2.477   0.763  0.00  0.00    -0.030 C 
BRANCH  23  25
ATOM     25  C   LIG    1       -1.175   1.794  -1.252  0.00  0.00    +0.027 C 
BRANCH  25  26
ATOM     26  C   LIG    1       -2.692   2.060  -1.232  0.00  0.00    +0.013 C 
BRANCH  26  27
ATOM     27  C   LIG    1       -3.345   1.789   0.143  0.00  0.00    +0.097 C 
BRANCH  27  30
ATOM     28  N   LIG    1       -5.628   1.206  -0.442  0.00  0.00    -0.190 N 
ATOM     29  H   LIG    1       -5.232   0.404  -0.854  0.00  0.00    +0.176 HD
ATOM     30  C   LIG    1       -4.854   2.081   0.156  0.00  0.00    +0.232 C 
ATOM     31  O   LIG    1       -5.212   3.120   0.717  0.00  0.00    -0.274 OA
BRANCH  28  33
ATOM     32  C   LIG    1       -7.784  -0.131  -1.375  0.00  0.00    +0.218 C 
ATOM     33  S   LIG    1       -7.181   1.429  -0.502  0.00  0.00    +0.042 S 
ATOM     34  O   LIG    1       -7.825   1.386   0.816  0.00  0.00    -0.155 OA
ATOM     35  O   LIG    1       -7.569   2.527  -1.395  0.00  0.00    -0.155 OA
ENDBRANCH  28  33
ENDBRANCH  27  30
ENDBRANCH  26  27
ENDBRANCH  25  26
ENDBRANCH  23  25
ENDBRANCH  22  24
ENDBRANCH   1  22
TORSDOF 14
