REMARK  Name = DB12519
REMARK                            x       y       z     vdW  Elec       q    Type
REMARK                         _______ _______ _______ _____ _____    ______ ____
ROOT
ATOM      1  C   LIG    1        1.575   0.001  -0.001  0.00  0.00    +0.039 C 
ENDROOT
BRANCH   1   2
ATOM      2  N   LIG    1        0.037   0.021   0.001  0.00  0.00    +0.384 N 
ATOM      3  H   LIG    1       -0.291  -0.469   0.821  0.00  0.00    -0.086 HD
ATOM      4  H   LIG    1       -0.293  -0.472  -0.817  0.00  0.00    -0.086 HD
ATOM      5  C   LIG    1       -0.550   1.438  -0.001  0.00  0.00    -0.100 C 
ENDBRANCH   1   2
BRANCH   1   6
ATOM      6  C   LIG    1        1.973  -1.482   0.013  0.00  0.00    +0.287 C 
ATOM      7  O   LIG    1        2.117  -2.050  -1.093  0.00  0.00    -0.253 OA
BRANCH   6   8
ATOM      8  O   LIG    1        2.099  -2.034   1.129  0.00  0.00    -0.482 OA
ATOM      9  H   LIG    1        1.975  -1.538   1.914  0.00  0.00    +0.295 HD
ENDBRANCH   6   8
ENDBRANCH   1   6
TORSDOF 3
