REMARK  Name = DB12654
REMARK                            x       y       z     vdW  Elec       q    Type
REMARK                         _______ _______ _______ _____ _____    ______ ____
ROOT
ATOM      1  C   LIG    1       -0.836   3.664   1.154  0.00  0.00    +0.022 A 
ATOM      2  C   LIG    1       -0.383   2.418   1.589  0.00  0.00    +0.136 A 
ATOM      3  N   LIG    1       -0.471   1.492   0.552  0.00  0.00    -0.330 N 
ATOM      4  C   LIG    1       -0.965   2.135  -0.576  0.00  0.00    +0.051 A 
ATOM      5  C   LIG    1       -1.209   1.651  -1.871  0.00  0.00    +0.026 A 
ATOM      6  C   LIG    1       -1.714   2.550  -2.809  0.00  0.00    +0.002 A 
ATOM      7  C   LIG    1       -1.973   3.877  -2.485  0.00  0.00    +0.001 A 
ATOM      8  C   LIG    1       -1.728   4.363  -1.203  0.00  0.00    +0.010 A 
ATOM      9  C   LIG    1       -1.210   3.497  -0.223  0.00  0.00    +0.008 A 
ENDROOT
BRANCH   1  13
ATOM     10  C   LIG    1       -1.033   7.341   3.394  0.00  0.00    -0.042 A 
ATOM     11  C   LIG    1       -0.498   7.314   2.098  0.00  0.00    +0.005 A 
ATOM     12  C   LIG    1       -0.434   6.127   1.375  0.00  0.00    +0.009 A 
ATOM     13  C   LIG    1       -0.896   4.936   1.937  0.00  0.00    -0.015 A 
ATOM     14  C   LIG    1       -1.445   4.952   3.221  0.00  0.00    +0.009 A 
ATOM     15  C   LIG    1       -1.510   6.140   3.943  0.00  0.00    +0.005 A 
BRANCH  10  17
ATOM     16  C   LIG    1        0.361   9.226   4.352  0.00  0.00    +0.015 C 
ATOM     17  C   LIG    1       -1.078   8.682   4.171  0.00  0.00    -0.013 C 
ATOM     18  C   LIG    1       -1.918   9.718   3.382  0.00  0.00    +0.015 C 
ATOM     19  C   LIG    1       -1.708   8.553   5.583  0.00  0.00    +0.015 C 
ENDBRANCH  10  17
ENDBRANCH   1  13
BRANCH   2  20
ATOM     20  C   LIG    1        0.177   2.009   2.886  0.00  0.00    +0.354 C 
ATOM     21  O   LIG    1        1.360   2.347   3.118  0.00  0.00    -0.243 OA
BRANCH  20  22
ATOM     22  O   LIG    1       -0.580   1.376   3.658  0.00  0.00    -0.476 OA
ATOM     23  H   LIG    1       -1.455   1.170   3.391  0.00  0.00    +0.295 HD
ENDBRANCH  20  22
ENDBRANCH   2  20
BRANCH   3  24
ATOM     24  C   LIG    1       -0.018   0.088   0.568  0.00  0.00    +0.158 C 
BRANCH  24  25
ATOM     25  C   LIG    1        1.451  -0.132   0.196  0.00  0.00    -0.021 A 
ATOM     26  C   LIG    1        2.144   0.755  -0.636  0.00  0.00    +0.051 A 
ATOM     27  C   LIG    1        3.487   0.531  -0.975  0.00  0.00    +0.124 A 
ATOM     28  C   LIG    1        4.125  -0.600  -0.465  0.00  0.00    +0.091 A 
ATOM     29  C   LIG    1        3.461  -1.501   0.369  0.00  0.00    +0.124 A 
ATOM     30  C   LIG    1        2.115  -1.258   0.688  0.00  0.00    +0.051 A 
BRANCH  27  31
ATOM     31  O   LIG    1        4.234   1.360  -1.791  0.00  0.00    -0.490 OA
BRANCH  31  32
ATOM     32  C   LIG    1        3.634   2.544  -2.313  0.00  0.00    +0.257 C 
BRANCH  32  33
ATOM     33  C   LIG    1        4.651   3.279  -3.204  0.00  0.00    +0.200 C 
BRANCH  33  34
ATOM     34  O   LIG    1        4.228   4.591  -3.566  0.00  0.00    -0.380 OA
ATOM     35  C   LIG    1        3.099   4.650  -4.429  0.00  0.00    +0.194 C 
ENDBRANCH  33  34
ENDBRANCH  32  33
ENDBRANCH  31  32
ENDBRANCH  27  31
BRANCH  29  36
ATOM     36  O   LIG    1        4.191  -2.582   0.823  0.00  0.00    -0.490 OA
BRANCH  36  37
ATOM     37  C   LIG    1        3.588  -3.501   1.730  0.00  0.00    +0.257 C 
BRANCH  37  38
ATOM     38  C   LIG    1        4.620  -4.556   2.149  0.00  0.00    +0.200 C 
BRANCH  38  39
ATOM     39  O   LIG    1        5.718  -3.918   2.789  0.00  0.00    -0.380 OA
ATOM     40  C   LIG    1        6.728  -4.820   3.211  0.00  0.00    +0.194 C 
ENDBRANCH  38  39
ENDBRANCH  37  38
ENDBRANCH  36  37
ENDBRANCH  29  36
ENDBRANCH  24  25
ENDBRANCH   3  24
TORSDOF 14
