REMARK  Name = DB12592
REMARK                            x       y       z     vdW  Elec       q    Type
REMARK                         _______ _______ _______ _____ _____    ______ ____
ROOT
ATOM      1  C   LIG    1        1.948   0.166  -0.436  0.00  0.00    +0.251 C 
ENDROOT
BRANCH   1   2
ATOM      2  C   LIG    1        0.473  -0.279  -0.401  0.00  0.00    +0.280 C 
BRANCH   2   3
ATOM      3  O   LIG    1       -0.380   0.843  -0.219  0.00  0.00    -0.461 OA
BRANCH   3   4
ATOM      4  C   LIG    1       -1.702   0.689  -0.023  0.00  0.00    +0.307 C 
ATOM      5  O   LIG    1       -2.311  -0.381   0.033  0.00  0.00    -0.251 OA
BRANCH   4   6
ATOM      6  C   LIG    1       -2.427   2.029   0.132  0.00  0.00    +0.120 C 
BRANCH   6   7
ATOM      7  C   LIG    1       -2.457   2.563   1.581  0.00  0.00    +0.011 C 
BRANCH   7   8
ATOM      8  C   LIG    1       -1.081   2.982   2.146  0.00  0.00    +0.001 C 
BRANCH   8   9
ATOM      9  C   LIG    1       -1.131   3.548   3.579  0.00  0.00    +0.000 C 
BRANCH   9  10
ATOM     10  C   LIG    1       -1.827   4.919   3.697  0.00  0.00    +0.000 C 
BRANCH  10  11
ATOM     11  C   LIG    1       -1.818   5.474   5.133  0.00  0.00    +0.000 C 
BRANCH  11  12
ATOM     12  C   LIG    1       -2.494   6.853   5.245  0.00  0.00    -0.000 C 
BRANCH  12  13
ATOM     13  C   LIG    1       -2.543   7.382   6.689  0.00  0.00    -0.000 C 
BRANCH  13  14
ATOM     14  C   LIG    1       -3.198   8.774   6.793  0.00  0.00    -0.000 C 
BRANCH  14  15
ATOM     15  C   LIG    1       -3.394   9.280   8.236  0.00  0.00    -0.000 C 
BRANCH  15  16
ATOM     16  C   LIG    1       -2.085   9.524   9.011  0.00  0.00    -0.000 C 
BRANCH  16  17
ATOM     17  C   LIG    1       -2.325  10.121  10.412  0.00  0.00    -0.000 C 
BRANCH  17  18
ATOM     18  C   LIG    1       -1.052  10.270  11.269  0.00  0.00    -0.000 C 
BRANCH  18  20
ATOM     19  C   LIG    1        1.174  11.479  11.651  0.00  0.00    +0.004 C 
ATOM     20  C   LIG    1       -0.029  11.283  10.719  0.00  0.00    -0.003 C 
ENDBRANCH  18  20
ENDBRANCH  17  18
ENDBRANCH  16  17
ENDBRANCH  15  16
ENDBRANCH  14  15
ENDBRANCH  13  14
ENDBRANCH  12  13
ENDBRANCH  11  12
ENDBRANCH  10  11
ENDBRANCH   9  10
ENDBRANCH   8   9
ENDBRANCH   7   8
ENDBRANCH   6   7
ENDBRANCH   4   6
ENDBRANCH   3   4
ENDBRANCH   2   3
ENDBRANCH   1   2
BRANCH   1  21
ATOM     21  C   LIG    1        2.301   1.058  -1.658  0.00  0.00    +0.280 C 
BRANCH  21  22
ATOM     22  O   LIG    1        1.603   2.302  -1.685  0.00  0.00    -0.461 OA
BRANCH  22  23
ATOM     23  C   LIG    1        1.915   3.308  -0.837  0.00  0.00    +0.304 C 
ATOM     24  C   LIG    1        1.028   4.529  -1.039  0.00  0.00    +0.136 C 
ATOM     25  O   LIG    1        2.798   3.293   0.022  0.00  0.00    -0.251 OA
ENDBRANCH  22  23
ENDBRANCH  21  22
ENDBRANCH   1  21
BRANCH   1  26
ATOM     26  O   LIG    1        2.741  -1.021  -0.441  0.00  0.00    -0.454 OA
BRANCH  26  27
ATOM     27  C   LIG    1        4.047  -1.010  -0.073  0.00  0.00    +0.308 C 
ATOM     28  O   LIG    1        4.679  -0.028   0.318  0.00  0.00    -0.251 OA
BRANCH  27  29
ATOM     29  C   LIG    1        4.718  -2.385  -0.186  0.00  0.00    +0.120 C 
BRANCH  29  30
ATOM     30  C   LIG    1        4.420  -3.163  -1.489  0.00  0.00    +0.011 C 
BRANCH  30  31
ATOM     31  C   LIG    1        4.886  -2.458  -2.780  0.00  0.00    +0.001 C 
BRANCH  31  32
ATOM     32  C   LIG    1        4.662  -3.313  -4.039  0.00  0.00    +0.000 C 
BRANCH  32  33
ATOM     33  C   LIG    1        5.117  -2.618  -5.335  0.00  0.00    +0.000 C 
BRANCH  33  34
ATOM     34  C   LIG    1        4.872  -3.483  -6.587  0.00  0.00    +0.004 C 
BRANCH  34  35
ATOM     35  C   LIG    1        5.355  -2.847  -7.903  0.00  0.00    +0.027 C 
BRANCH  35  36
ATOM     36  C   LIG    1        4.642  -1.559  -8.282  0.00  0.00    -0.031 C 
ATOM     37  C   LIG    1        5.125  -0.576  -9.065  0.00  0.00    -0.027 C 
BRANCH  37  38
ATOM     38  C   LIG    1        6.465  -0.550  -9.780  0.00  0.00    +0.053 C 
BRANCH  38  39
ATOM     39  C   LIG    1        7.433   0.478  -9.218  0.00  0.00    -0.027 C 
ATOM     40  C   LIG    1        8.682   0.275  -8.754  0.00  0.00    -0.031 C 
BRANCH  40  41
ATOM     41  C   LIG    1        9.449  -1.037  -8.671  0.00  0.00    +0.027 C 
BRANCH  41  42
ATOM     42  C   LIG    1       10.079  -1.313  -7.293  0.00  0.00    +0.004 C 
BRANCH  42  43
ATOM     43  C   LIG    1        9.054  -1.592  -6.177  0.00  0.00    +0.000 C 
BRANCH  43  44
ATOM     44  C   LIG    1        9.720  -1.833  -4.811  0.00  0.00    -0.003 C 
ATOM     45  C   LIG    1        8.711  -2.096  -3.686  0.00  0.00    +0.004 C 
ENDBRANCH  43  44
ENDBRANCH  42  43
ENDBRANCH  41  42
ENDBRANCH  40  41
ENDBRANCH  38  39
ENDBRANCH  37  38
ENDBRANCH  35  36
ENDBRANCH  34  35
ENDBRANCH  33  34
ENDBRANCH  32  33
ENDBRANCH  31  32
ENDBRANCH  30  31
ENDBRANCH  29  30
ENDBRANCH  27  29
ENDBRANCH  26  27
ENDBRANCH   1  26
TORSDOF 36
