REMARK  Name = DB12604
REMARK                            x       y       z     vdW  Elec       q    Type
REMARK                         _______ _______ _______ _____ _____    ______ ____
ROOT
ATOM      1  C   LIG    1        0.130  -0.108   0.487  0.00  0.00    +0.138 C 
ATOM      2  C   LIG    1       -0.713  -0.792   1.607  0.00  0.00    +0.169 C 
ATOM      3  C   LIG    1       -2.245  -0.618   1.407  0.00  0.00    +0.139 C 
ATOM      4  C   LIG    1       -2.662  -1.052  -0.030  0.00  0.00    -0.045 C 
ATOM      5  C   LIG    1       -1.865  -0.319  -1.131  0.00  0.00    -0.027 C 
ATOM      6  C   LIG    1       -0.344  -0.513  -0.941  0.00  0.00    -0.045 C 
ENDROOT
BRANCH   4   7
ATOM      7  N   LIG    1       -4.164  -0.796  -0.252  0.00  0.00    +0.382 N 
ATOM      8  H   LIG    1       -4.443  -1.117  -1.169  0.00  0.00    -0.090 HD
ATOM      9  H   LIG    1       -4.707  -1.292   0.441  0.00  0.00    -0.090 HD
ATOM     10  H   LIG    1       -4.370   0.191  -0.180  0.00  0.00    -0.090 HD
ENDBRANCH   4   7
BRANCH   6  11
ATOM     11  N   LIG    1        0.393   0.334  -1.994  0.00  0.00    +0.382 N 
ATOM     12  H   LIG    1        1.391   0.205  -1.900  0.00  0.00    -0.090 HD
ATOM     13  H   LIG    1        0.119   0.056  -2.926  0.00  0.00    -0.090 HD
ATOM     14  H   LIG    1        0.182   1.314  -1.872  0.00  0.00    -0.090 HD
ENDBRANCH   6  11
BRANCH   2  15
ATOM     15  O   LIG    1       -0.318  -0.297   2.873  0.00  0.00    -0.387 OA
ATOM     16  H   LIG    1       -0.419   0.658   2.879  0.00  0.00    +0.210 HD
ENDBRANCH   2  15
BRANCH   1  17
ATOM     17  O   LIG    1        1.546  -0.216   0.711  0.00  0.00    -0.345 OA
BRANCH  17  22
ATOM     18  C   LIG    1        5.963   0.048  -0.938  0.00  0.00    +0.042 C 
ATOM     19  C   LIG    1        4.911  -0.932  -0.367  0.00  0.00    +0.077 C 
ATOM     20  C   LIG    1        4.494  -0.586   1.089  0.00  0.00    -0.004 C 
ATOM     21  C   LIG    1        3.358  -1.525   1.572  0.00  0.00    +0.159 C 
ATOM     22  C   LIG    1        2.166  -1.472   0.593  0.00  0.00    +0.277 C 
ATOM     23  O   LIG    1        2.561  -1.721  -0.737  0.00  0.00    -0.346 OA
ATOM     24  C   LIG    1        3.632  -0.905  -1.233  0.00  0.00    +0.196 C 
BRANCH  20  25
ATOM     25  N   LIG    1        5.724  -0.738   2.020  0.00  0.00    +0.383 N 
ATOM     26  H   LIG    1        5.719  -1.665   2.422  0.00  0.00    -0.086 HD
ATOM     27  H   LIG    1        6.555  -0.663   1.451  0.00  0.00    -0.086 HD
ATOM     28  C   LIG    1        5.827   0.313   3.137  0.00  0.00    -0.100 C 
ENDBRANCH  20  25
BRANCH  19  29
ATOM     29  O   LIG    1        5.476  -2.232  -0.469  0.00  0.00    -0.388 OA
ATOM     30  H   LIG    1        5.707  -2.397  -1.386  0.00  0.00    +0.210 HD
ENDBRANCH  19  29
BRANCH  21  31
ATOM     31  O   LIG    1        2.925  -1.262   2.896  0.00  0.00    -0.388 OA
ATOM     32  H   LIG    1        2.367  -1.986   3.189  0.00  0.00    +0.210 HD
ENDBRANCH  21  31
ENDBRANCH  17  22
ENDBRANCH   1  17
BRANCH   3  33
ATOM     33  O   LIG    1       -2.938  -1.412   2.382  0.00  0.00    -0.339 OA
BRANCH  33  34
ATOM     34  C   LIG    1       -3.939  -0.795   3.149  0.00  0.00    +0.293 C 
ATOM     35  O   LIG    1       -4.982  -1.729   3.379  0.00  0.00    -0.472 OA
ATOM     36  C   LIG    1       -5.823  -1.462   4.427  0.00  0.00    +0.080 C 
ATOM     37  C   LIG    1       -5.645  -0.496   5.349  0.00  0.00    +0.011 C 
ATOM     38  C   LIG    1       -4.409   0.383   5.366  0.00  0.00    +0.020 C 
ATOM     39  C   LIG    1       -3.312  -0.227   4.455  0.00  0.00    -0.001 C 
BRANCH  39  40
ATOM     40  N   LIG    1       -2.593  -1.357   5.225  0.00  0.00    +0.384 N 
ATOM     41  H   LIG    1       -1.870  -1.764   4.648  0.00  0.00    -0.089 HD
ATOM     42  H   LIG    1       -2.168  -0.995   6.067  0.00  0.00    -0.089 HD
ATOM     43  H   LIG    1       -3.250  -2.081   5.478  0.00  0.00    -0.089 HD
ENDBRANCH  39  40
BRANCH  36  44
ATOM     44  C   LIG    1       -7.033  -2.380   4.361  0.00  0.00    -0.012 C 
BRANCH  44  45
ATOM     45  N   LIG    1       -6.708  -3.847   4.672  0.00  0.00    +0.383 N 
ATOM     46  H   LIG    1       -6.046  -4.210   4.001  0.00  0.00    -0.089 HD
ATOM     47  H   LIG    1       -6.321  -3.934   5.601  0.00  0.00    -0.089 HD
ATOM     48  H   LIG    1       -7.550  -4.405   4.623  0.00  0.00    -0.089 HD
ENDBRANCH  44  45
ENDBRANCH  36  44
ENDBRANCH  33  34
ENDBRANCH   3  33
TORSDOF 13
