REMARK  Name = DB12209
REMARK                            x       y       z     vdW  Elec       q    Type
REMARK                         _______ _______ _______ _____ _____    ______ ____
ROOT
ATOM      1  N   LIG    1        1.979   0.678   1.268  0.00  0.00    -0.272 N 
ATOM      2  C   LIG    1        2.767   1.792   1.228  0.00  0.00    +0.330 A 
ATOM      3  O   LIG    1        3.191   2.392   0.241  0.00  0.00    -0.246 OA
ATOM      4  N   LIG    1        2.994   2.113   2.524  0.00  0.00    -0.289 N 
ATOM      5  H   LIG    1        3.551   2.900   2.823  0.00  0.00    +0.172 HD
ATOM      6  C   LIG    1        2.371   1.232   3.368  0.00  0.00    +0.178 A 
ATOM      7  N   LIG    1        2.346   1.197   4.724  0.00  0.00    -0.232 NA
ATOM      8  C   LIG    1        1.622   0.173   5.265  0.00  0.00    +0.150 A 
ATOM      9  C   LIG    1        0.957  -0.769   4.455  0.00  0.00    +0.134 A 
ATOM     10  N   LIG    1        1.001  -0.707   3.091  0.00  0.00    -0.216 NA
ATOM     11  C   LIG    1        1.728   0.323   2.581  0.00  0.00    +0.182 A 
ENDROOT
BRANCH   9  12
ATOM     12  C   LIG    1        0.186  -1.861   5.024  0.00  0.00    -0.048 C 
ATOM     13  C   LIG    1       -0.466  -2.780   5.496  0.00  0.00    +0.011 C 
ENDBRANCH   9  12
BRANCH   1  14
ATOM     14  C   LIG    1        1.501   0.001   0.046  0.00  0.00    +0.093 C 
BRANCH  14  16
ATOM     15  C   LIG    1       -0.643   1.451  -0.081  0.00  0.00    +0.006 C 
ATOM     16  C   LIG    1       -0.042   0.036  -0.090  0.00  0.00    +0.022 C 
ENDBRANCH  14  16
BRANCH  14  17
ATOM     17  C   LIG    1        2.048  -1.442  -0.090  0.00  0.00    +0.022 C 
ATOM     18  C   LIG    1        3.582  -1.537  -0.081  0.00  0.00    +0.006 C 
ENDBRANCH  14  17
ENDBRANCH   1  14
TORSDOF 4
