REMARK  Name = DB12606
REMARK                            x       y       z     vdW  Elec       q    Type
REMARK                         _______ _______ _______ _____ _____    ______ ____
ROOT
ATOM      1  C   LIG    1       -2.012   1.118   0.020  0.00  0.00    +0.105 A 
ATOM      2  C   LIG    1       -2.745  -0.147   0.070  0.00  0.00    +0.269 A 
ATOM      3  O   LIG    1       -3.968  -0.267   0.159  0.00  0.00    -0.266 OA
ATOM      4  N   LIG    1       -1.933  -1.243   0.007  0.00  0.00    -0.274 N 
ATOM      5  H   LIG    1       -2.414  -2.130   0.038  0.00  0.00    +0.173 HD
ATOM      6  C   LIG    1       -0.569  -1.328  -0.099  0.00  0.00    +0.331 A 
ATOM      7  O   LIG    1       -0.027  -2.433  -0.163  0.00  0.00    -0.246 OA
ATOM      8  N   LIG    1        0.064  -0.100  -0.135  0.00  0.00    -0.270 N 
ATOM      9  C   LIG    1       -0.665   1.066  -0.078  0.00  0.00    +0.115 A 
ENDROOT
BRANCH   8  10
ATOM     10  C1* LIG    1        1.522  -0.041  -0.228  0.00  0.00    +0.255 C 
ATOM     11  O4* LIG    1        2.047   0.868   0.692  0.00  0.00    -0.346 OA
ATOM     12  C4* LIG    1        3.381   1.222   0.344  0.00  0.00    +0.177 C 
ATOM     13  C3* LIG    1        3.558   0.721  -1.105  0.00  0.00    +0.178 C 
ATOM     14  C2* LIG    1        2.151   0.335  -1.577  0.00  0.00    +0.195 C 
BRANCH  13  15
ATOM     15  O3* LIG    1        4.453  -0.376  -1.185  0.00  0.00    -0.386 OA
ATOM     16  H3* LIG    1        4.108  -1.093  -0.647  0.00  0.00    +0.210 HD
ENDBRANCH  13  15
BRANCH  14  17
ATOM     17  O2* LIG    1        1.476   1.400  -2.226  0.00  0.00    -0.385 OA
ATOM     18  H2* LIG    1        0.649   1.069  -2.583  0.00  0.00    +0.210 HD
ENDBRANCH  14  17
BRANCH  12  19
ATOM     19  C5* LIG    1        3.580   2.735   0.575  0.00  0.00    +0.190 C 
BRANCH  19  20
ATOM     20  O5* LIG    1        2.722   3.529  -0.222  0.00  0.00    -0.392 OA
ATOM     21  H5* LIG    1        2.895   4.454  -0.033  0.00  0.00    +0.210 HD
ENDBRANCH  19  20
ENDBRANCH  12  19
ENDBRANCH   8  10
BRANCH   1  24
ATOM     22  C   LIG    1       -4.037   4.708   0.086  0.00  0.00    +0.106 C 
ATOM     23  C   LIG    1       -3.285   3.445   0.081  0.00  0.00    -0.100 C 
ATOM     24  C   LIG    1       -2.674   2.387   0.072  0.00  0.00    -0.060 C 
ENDBRANCH   1  24
TORSDOF 6
