REMARK  Name = DB12298
REMARK                            x       y       z     vdW  Elec       q    Type
REMARK                         _______ _______ _______ _____ _____    ______ ____
ROOT
ATOM      1  C   LIG    1        3.716  -0.159  -0.319  0.00  0.00    +0.053 A 
ATOM      2  C   LIG    1        3.458   0.495   0.876  0.00  0.00    +0.167 A 
ATOM      3  O   LIG    1        2.117   0.594   1.069  0.00  0.00    -0.455 OA
ATOM      4  C   LIG    1        1.507   0.007   0.003  0.00  0.00    +0.131 A 
ATOM      5  C   LIG    1        2.473  -0.467  -0.874  0.00  0.00    +0.048 A 
ENDROOT
BRANCH   2   6
ATOM      6  C   LIG    1        4.329   1.057   1.889  0.00  0.00    +0.296 C 
ATOM      7  O   LIG    1        5.556   1.015   1.817  0.00  0.00    -0.292 OA
ENDBRANCH   2   6
BRANCH   4   8
ATOM      8  C   LIG    1       -0.005   0.004  -0.002  0.00  0.00    +0.230 C 
BRANCH   8   9
ATOM      9  O   LIG    1       -0.483   1.330  -0.088  0.00  0.00    -0.387 OA
ATOM     10  H   LIG    1       -1.442   1.313  -0.058  0.00  0.00    +0.210 HD
ENDBRANCH   8   9
ENDBRANCH   4   8
TORSDOF 3
