REMARK  Name = DB12181
REMARK                            x       y       z     vdW  Elec       q    Type
REMARK                         _______ _______ _______ _____ _____    ______ ____
ROOT
ATOM      1  C   LIG    1        1.945  -0.380  -0.334  0.00  0.00    +0.223 C 
ATOM      2  N   LIG    1        2.660  -1.020   0.619  0.00  0.00    -0.284 N 
ATOM      3  H   LIG    1        2.142  -1.528   1.320  0.00  0.00    +0.155 HD
ATOM      4  O   LIG    1        2.472   0.147  -1.318  0.00  0.00    -0.275 OA
ENDROOT
BRANCH   1   5
ATOM      5  C   LIG    1        0.386  -0.346  -0.189  0.00  0.00    +0.048 C 
ATOM      6  C   LIG    1       -0.196  -0.927  -1.525  0.00  0.00    +0.016 C 
ATOM      7  C   LIG    1       -1.730  -1.134  -1.515  0.00  0.00    +0.001 C 
ATOM      8  C   LIG    1       -2.216  -1.926  -0.286  0.00  0.00    +0.000 C 
ATOM      9  C   LIG    1       -1.667  -1.354   1.033  0.00  0.00    +0.001 C 
ATOM     10  C   LIG    1       -0.129  -1.230   0.999  0.00  0.00    +0.016 C 
BRANCH   5  11
ATOM     11  C   LIG    1       -0.044   1.165  -0.033  0.00  0.00    +0.019 C 
BRANCH  11  12
ATOM     12  C   LIG    1        0.069   1.904   1.343  0.00  0.00    -0.011 C 
BRANCH  12  14
ATOM     13  C   LIG    1       -2.023   3.405   0.841  0.00  0.00    +0.004 C 
ATOM     14  C   LIG    1       -0.544   3.333   1.261  0.00  0.00    +0.000 C 
ENDBRANCH  12  14
BRANCH  12  15
ATOM     15  C   LIG    1        1.515   1.937   1.911  0.00  0.00    +0.000 C 
ATOM     16  C   LIG    1        1.712   2.704   3.230  0.00  0.00    +0.004 C 
ENDBRANCH  12  15
ENDBRANCH  11  12
ENDBRANCH   5  11
ENDBRANCH   1   5
BRANCH   2  17
ATOM     17  C   LIG    1        4.054  -1.196   0.657  0.00  0.00    +0.047 A 
ATOM     18  C   LIG    1        4.585  -2.447   1.024  0.00  0.00    +0.037 A 
ATOM     19  C   LIG    1        5.970  -2.619   1.097  0.00  0.00    +0.017 A 
ATOM     20  C   LIG    1        6.829  -1.560   0.809  0.00  0.00    +0.001 A 
ATOM     21  C   LIG    1        6.308  -0.316   0.455  0.00  0.00    +0.002 A 
ATOM     22  C   LIG    1        4.928  -0.131   0.385  0.00  0.00    +0.024 A 
BRANCH  18  23
ATOM     23  S   LIG    1        3.546  -3.838   1.408  0.00  0.00    -0.050 S 
BRANCH  23  24
ATOM     24  C   LIG    1        2.857  -4.286  -0.239  0.00  0.00    +0.197 C 
ATOM     25  O   LIG    1        3.164  -3.719  -1.289  0.00  0.00    -0.285 OA
BRANCH  24  26
ATOM     26  C   LIG    1        1.829  -5.430  -0.213  0.00  0.00    +0.061 C 
ATOM     27  C   LIG    1        0.604  -5.126  -1.101  0.00  0.00    +0.016 C 
ATOM     28  C   LIG    1        2.492  -6.767  -0.598  0.00  0.00    +0.016 C 
ENDBRANCH  24  26
ENDBRANCH  23  24
ENDBRANCH  18  23
ENDBRANCH   2  17
TORSDOF 9
