REMARK  Name = DB12572
REMARK                            x       y       z     vdW  Elec       q    Type
REMARK                         _______ _______ _______ _____ _____    ______ ____
ROOT
ATOM      1  C   LIG    1        1.438  -0.012  -0.061  0.00  0.00    +0.220 A 
ATOM      2  N   LIG    1        2.074  -1.233   0.003  0.00  0.00    -0.183 N 
ATOM      3  N   LIG    1        1.505  -2.458   0.075  0.00  0.00    -0.167 NA
ATOM      4  C   LIG    1        2.504  -3.319   0.117  0.00  0.00    +0.070 A 
ATOM      5  C   LIG    1        2.174  -4.793   0.216  0.00  0.00    +0.068 C 
ATOM      6  C   LIG    1        3.768  -2.700   0.072  0.00  0.00    +0.051 A 
ATOM      7  C   LIG    1        3.474  -1.313  -0.005  0.00  0.00    +0.169 A 
ATOM      8  N   LIG    1        4.224  -0.204  -0.085  0.00  0.00    -0.213 NA
ATOM      9  C   LIG    1        3.533   0.967  -0.145  0.00  0.00    +0.132 A 
ATOM     10  C   LIG    1        4.352   2.241  -0.233  0.00  0.00    +0.088 C 
ATOM     11  N   LIG    1        2.185   1.123  -0.138  0.00  0.00    -0.200 NA
ENDROOT
BRANCH   6  12
ATOM     12  C   LIG    1        5.115  -3.344   0.091  0.00  0.00    +0.009 A 
ATOM     13  C   LIG    1        6.133  -3.009   1.002  0.00  0.00    +0.050 A 
ATOM     14  C   LIG    1        5.943  -1.991   2.117  0.00  0.00    +0.066 C 
ATOM     15  N   LIG    1        7.362  -3.587   0.972  0.00  0.00    -0.218 NA
ATOM     16  C   LIG    1        7.623  -4.530   0.032  0.00  0.00    +0.215 A 
ATOM     17  C   LIG    1        6.657  -4.922  -0.908  0.00  0.00    +0.068 A 
ATOM     18  C   LIG    1        5.400  -4.319  -0.871  0.00  0.00    +0.015 A 
BRANCH  16  19
ATOM     19  O   LIG    1        8.904  -5.037   0.110  0.00  0.00    -0.480 OA
ATOM     20  C   LIG    1        9.306  -6.033  -0.825  0.00  0.00    +0.279 C 
ENDBRANCH  16  19
ENDBRANCH   6  12
BRANCH   1  21
ATOM     21  N   LIG    1        0.033   0.055  -0.050  0.00  0.00    -0.311 N 
ATOM     22  H   LIG    1       -0.494  -0.805  -0.015  0.00  0.00    +0.149 HD
BRANCH  21  23
ATOM     23  C   LIG    1       -0.706   1.316  -0.129  0.00  0.00    +0.070 C 
ATOM     24  C   LIG    1       -0.755   2.028   1.236  0.00  0.00    +0.028 C 
BRANCH  23  26
ATOM     25  C   LIG    1       -2.151   0.592  -2.149  0.00  0.00    +0.005 C 
ATOM     26  C   LIG    1       -2.126   1.106  -0.700  0.00  0.00    +0.018 C 
ENDBRANCH  23  26
ENDBRANCH  21  23
ENDBRANCH   1  21
TORSDOF 5
