REMARK  Name = DB12466
REMARK                            x       y       z     vdW  Elec       q    Type
REMARK                         _______ _______ _______ _____ _____    ______ ____
ROOT
ATOM      1  N   LIG    1       -2.096  -1.212   0.000  0.00  0.00    -0.215 NA
ATOM      2  C   LIG    1       -0.735  -1.238   0.000  0.00  0.00    +0.244 A 
ATOM      3  C   LIG    1       -0.009  -0.015   0.000  0.00  0.00    +0.189 A 
ATOM      4  N   LIG    1       -0.676   1.180   0.000  0.00  0.00    -0.208 NA
ATOM      5  C   LIG    1       -2.031   1.179   0.000  0.00  0.00    +0.232 A 
ATOM      6  F   LIG    1       -2.700   2.354   0.000  0.00  0.00    -0.182 F 
ATOM      7  C   LIG    1       -2.737  -0.018   0.000  0.00  0.00    +0.173 A 
ENDROOT
BRANCH   3   8
ATOM      8  C   LIG    1        1.515   0.062   0.000  0.00  0.00    +0.265 C 
ATOM      9  O   LIG    1        2.228  -0.940   0.000  0.00  0.00    -0.269 OA
ATOM     10  N   LIG    1        2.074   1.280   0.000  0.00  0.00    -0.324 N 
ATOM     11  H   LIG    1        1.493   2.106   0.000  0.00  0.00    +0.145 HD
ATOM     12  H   LIG    1        3.078   1.377   0.000  0.00  0.00    +0.145 HD
ENDBRANCH   3   8
BRANCH   2  13
ATOM     13  O   LIG    1       -0.060  -2.433   0.000  0.00  0.00    -0.491 OA
ATOM     14  H   LIG    1       -0.649  -3.191   0.000  0.00  0.00    +0.294 HD
ENDBRANCH   2  13
TORSDOF 2
