REMARK  Name = DB12357
REMARK                            x       y       z     vdW  Elec       q    Type
REMARK                         _______ _______ _______ _____ _____    ______ ____
ROOT
ATOM      1  C   LIG    1        1.510   0.179   0.072  0.00  0.00    +0.096 A 
ATOM      2  N   LIG    1        2.104  -0.853   0.787  0.00  0.00    -0.309 N 
ATOM      3  H   LIG    1        1.510  -1.388   1.405  0.00  0.00    +0.170 HD
ATOM      4  C   LIG    1        3.418  -1.261   0.770  0.00  0.00    +0.295 A 
ATOM      5  O   LIG    1        3.826  -2.197   1.452  0.00  0.00    -0.264 OA
ATOM      6  C   LIG    1        4.162  -0.415  -0.153  0.00  0.00    +0.218 A 
ATOM      7  O   LIG    1        5.490  -0.513  -0.440  0.00  0.00    -0.448 OA
ATOM      8  C   LIG    1        5.743   0.479  -1.348  0.00  0.00    +0.138 A 
ATOM      9  C   LIG    1        6.985   0.756  -1.930  0.00  0.00    +0.048 A 
ATOM     10  C   LIG    1        7.036   1.814  -2.839  0.00  0.00    +0.023 A 
ATOM     11  C   LIG    1        5.898   2.562  -3.152  0.00  0.00    +0.042 A 
ATOM     12 CL   LIG    1        6.022   3.859  -4.283  0.00  0.00    -0.084 Cl
ATOM     13  C   LIG    1        4.660   2.280  -2.567  0.00  0.00    +0.033 A 
ATOM     14  C   LIG    1        4.571   1.221  -1.648  0.00  0.00    +0.048 A 
ATOM     15  C   LIG    1        3.543   0.620  -0.856  0.00  0.00    +0.124 A 
ATOM     16  N   LIG    1        2.213   0.913  -0.736  0.00  0.00    -0.232 NA
ENDROOT
BRANCH   1  20
ATOM     17  N   LIG    1       -0.556   1.644  -0.420  0.00  0.00    +0.386 N 
ATOM     18  H   LIG    1       -0.720   2.412   0.217  0.00  0.00    -0.085 HD
ATOM     19  H   LIG    1        0.126   1.962  -1.094  0.00  0.00    -0.085 HD
ATOM     20  C   LIG    1        0.007   0.400   0.307  0.00  0.00    -0.004 C 
ATOM     21  C   LIG    1       -0.917  -0.751  -0.152  0.00  0.00    -0.010 C 
ATOM     22  C   LIG    1       -1.610  -0.259  -1.417  0.00  0.00    -0.020 C 
ATOM     23  C   LIG    1       -1.842   1.219  -1.139  0.00  0.00    -0.082 C 
ENDBRANCH   1  20
TORSDOF 1
