REMARK  Name = DB12076
REMARK                            x       y       z     vdW  Elec       q    Type
REMARK                         _______ _______ _______ _____ _____    ______ ____
ROOT
ATOM      1  C   UNK A  8       -2.718   1.255   5.991  0.00  0.00    +0.236 C 
ATOM      2  O   UNK A  8       -1.683   1.773   6.410  0.00  0.00    -0.274 OA
ATOM      3  N   UNK A  8       -3.083  -0.015   6.248  0.00  0.00    -0.302 N 
ATOM      4  H   UNK A  8       -3.964  -0.353   5.890  0.00  0.00    +0.150 HD
ATOM      5  C   UNK A  8       -2.240  -1.029   6.899  0.00  0.00    +0.162 C 
ATOM      6  C   UNK A  8       -1.134  -1.457   5.911  0.00  0.00    +0.234 C 
ATOM      7  O   UNK A  8       -1.381  -2.270   5.021  0.00  0.00    -0.274 OA
ATOM      8  N   UNK A  8        0.043  -0.810   6.046  0.00  0.00    -0.300 N 
ATOM      9  H   UNK A  8        0.129  -0.177   6.828  0.00  0.00    +0.150 HD
ATOM     10  C   UNK A  8        1.144  -0.705   5.071  0.00  0.00    +0.189 C 
ATOM     11  C   UNK A  1        0.652   0.231   3.968  0.00  0.00    +0.328 C 
ATOM     12  O   UNK A  1        0.925   1.433   3.956  0.00  0.00    -0.249 OA
ATOM     13  O   UNK A  1       -0.140  -0.399   3.057  0.00  0.00    -0.458 OA
ATOM     14  C   UNK A  1       -0.885   0.327   2.076  0.00  0.00    +0.203 C 
ATOM     15  C   UNK A  1       -2.304  -0.274   2.068  0.00  0.00    +0.054 C 
ATOM     16  C   UNK A  1       -0.193   0.327   0.677  0.00  0.00    +0.200 C 
ATOM     17  C   UNK A  1       -0.751   1.495  -0.166  0.00  0.00    +0.237 C 
ATOM     18  O   UNK A  1       -1.797   1.336  -0.794  0.00  0.00    -0.274 OA
ATOM     19  N   GLY A  2       -0.051   2.644  -0.142  0.00  0.00    -0.305 N 
ATOM     20  H   GLY A  2        0.813   2.677   0.382  0.00  0.00    +0.149 HD
ATOM     21  CA  GLY A  2       -0.449   3.877  -0.806  0.00  0.00    +0.200 C 
ATOM     22  C   GLY A  2       -0.133   3.822  -2.304  0.00  0.00    +0.231 C 
ATOM     23  O   GLY A  2        0.857   3.227  -2.731  0.00  0.00    -0.274 OA
ATOM     24  N   UNK A  3       -0.983   4.508  -3.078  0.00  0.00    -0.303 N 
ATOM     25  H   UNK A  3       -1.767   4.970  -2.639  0.00  0.00    +0.149 HD
ATOM     26  C   UNK A  3       -0.870   4.727  -4.515  0.00  0.00    +0.159 C 
ATOM     27  C   UNK A  3       -1.863   5.854  -4.822  0.00  0.00    +0.234 C 
ATOM     28  O   UNK A  3       -2.995   5.577  -5.220  0.00  0.00    -0.274 OA
ATOM     29  N   ASP A  4       -1.430   7.094  -4.530  0.00  0.00    -0.302 N 
ATOM     30  H   ASP A  4       -0.475   7.201  -4.218  0.00  0.00    +0.150 HD
ATOM     31  CA  ASP A  4       -2.238   8.322  -4.454  0.00  0.00    +0.169 C 
ATOM     32  C   ASP A  4       -3.044   8.368  -3.141  0.00  0.00    +0.234 C 
ATOM     33  O   ASP A  4       -3.558   7.342  -2.690  0.00  0.00    -0.274 OA
ATOM     34  N   ALA A  5       -3.136   9.570  -2.549  0.00  0.00    -0.303 N 
ATOM     35  H   ALA A  5       -2.701  10.372  -2.982  0.00  0.00    +0.149 HD
ATOM     36  CA  ALA A  5       -3.746   9.800  -1.240  0.00  0.00    +0.156 C 
ATOM     37  CB  ALA A  5       -4.138  11.282  -1.124  0.00  0.00    +0.038 C 
ATOM     38  C   ALA A  5       -2.784   9.380  -0.116  0.00  0.00    +0.234 C 
ATOM     39  O   ALA A  5       -1.801  10.079   0.134  0.00  0.00    -0.274 OA
ATOM     40  N   ASP A  6       -3.085   8.240   0.524  0.00  0.00    -0.302 N 
ATOM     41  H   ASP A  6       -3.909   7.719   0.258  0.00  0.00    +0.150 HD
ATOM     42  CA  ASP A  6       -2.307   7.674   1.630  0.00  0.00    +0.169 C 
ATOM     43  C   ASP A  6       -2.489   6.148   1.704  0.00  0.00    +0.234 C 
ATOM     44  O   ASP A  6       -3.480   5.615   1.200  0.00  0.00    -0.274 OA
ATOM     45  N   GLY A  7       -1.517   5.478   2.344  0.00  0.00    -0.305 N 
ATOM     46  H   GLY A  7       -0.739   5.990   2.734  0.00  0.00    +0.149 HD
ATOM     47  CA  GLY A  7       -1.529   4.035   2.565  0.00  0.00    +0.200 C 
ATOM     48  C   GLY A  7       -2.155   3.726   3.928  0.00  0.00    +0.231 C 
ATOM     49  O   GLY A  7       -1.838   4.385   4.918  0.00  0.00    -0.274 OA
ATOM     50  N   UNK A  8       -3.002   2.680   3.954  0.00  0.00    -0.301 N 
ATOM     51  H   UNK A  8       -3.184   2.215   3.076  0.00  0.00    +0.150 HD
ATOM     52  C   UNK A  8       -3.682   2.066   5.105  0.00  0.00    +0.184 C 
ENDROOT
BRANCH  16  53
ATOM     53  N   UNK A  1        1.272   0.363   0.760  0.00  0.00    -0.299 N 
ATOM     54  H   UNK A  1        1.652   0.620   1.660  0.00  0.00    +0.150 HD
ATOM     55  C   UNK A  1        2.117   0.169  -0.266  0.00  0.00    +0.235 C 
ATOM     56  O   UNK A  1        1.771  -0.131  -1.409  0.00  0.00    -0.274 OA
BRANCH  55  57
ATOM     57  C   UNK A  1        3.613   0.377   0.051  0.00  0.00    +0.169 C 
BRANCH  57  58
ATOM     58  N   UNK A  1        4.437  -0.707  -0.493  0.00  0.00    -0.302 N 
ATOM     59  H   UNK A  1        5.147  -0.417  -1.149  0.00  0.00    +0.150 HD
ATOM     60  C   UNK A  1        4.335  -2.011  -0.180  0.00  0.00    +0.234 C 
ATOM     61  O   UNK A  1        3.508  -2.472   0.608  0.00  0.00    -0.274 OA
BRANCH  60  62
ATOM     62  C   UNK A  1        5.346  -2.951  -0.860  0.00  0.00    +0.168 C 
BRANCH  62  63
ATOM     63  N   UNK A  1        4.786  -4.300  -0.920  0.00  0.00    -0.302 N 
ATOM     64  H   UNK A  1        4.063  -4.500  -0.243  0.00  0.00    +0.150 HD
ATOM     65  C   UNK A  1        5.141  -5.238  -1.811  0.00  0.00    +0.234 C 
ATOM     66  O   UNK A  1        6.015  -5.081  -2.666  0.00  0.00    -0.274 OA
BRANCH  65  67
ATOM     67  C   UNK A  1        4.402  -6.589  -1.686  0.00  0.00    +0.163 C 
BRANCH  67  68
ATOM     68  N   UNK A  1        4.203  -7.256  -2.979  0.00  0.00    -0.300 N 
ATOM     69  H   UNK A  1        4.781  -8.067  -3.138  0.00  0.00    +0.150 HD
ATOM     70  C   UNK A  0        3.377  -6.849  -3.960  0.00  0.00    +0.238 C 
ATOM     71  O   UNK A  0        2.669  -5.845  -3.869  0.00  0.00    -0.271 OA
BRANCH  70  72
ATOM     72  C   UNK A  0        3.372  -7.756  -5.091  0.00  0.00    +0.071 C 
ATOM     73  C   UNK A  0        2.900  -7.501  -6.342  0.00  0.00    -0.038 C 
ATOM     74  C   UNK A  0        2.340  -6.150  -6.801  0.00  0.00    +0.044 C 
BRANCH  73  75
ATOM     75  C   UNK A  0        2.948  -8.561  -7.388  0.00  0.00    -0.022 A 
ATOM     76  C   UNK A  0        1.897  -8.692  -8.306  0.00  0.00    +0.008 A 
ATOM     77  C   UNK A  0        1.916  -9.694  -9.273  0.00  0.00    +0.004 A 
ATOM     78  C   UNK A  0        2.987 -10.586  -9.331  0.00  0.00    -0.047 A 
ATOM     79  C   UNK A  0        4.035 -10.475  -8.416  0.00  0.00    +0.004 A 
ATOM     80  C   UNK A  0        4.012  -9.473  -7.450  0.00  0.00    +0.008 A 
BRANCH  78  81
ATOM     81  C   UNK A  0        3.014 -11.675 -10.394  0.00  0.00    +0.035 C 
BRANCH  81  82
ATOM     82  C   UNK A  0        3.642 -11.197 -11.716  0.00  0.00    +0.005 C 
BRANCH  82  83
ATOM     83  C   UNK A  0        3.684 -12.299 -12.791  0.00  0.00    +0.000 C 
BRANCH  83  84
ATOM     84  C   UNK A  0        4.367 -11.875 -14.106  0.00  0.00    -0.003 C 
ATOM     85  C   UNK A  0        3.607 -10.796 -14.893  0.00  0.00    +0.004 C 
ENDBRANCH  83  84
ENDBRANCH  82  83
ENDBRANCH  81  82
ENDBRANCH  78  81
ENDBRANCH  73  75
ENDBRANCH  70  72
ENDBRANCH  67  68
BRANCH  67  86
ATOM     86  C   UNK A  1        5.144  -7.550  -0.726  0.00  0.00    +0.069 C 
BRANCH  86  87
ATOM     87  C   UNK A  1        4.414  -8.815  -0.377  0.00  0.00    -0.020 A 
ATOM     88  C   UNK A  1        4.360 -10.074  -1.118  0.00  0.00    +0.003 A 
ATOM     89  C   UNK A  1        4.962 -10.558  -2.304  0.00  0.00    +0.010 A 
ATOM     90  C   UNK A  1        4.699 -11.858  -2.781  0.00  0.00    +0.001 A 
ATOM     91  C   UNK A  1        3.824 -12.711  -2.080  0.00  0.00    +0.002 A 
ATOM     92  C   UNK A  1        3.208 -12.264  -0.897  0.00  0.00    +0.026 A 
ATOM     93  C   UNK A  1        3.476 -10.964  -0.433  0.00  0.00    +0.047 A 
ATOM     94  N   UNK A  1        3.035 -10.238   0.653  0.00  0.00    -0.360 N 
ATOM     95  H   UNK A  1        2.383 -10.563   1.353  0.00  0.00    +0.165 HD
ATOM     96  C   UNK A  1        3.578  -8.970   0.674  0.00  0.00    +0.087 A 
ENDBRANCH  86  87
ENDBRANCH  67  86
ENDBRANCH  65  67
ENDBRANCH  62  63
BRANCH  62  97
ATOM     97  C   UNK A  1        6.702  -2.976  -0.108  0.00  0.00    +0.127 C 
BRANCH  97  98
ATOM     98  C   UNK A  1        7.595  -1.773  -0.423  0.00  0.00    +0.213 C 
ATOM     99  N   UNK A  1        8.306  -1.820  -1.553  0.00  0.00    -0.329 N 
ATOM    100  H   UNK A  1        8.908  -1.050  -1.805  0.00  0.00    +0.145 HD
ATOM    101  H   UNK A  1        8.242  -2.621  -2.165  0.00  0.00    +0.145 HD
ATOM    102  O   UNK A  1        7.643  -0.816   0.345  0.00  0.00    -0.276 OA
ENDBRANCH  97  98
ENDBRANCH  62  97
ENDBRANCH  60  62
ENDBRANCH  57  58
BRANCH  57 103
ATOM    103  C   UNK A  1        4.119   1.751  -0.468  0.00  0.00    +0.152 C 
BRANCH 103 104
ATOM    104  C   UNK A  1        3.468   3.025   0.114  0.00  0.00    +0.307 C 
ATOM    105  O   UNK A  1        3.602   4.071  -0.557  0.00  0.00    -0.251 OA
BRANCH 104 106
ATOM    106  O   UNK A  1        2.982   2.986   1.268  0.00  0.00    -0.481 OA
ATOM    107  H   UNK A  1        2.909   2.167   1.718  0.00  0.00    +0.295 HD
ENDBRANCH 104 106
ENDBRANCH 103 104
ENDBRANCH  57 103
ENDBRANCH  55  57
ENDBRANCH  16  53
BRANCH   5 108
ATOM    108  C   UNK A  8       -3.054  -2.233   7.488  0.00  0.00    +0.026 C 
ATOM    109  C   UNK A  8       -4.123  -2.767   6.496  0.00  0.00    +0.010 C 
BRANCH 108 110
ATOM    110  C   UNK A  8       -3.759  -1.830   8.826  0.00  0.00    +0.126 C 
BRANCH 110 111
ATOM    111  C   UNK A  8       -2.908  -1.981  10.115  0.00  0.00    +0.305 C 
ATOM    112  O   UNK A  8       -1.680  -2.217  10.034  0.00  0.00    -0.251 OA
BRANCH 111 113
ATOM    113  O   UNK A  8       -3.517  -1.831  11.198  0.00  0.00    -0.481 OA
ATOM    114  H   UNK A  8       -4.438  -1.656  11.198  0.00  0.00    +0.295 HD
ENDBRANCH 111 113
ENDBRANCH 110 111
ENDBRANCH 108 110
ENDBRANCH   5 108
BRANCH  10 115
ATOM    115  C   UNK A  8        1.692  -2.075   4.566  0.00  0.00    +0.113 C 
BRANCH 115 116
ATOM    116  C   UNK A  8        3.050  -2.038   3.830  0.00  0.00    +0.167 C 
ATOM    117  O   UNK A  8        3.562  -0.950   3.557  0.00  0.00    -0.292 OA
BRANCH 116 118
ATOM    118  C   UNK A  8        3.743  -3.357   3.607  0.00  0.00    +0.038 A 
ATOM    119  C   UNK A  8        2.957  -4.507   3.416  0.00  0.00    +0.013 A 
ATOM    120  C   UNK A  8        3.540  -5.743   3.146  0.00  0.00    +0.001 A 
ATOM    121  C   UNK A  8        4.922  -5.855   3.050  0.00  0.00    +0.002 A 
ATOM    122  C   UNK A  8        5.722  -4.731   3.230  0.00  0.00    +0.023 A 
ATOM    123  C   UNK A  8        5.151  -3.484   3.505  0.00  0.00    +0.035 A 
BRANCH 123 124
ATOM    124  N   UNK A  8        6.031  -2.410   3.676  0.00  0.00    -0.357 N 
ATOM    125  H   UNK A  8        5.653  -1.480   3.794  0.00  0.00    +0.142 HD
ATOM    126  H   UNK A  8        7.020  -2.550   3.529  0.00  0.00    +0.142 HD
ENDBRANCH 123 124
ENDBRANCH 116 118
ENDBRANCH 115 116
ENDBRANCH  10 115
BRANCH  26 127
ATOM    127  C   UNK A  3       -1.115   3.445  -5.350  0.00  0.00    +0.030 C 
BRANCH 127 128
ATOM    128  C   UNK A  3       -0.943   3.644  -6.875  0.00  0.00    -0.017 C 
BRANCH 128 129
ATOM    129  C   UNK A  3       -1.396   2.439  -7.717  0.00  0.00    -0.086 C 
BRANCH 129 130
ATOM    130  N   UNK A  3       -2.925   2.327  -7.709  0.00  0.00    +0.378 N 
ATOM    131  H   UNK A  3       -3.257   2.195  -6.765  0.00  0.00    -0.090 HD
ATOM    132  H   UNK A  3       -3.335   3.172  -8.081  0.00  0.00    -0.090 HD
ATOM    133  H   UNK A  3       -3.221   1.544  -8.274  0.00  0.00    -0.090 HD
ENDBRANCH 129 130
ENDBRANCH 128 129
ENDBRANCH 127 128
ENDBRANCH  26 127
BRANCH  31 134
ATOM    134  CB  ASP A  4       -3.153   8.617  -5.680  0.00  0.00    +0.152 C 
BRANCH 134 135
ATOM    135  CG  ASP A  4       -2.509   8.505  -7.077  0.00  0.00    +0.307 C 
ATOM    136  OD1 ASP A  4       -3.297   8.397  -8.043  0.00  0.00    -0.251 OA
BRANCH 135 137
ATOM    137  OD2 ASP A  4       -1.273   8.664  -7.189  0.00  0.00    -0.481 OA
ATOM    138  HD2 ASP A  4       -0.739   8.737  -6.422  0.00  0.00    +0.295 HD
ENDBRANCH 135 137
ENDBRANCH 134 135
ENDBRANCH  31 134
BRANCH  42 139
ATOM    139  CB  ASP A  6       -2.555   8.363   3.007  0.00  0.00    +0.152 C 
BRANCH 139 140
ATOM    140  CG  ASP A  6       -4.005   8.704   3.418  0.00  0.00    +0.307 C 
ATOM    141  OD1 ASP A  6       -4.130   9.526   4.352  0.00  0.00    -0.251 OA
BRANCH 140 142
ATOM    142  OD2 ASP A  6       -4.955   8.061   2.917  0.00  0.00    -0.481 OA
ATOM    143  HD2 ASP A  6       -4.795   7.458   2.218  0.00  0.00    +0.295 HD
ENDBRANCH 140 142
ENDBRANCH 139 140
ENDBRANCH  42 139
BRANCH  52 144
ATOM    144  C   UNK A  8       -4.502   3.086   5.929  0.00  0.00    +0.187 C 
BRANCH 144 145
ATOM    145  O   UNK A  8       -5.617   3.532   5.185  0.00  0.00    -0.393 OA
ATOM    146  H   UNK A  8       -5.306   4.130   4.500  0.00  0.00    +0.209 HD
ENDBRANCH 144 145
ENDBRANCH  52 144
TORSDOF 40
