REMARK  Name = DB12829
REMARK                            x       y       z     vdW  Elec       q    Type
REMARK                         _______ _______ _______ _____ _____    ______ ____
ROOT
ATOM      1  C   LIG    1       -0.008   0.143  -0.066  0.00  0.00    +0.033 A 
ATOM      2  C   LIG    1       -0.705   1.360  -0.096  0.00  0.00    +0.024 A 
ATOM      3  C   LIG    1       -2.097   1.367  -0.071  0.00  0.00    +0.011 A 
ATOM      4  C   LIG    1       -2.820   0.167  -0.012  0.00  0.00    -0.005 A 
ATOM      5  C   LIG    1       -2.115  -1.041   0.023  0.00  0.00    +0.011 A 
ATOM      6  C   LIG    1       -0.723  -1.053  -0.001  0.00  0.00    +0.024 A 
ENDROOT
BRANCH   1   7
ATOM      7  N   LIG    1        1.395   0.018  -0.081  0.00  0.00    -0.286 N 
ATOM      8  H   LIG    1        1.727  -0.927   0.042  0.00  0.00    +0.155 HD
ATOM      9  C   LIG    1        2.345   0.959  -0.271  0.00  0.00    +0.214 C 
ATOM     10  O   LIG    1        2.140   2.150  -0.498  0.00  0.00    -0.276 OA
ATOM     11  C   LIG    1        3.785   0.461  -0.204  0.00  0.00    +0.109 C 
ENDBRANCH   1   7
BRANCH   4  12
ATOM     12  C   LIG    1       -4.290   0.139   0.014  0.00  0.00    +0.138 C 
ATOM     13  N   LIG    1       -5.015   1.184  -0.002  0.00  0.00    -0.188 NA
BRANCH  13  14
ATOM     14  N   LIG    1       -6.337   0.909   0.020  0.00  0.00    -0.219 N 
ATOM     15  H   LIG    1       -6.573  -0.072   0.046  0.00  0.00    +0.176 HD
BRANCH  14  16
ATOM     16  C   LIG    1       -7.332   1.845   0.013  0.00  0.00    +0.147 C 
ATOM     17  S   LIG    1       -7.157   3.506  -0.015  0.00  0.00    -0.017 S 
BRANCH  16  18
ATOM     18  N   LIG    1       -8.575   1.318   0.028  0.00  0.00    -0.339 N 
ATOM     19  H   LIG    1       -9.377   1.933   0.024  0.00  0.00    +0.144 HD
ATOM     20  H   LIG    1       -8.699   0.317   0.036  0.00  0.00    +0.144 HD
ENDBRANCH  16  18
ENDBRANCH  14  16
ENDBRANCH  13  14
ENDBRANCH   4  12
TORSDOF 5
