REMARK  Name = DB12117
REMARK                            x       y       z     vdW  Elec       q    Type
REMARK                         _______ _______ _______ _____ _____    ______ ____
ROOT
ATOM      1  C   LIG    1        1.396   0.215   0.020  0.00  0.00    +0.086 C 
ENDROOT
BRANCH   1   2
ATOM      2  C   LIG    1        2.007   0.794  -1.282  0.00  0.00    -0.019 A 
ATOM      3  C   LIG    1        3.346   0.513  -1.631  0.00  0.00    +0.045 A 
ATOM      4 CL   LIG    1        4.367  -0.478  -0.643  0.00  0.00    -0.083 Cl
ATOM      5  C   LIG    1        3.898   1.040  -2.800  0.00  0.00    +0.020 A 
ATOM      6  C   LIG    1        3.138   1.851  -3.637  0.00  0.00    +0.001 A 
ATOM      7  C   LIG    1        1.818   2.141  -3.306  0.00  0.00    +0.000 A 
ATOM      8  C   LIG    1        1.261   1.619  -2.140  0.00  0.00    +0.006 A 
ENDBRANCH   1   2
BRANCH   1   9
ATOM      9  C   LIG    1        1.939   0.914   1.277  0.00  0.00    -0.037 A 
ATOM     10  C   LIG    1        2.454   0.151   2.332  0.00  0.00    +0.006 A 
ATOM     11  C   LIG    1        2.943   0.776   3.475  0.00  0.00    +0.020 A 
ATOM     12  C   LIG    1        2.918   2.166   3.568  0.00  0.00    +0.041 A 
ATOM     13 CL   LIG    1        3.522   2.940   4.987  0.00  0.00    -0.084 Cl
ATOM     14  C   LIG    1        2.408   2.935   2.524  0.00  0.00    +0.020 A 
ATOM     15  C   LIG    1        1.919   2.310   1.381  0.00  0.00    +0.006 A 
ENDBRANCH   1   9
BRANCH   1  17
ATOM     16  C   LIG    1       -0.559  -0.955   1.247  0.00  0.00    +0.046 C 
ATOM     17  C   LIG    1       -0.155  -0.048   0.067  0.00  0.00    +0.126 C 
ATOM     18 CL   LIG    1       -1.093   1.467   0.254  0.00  0.00    -0.100 Cl
ATOM     19 CL   LIG    1       -0.687  -0.888  -1.421  0.00  0.00    -0.100 Cl
ENDBRANCH   1  17
TORSDOF 3
