REMARK  Name = DB12777
REMARK                            x       y       z     vdW  Elec       q    Type
REMARK                         _______ _______ _______ _____ _____    ______ ____
ROOT
ATOM      1  C   LIG    1        2.801  -1.503   1.602  0.00  0.00    +0.187 C 
ATOM      2  N   LIG    1        2.204  -0.522   2.504  0.00  0.00    -0.300 N 
ATOM      3  H   LIG    1        2.263  -0.780   3.478  0.00  0.00    +0.150 HD
ATOM      4  C   LIG    1        1.499   0.583   2.211  0.00  0.00    +0.234 C 
ATOM      5  O   LIG    1        0.909   1.187   3.099  0.00  0.00    -0.274 OA
ATOM      6  C   LIG    1        1.409   1.122   0.763  0.00  0.00    +0.159 C 
ATOM      7  N   LIG    1        0.283   2.069   0.636  0.00  0.00    -0.302 N 
ATOM      8  H   LIG    1       -0.564   1.653   0.279  0.00  0.00    +0.150 HD
ATOM      9  C   LIG    1        0.208   3.345   1.076  0.00  0.00    +0.234 C 
ATOM     10  O   LIG    1        1.145   4.003   1.525  0.00  0.00    -0.274 OA
ATOM     11  C   LIG    1       -1.190   3.981   1.060  0.00  0.00    +0.163 C 
ATOM     12  N   LIG    1       -2.135   3.163   1.821  0.00  0.00    -0.302 N 
ATOM     13  H   LIG    1       -2.684   2.513   1.278  0.00  0.00    +0.150 HD
ATOM     14  C   LIG    1       -2.213   3.117   3.164  0.00  0.00    +0.234 C 
ATOM     15  O   LIG    1       -1.623   3.883   3.923  0.00  0.00    -0.274 OA
ATOM     16  C   LIG    1       -3.107   2.005   3.729  0.00  0.00    +0.163 C 
ATOM     17  N   LIG    1       -2.350   0.797   4.083  0.00  0.00    -0.302 N 
ATOM     18  H   LIG    1       -2.476   0.069   3.397  0.00  0.00    +0.150 HD
ATOM     19  C   LIG    1       -1.478   0.490   5.066  0.00  0.00    +0.234 C 
ATOM     20  O   LIG    1       -0.921  -0.608   5.054  0.00  0.00    -0.274 OA
ATOM     21  C   LIG    1       -1.200   1.423   6.268  0.00  0.00    +0.163 C 
ATOM     22  N   LIG    1       -2.058   0.873   7.320  0.00  0.00    -0.304 N 
ATOM     23  H   LIG    1       -2.531   0.027   7.034  0.00  0.00    +0.149 HD
ATOM     24  C   LIG    1       -2.320   1.307   8.566  0.00  0.00    +0.214 C 
ATOM     25  O   LIG    1       -3.105   0.678   9.275  0.00  0.00    -0.276 OA
ATOM     26  C   LIG    1       -1.665   2.576   9.143  0.00  0.00    +0.097 C 
ATOM     27  C   LIG    1       -0.943   2.345  10.503  0.00  0.00    +0.028 C 
ATOM     28  C   LIG    1        0.347   1.485  10.505  0.00  0.00    +0.104 C 
ATOM     29  N   LIG    1        0.141   0.126   9.998  0.00  0.00    -0.315 N 
ATOM     30  H   LIG    1       -0.799  -0.234  10.080  0.00  0.00    +0.149 HD
ATOM     31  C   LIG    1        1.070  -0.656   9.419  0.00  0.00    +0.213 C 
ATOM     32  O   LIG    1        2.258  -0.344   9.330  0.00  0.00    -0.276 OA
ATOM     33  C   LIG    1        0.540  -1.977   8.833  0.00  0.00    +0.097 C 
ATOM     34  C   LIG    1        1.541  -2.823   8.008  0.00  0.00    +0.028 C 
ATOM     35  C   LIG    1        2.069  -2.153   6.717  0.00  0.00    +0.109 C 
ATOM     36  N   LIG    1        2.933  -3.041   5.915  0.00  0.00    -0.291 N 
ATOM     37  C   LIG    1        2.606  -3.532   4.682  0.00  0.00    +0.237 C 
ATOM     38  O   LIG    1        3.336  -4.311   4.063  0.00  0.00    -0.274 OA
ATOM     39  C   LIG    1        1.286  -3.104   3.985  0.00  0.00    +0.163 C 
ATOM     40  N   LIG    1        1.297  -3.364   2.535  0.00  0.00    -0.302 N 
ATOM     41  H   LIG    1        0.753  -4.181   2.297  0.00  0.00    +0.150 HD
ATOM     42  C   LIG    1        1.958  -2.802   1.496  0.00  0.00    +0.236 C 
ATOM     43  O   LIG    1        1.862  -3.300   0.375  0.00  0.00    -0.274 OA
ENDROOT
BRANCH   1  45
ATOM     44  C   LIG    1        4.948  -2.975   1.244  0.00  0.00    +0.040 C 
ATOM     45  C   LIG    1        4.260  -1.837   2.022  0.00  0.00    +0.141 C 
BRANCH  45  46
ATOM     46  O   LIG    1        5.056  -0.677   1.877  0.00  0.00    -0.390 OA
ATOM     47  H   LIG    1        5.187  -0.513   0.941  0.00  0.00    +0.210 HD
ENDBRANCH  45  46
ENDBRANCH   1  45
BRANCH   6  48
ATOM     48  C   LIG    1        2.751   1.750   0.297  0.00  0.00    +0.032 C 
BRANCH  48  49
ATOM     49  C   LIG    1        2.736   2.257  -1.160  0.00  0.00    +0.000 C 
BRANCH  49  50
ATOM     50  C   LIG    1        3.887   3.217  -1.502  0.00  0.00    -0.019 C 
BRANCH  50  51
ATOM     51  C   LIG    1        3.748   4.594  -0.822  0.00  0.00    -0.086 C 
BRANCH  51  52
ATOM     52  N   LIG    1        4.791   5.534  -1.266  0.00  0.00    +0.378 N 
ATOM     53  H   LIG    1        5.701   5.165  -1.031  0.00  0.00    -0.090 HD
ATOM     54  H   LIG    1        4.728   5.665  -2.265  0.00  0.00    -0.090 HD
ATOM     55  H   LIG    1        4.660   6.423  -0.802  0.00  0.00    -0.090 HD
ENDBRANCH  51  52
ENDBRANCH  50  51
ENDBRANCH  49  50
ENDBRANCH  48  49
ENDBRANCH   6  48
BRANCH  11  56
ATOM     56  C   LIG    1       -1.727   4.223  -0.368  0.00  0.00    +0.069 C 
BRANCH  56  57
ATOM     57  C   LIG    1       -0.789   4.882  -1.341  0.00  0.00    -0.020 A 
ATOM     58  C   LIG    1       -0.159   6.198  -1.258  0.00  0.00    +0.003 A 
ATOM     59  C   LIG    1       -0.197   7.263  -0.326  0.00  0.00    +0.010 A 
ATOM     60  C   LIG    1        0.555   8.438  -0.528  0.00  0.00    +0.001 A 
ATOM     61  C   LIG    1        1.366   8.580  -1.671  0.00  0.00    +0.002 A 
ATOM     62  C   LIG    1        1.427   7.542  -2.619  0.00  0.00    +0.026 A 
ATOM     63  C   LIG    1        0.674   6.373  -2.406  0.00  0.00    +0.047 A 
ATOM     64  N   LIG    1        0.527   5.202  -3.118  0.00  0.00    -0.360 N 
ATOM     65  H   LIG    1        0.976   4.985  -3.996  0.00  0.00    +0.165 HD
ATOM     66  C   LIG    1       -0.330   4.326  -2.486  0.00  0.00    +0.087 A 
ENDBRANCH  56  57
ENDBRANCH  11  56
BRANCH  16  67
ATOM     67  C   LIG    1       -4.120   2.475   4.799  0.00  0.00    +0.069 C 
BRANCH  67  68
ATOM     68  C   LIG    1       -5.179   1.476   5.172  0.00  0.00    -0.020 A 
ATOM     69  C   LIG    1       -6.187   0.850   4.316  0.00  0.00    +0.003 A 
ATOM     70  C   LIG    1       -6.532   0.947   2.946  0.00  0.00    +0.010 A 
ATOM     71  C   LIG    1       -7.582   0.182   2.399  0.00  0.00    +0.001 A 
ATOM     72  C   LIG    1       -8.321  -0.701   3.211  0.00  0.00    +0.002 A 
ATOM     73  C   LIG    1       -8.010  -0.818   4.578  0.00  0.00    +0.026 A 
ATOM     74  C   LIG    1       -6.960  -0.051   5.112  0.00  0.00    +0.047 A 
ATOM     75  N   LIG    1       -6.425   0.066   6.377  0.00  0.00    -0.360 N 
ATOM     76  H   LIG    1       -6.741  -0.429   7.199  0.00  0.00    +0.165 HD
ATOM     77  C   LIG    1       -5.384   0.968   6.408  0.00  0.00    +0.087 A 
ENDBRANCH  67  68
ENDBRANCH  16  67
BRANCH  21  78
ATOM     78  C   LIG    1        0.298   1.381   6.710  0.00  0.00    +0.067 C 
BRANCH  78  79
ATOM     79  C   LIG    1        1.306   2.167   5.888  0.00  0.00    -0.045 A 
ATOM     80  C   LIG    1        1.069   3.514   5.543  0.00  0.00    +0.004 A 
ATOM     81  C   LIG    1        2.023   4.230   4.832  0.00  0.00    +0.000 A 
ATOM     82  C   LIG    1        3.232   3.639   4.491  0.00  0.00    +0.000 A 
ATOM     83  C   LIG    1        3.509   2.334   4.880  0.00  0.00    +0.000 A 
ATOM     84  C   LIG    1        2.567   1.603   5.590  0.00  0.00    +0.004 A 
ENDBRANCH  78  79
ENDBRANCH  21  78
BRANCH  36  85
ATOM     85  C   LIG    1        4.304  -3.257   6.430  0.00  0.00    +0.203 C 
BRANCH  85  86
ATOM     86  C   LIG    1        5.266  -2.102   6.082  0.00  0.00    +0.228 C 
ATOM     87  N   LIG    1        6.542  -2.278   6.428  0.00  0.00    -0.328 N 
ATOM     88  H   LIG    1        7.222  -1.559   6.229  0.00  0.00    +0.145 HD
ATOM     89  H   LIG    1        6.835  -3.127   6.888  0.00  0.00    +0.145 HD
ATOM     90  O   LIG    1        4.887  -1.073   5.522  0.00  0.00    -0.274 OA
ENDBRANCH  85  86
ENDBRANCH  36  85
BRANCH  39  91
ATOM     91  C   LIG    1        0.049  -3.834   4.570  0.00  0.00    +0.067 C 
BRANCH  91  92
ATOM     92  C   LIG    1        0.045  -5.355   4.492  0.00  0.00    -0.045 A 
ATOM     93  C   LIG    1        0.654  -6.129   5.503  0.00  0.00    +0.004 A 
ATOM     94  C   LIG    1        0.723  -7.510   5.377  0.00  0.00    +0.000 A 
ATOM     95  C   LIG    1        0.214  -8.136   4.246  0.00  0.00    +0.000 A 
ATOM     96  C   LIG    1       -0.358  -7.386   3.227  0.00  0.00    +0.000 A 
ATOM     97  C   LIG    1       -0.435  -6.004   3.333  0.00  0.00    +0.004 A 
ENDBRANCH  91  92
ENDBRANCH  39  91
TORSDOF 17
