REMARK  Name = DB12071
REMARK                            x       y       z     vdW  Elec       q    Type
REMARK                         _______ _______ _______ _____ _____    ______ ____
ROOT
ATOM      1  C   LIG    1        0.992  -1.308  -2.687  0.00  0.00    +0.001 A 
ATOM      2  C   LIG    1        0.710  -1.872  -1.450  0.00  0.00    +0.006 A 
ATOM      3  C   LIG    1        0.295  -1.088  -0.369  0.00  0.00    -0.023 A 
ATOM      4  C   LIG    1       -0.083  -1.763   0.963  0.00  0.00    +0.025 C 
ATOM      5  C   LIG    1       -0.589  -0.786   2.054  0.00  0.00    +0.014 C 
ATOM      6  C   LIG    1        0.064   0.588   1.836  0.00  0.00    +0.109 C 
ATOM      7  N   LIG    1       -0.262   1.107   0.506  0.00  0.00    -0.331 N 
ATOM      8  C   LIG    1       -1.577   1.747   0.408  0.00  0.00    +0.086 C 
ATOM      9  C   LIG    1       -1.549   3.089  -0.344  0.00  0.00    -0.063 C 
ATOM     10  N   LIG    1       -1.134   2.944  -1.818  0.00  0.00    +0.383 N 
ATOM     11  H   LIG    1       -1.189   3.858  -2.245  0.00  0.00    -0.085 HD
ATOM     12  H   LIG    1       -1.799   2.351  -2.294  0.00  0.00    -0.085 HD
ATOM     13  C   LIG    1        0.283   2.393  -2.057  0.00  0.00    -0.045 C 
ATOM     14  C   LIG    1        0.431   0.889  -1.824  0.00  0.00    -0.043 A 
ATOM     15  C   LIG    1       -0.221  -1.430   3.409  0.00  0.00    +0.006 C 
ATOM     16  C   LIG    1        0.537  -2.728   3.096  0.00  0.00    +0.001 C 
ATOM     17  C   LIG    1        1.016  -2.580   1.653  0.00  0.00    +0.008 C 
ATOM     18  C   LIG    1        0.195   0.318  -0.552  0.00  0.00    +0.034 A 
ATOM     19  C   LIG    1        0.846   0.061  -2.871  0.00  0.00    +0.003 A 
ENDROOT
TORSDOF 0
