REMARK  Name = DB12099
REMARK                            x       y       z     vdW  Elec       q    Type
REMARK                         _______ _______ _______ _____ _____    ______ ____
ROOT
ATOM      1  C   LIG    1        1.623   0.110  -0.200  0.00  0.00    +0.099 C 
ENDROOT
BRANCH   1   2
ATOM      2  C   LIG    1        1.978   0.558  -1.650  0.00  0.00    +0.308 C 
ATOM      3  O   LIG    1        1.392   0.002  -2.608  0.00  0.00    -0.251 OA
BRANCH   2   4
ATOM      4  O   LIG    1        2.847   1.450  -1.777  0.00  0.00    -0.480 OA
ATOM      5  H   LIG    1        3.248   1.825  -1.018  0.00  0.00    +0.295 HD
ENDBRANCH   2   4
ENDBRANCH   1   2
BRANCH   1   6
ATOM      6  C   LIG    1        0.105   0.289   0.105  0.00  0.00    +0.040 C 
BRANCH   6  11
ATOM      7  N   LIG    1       -0.727   3.968  -0.095  0.00  0.00    -0.278 NA
ATOM      8  C   LIG    1       -1.962   3.357  -0.102  0.00  0.00    +0.158 C 
ATOM      9  N   LIG    1       -1.763   1.998  -0.025  0.00  0.00    -0.290 NA
ATOM     10  H   LIG    1       -2.496   1.303  -0.018  0.00  0.00    +0.124 HD
ATOM     11  C   LIG    1       -0.407   1.720   0.025  0.00  0.00    +0.058 C 
ATOM     12  C   LIG    1        0.227   2.963  -0.009  0.00  0.00    +0.099 C 
BRANCH   7  13
ATOM     13  C   LIG    1       -0.468   5.401  -0.162  0.00  0.00    +0.086 C 
BRANCH  13  15
ATOM     14  C   LIG    1       -0.855   5.769   2.373  0.00  0.00    +0.005 C 
ATOM     15  C   LIG    1        0.086   5.949   1.170  0.00  0.00    +0.012 C 
ENDBRANCH  13  15
ENDBRANCH   7  13
ENDBRANCH   6  11
ENDBRANCH   1   6
BRANCH   1  16
ATOM     16  C   LIG    1        2.078  -1.355   0.061  0.00  0.00    +0.013 C 
BRANCH  16  17
ATOM     17  C   LIG    1        3.595  -1.608  -0.077  0.00  0.00    -0.019 C 
BRANCH  17  18
ATOM     18  C   LIG    1        3.975  -3.066   0.226  0.00  0.00    -0.086 C 
BRANCH  18  19
ATOM     19  N   LIG    1        5.485  -3.258   0.046  0.00  0.00    +0.378 N 
ATOM     20  H   LIG    1        5.752  -3.035  -0.902  0.00  0.00    -0.090 HD
ATOM     21  H   LIG    1        5.990  -2.653   0.677  0.00  0.00    -0.090 HD
ATOM     22  H   LIG    1        5.740  -4.216   0.239  0.00  0.00    -0.090 HD
ENDBRANCH  18  19
ENDBRANCH  17  18
ENDBRANCH  16  17
ENDBRANCH   1  16
TORSDOF 10
