REMARK  Name = DB12740
REMARK                            x       y       z     vdW  Elec       q    Type
REMARK                         _______ _______ _______ _____ _____    ______ ____
ROOT
ATOM      1  N   LIG    1       -2.776  -2.456   0.251  0.00  0.00    -0.252 N 
ATOM      2  C   LIG    1       -4.134  -2.524   0.390  0.00  0.00    +0.238 C 
ATOM      3  O   LIG    1       -4.798  -3.562   0.439  0.00  0.00    -0.273 OA
ATOM      4  C   LIG    1       -4.807  -1.119   0.422  0.00  0.00    +0.199 C 
ATOM      5  N   LIG    1       -4.185  -0.159  -0.505  0.00  0.00    -0.318 N 
ATOM      6  H   LIG    1       -4.683   0.714  -0.605  0.00  0.00    +0.148 HD
ATOM      7  C   LIG    1       -2.784  -0.108  -0.442  0.00  0.00    +0.160 A 
ATOM      8  N   LIG    1       -2.158   1.051  -0.768  0.00  0.00    -0.235 NA
ATOM      9  C   LIG    1       -0.800   1.050  -0.724  0.00  0.00    +0.141 A 
ATOM     10  C   LIG    1       -0.070  -0.095  -0.374  0.00  0.00    +0.093 A 
ATOM     11  N   LIG    1       -0.713  -1.253  -0.054  0.00  0.00    -0.227 NA
ATOM     12  C   LIG    1       -2.077  -1.274  -0.109  0.00  0.00    +0.168 A 
ENDROOT
BRANCH  10  13
ATOM     13  C   LIG    1        1.419  -0.117  -0.295  0.00  0.00    +0.023 A 
ATOM     14  C   LIG    1        2.256   0.362  -1.324  0.00  0.00    +0.048 A 
ATOM     15  C   LIG    1        1.725   0.892  -2.649  0.00  0.00    +0.066 C 
ATOM     16  N   LIG    1        3.611   0.364  -1.230  0.00  0.00    -0.248 NA
ATOM     17  C   LIG    1        4.200  -0.125  -0.105  0.00  0.00    +0.110 A 
ATOM     18  C   LIG    1        3.439  -0.631   0.954  0.00  0.00    +0.032 A 
ATOM     19  C   LIG    1        2.049  -0.624   0.850  0.00  0.00    +0.014 A 
BRANCH  17  20
ATOM     20  C   LIG    1        5.703  -0.088  -0.063  0.00  0.00    +0.199 A 
ATOM     21  N   LIG    1        6.443   0.147  -1.136  0.00  0.00    -0.151 NA
ATOM     22  N   LIG    1        7.678   0.084  -0.643  0.00  0.00    -0.265 N 
ATOM     23  H   LIG    1        8.510   0.221  -1.200  0.00  0.00    +0.190 HD
ATOM     24  C   LIG    1        7.623  -0.185   0.692  0.00  0.00    +0.216 A 
ATOM     25  N   LIG    1        6.377  -0.297   1.067  0.00  0.00    -0.214 NA
ENDBRANCH  17  20
ENDBRANCH  10  13
BRANCH   1  27
ATOM     26  C   LIG    1       -1.462  -4.005   1.737  0.00  0.00    +0.025 C 
ATOM     27  C   LIG    1       -2.015  -3.724   0.331  0.00  0.00    +0.112 C 
ENDBRANCH   1  27
TORSDOF 3
