REMARK  Name = DB12593
REMARK                            x       y       z     vdW  Elec       q    Type
REMARK                         _______ _______ _______ _____ _____    ______ ____
ROOT
ATOM      1  C   LIG    1        0.084   2.515  -0.028  0.00  0.00    +0.149 C 
ATOM      2  N   LIG    1       -0.563   1.199  -0.055  0.00  0.00    -0.340 N 
ATOM      3  C   LIG    1       -1.919   0.962   0.059  0.00  0.00    +0.101 A 
ATOM      4  C   LIG    1       -2.982   1.973   0.190  0.00  0.00    +0.205 C 
ATOM      5  C   LIG    1       -4.311   1.365   0.297  0.00  0.00    +0.080 C 
ATOM      6  C   LIG    1       -4.573   0.028   0.273  0.00  0.00    +0.081 C 
ATOM      7  C   LIG    1       -3.497  -0.999   0.131  0.00  0.00    +0.210 C 
ATOM      8  O   LIG    1       -3.695  -2.217   0.101  0.00  0.00    -0.285 OA
ATOM      9  O   LIG    1       -2.808   3.191   0.206  0.00  0.00    -0.286 OA
ATOM     10  C   LIG    1       -2.143  -0.416   0.028  0.00  0.00    +0.058 A 
ATOM     11  C   LIG    1       -0.894  -1.054  -0.128  0.00  0.00    +0.014 A 
ATOM     12  C   LIG    1        0.068  -0.034  -0.159  0.00  0.00    +0.048 A 
ENDROOT
BRANCH   6  13
ATOM     13  N   LIG    1       -5.851  -0.547   0.376  0.00  0.00    -0.324 N 
ATOM     14  C   LIG    1       -6.906  -0.024   1.237  0.00  0.00    +0.124 C 
ATOM     15  C   LIG    1       -7.041   0.018  -0.250  0.00  0.00    +0.124 C 
ENDBRANCH   6  13
BRANCH  12  16
ATOM     16  C   LIG    1        1.517  -0.110  -0.296  0.00  0.00    +0.024 C 
ATOM     17  C   LIG    1        2.347  -0.911   0.393  0.00  0.00    +0.003 C 
BRANCH  17  18
ATOM     18  C   LIG    1        3.850  -0.956   0.208  0.00  0.00    +0.183 C 
BRANCH  18  19
ATOM     19  O   LIG    1        4.463  -0.705   1.454  0.00  0.00    -0.391 OA
ATOM     20  H   LIG    1        5.415  -0.767   1.345  0.00  0.00    +0.210 HD
ENDBRANCH  18  19
ENDBRANCH  17  18
ENDBRANCH  12  16
BRANCH  11  21
ATOM     21  C   LIG    1       -0.637  -2.549  -0.232  0.00  0.00    +0.193 C 
BRANCH  21  22
ATOM     22  O   LIG    1       -0.904  -2.981  -1.549  0.00  0.00    -0.390 OA
ATOM     23  H   LIG    1       -0.774  -3.932  -1.592  0.00  0.00    +0.210 HD
ENDBRANCH  21  22
ENDBRANCH  11  21
TORSDOF 6
