REMARK  Name = DB12787
REMARK                            x       y       z     vdW  Elec       q    Type
REMARK                         _______ _______ _______ _____ _____    ______ ____
ROOT
ATOM      1  C   LIG    1        1.546   0.043  -0.013  0.00  0.00    +0.071 C 
ATOM      2  C   LIG    1        2.175  -1.402  -0.007  0.00  0.00    -0.000 C 
ATOM      3  C   LIG    1        3.656  -1.327   0.503  0.00  0.00    +0.014 C 
ATOM      4  C   LIG    1        1.407  -2.512   0.772  0.00  0.00    +0.010 C 
ATOM      5  C   LIG    1        1.986  -3.922   0.494  0.00  0.00    +0.005 C 
ATOM      6  C   LIG    1        1.997  -4.271  -1.028  0.00  0.00    -0.000 C 
ATOM      7  C   LIG    1        2.635  -5.664  -1.343  0.00  0.00    +0.019 C 
ATOM      8  C   LIG    1        2.033  -6.897  -0.603  0.00  0.00    +0.016 C 
ATOM      9  C   LIG    1        0.820  -7.548  -1.295  0.00  0.00    +0.079 C 
ATOM     10  C   LIG    1        1.128  -7.878  -2.760  0.00  0.00    +0.156 C 
ATOM     11  O   LIG    1        0.639  -8.850  -3.331  0.00  0.00    -0.293 OA
ATOM     12  C   LIG    1        1.925  -6.890  -3.471  0.00  0.00    +0.045 C 
ATOM     13  C   LIG    1        2.606  -5.886  -2.873  0.00  0.00    -0.063 C 
ATOM     14  C   LIG    1        3.348  -4.814  -3.662  0.00  0.00    +0.031 C 
ATOM     15  C   LIG    1        2.691  -3.457  -3.353  0.00  0.00    +0.008 C 
ATOM     16  C   LIG    1        2.722  -3.142  -1.841  0.00  0.00    -0.003 C 
ATOM     17  C   LIG    1        2.069  -1.770  -1.509  0.00  0.00    +0.001 C 
ATOM     18  C   LIG    1        2.518  -0.511  -2.256  0.00  0.00    +0.007 C 
ATOM     19  C   LIG    1        2.098   0.653  -1.338  0.00  0.00    +0.035 C 
ENDROOT
BRANCH   1  21
ATOM     20  C   LIG    1       -0.706   1.450  -0.005  0.00  0.00    +0.007 C 
ATOM     21  C   LIG    1       -0.021   0.066   0.042  0.00  0.00    +0.032 C 
ENDBRANCH   1  21
BRANCH   1  22
ATOM     22  O   LIG    1        1.921   0.827   1.112  0.00  0.00    -0.388 OA
ATOM     23  H   LIG    1        2.879   0.874   1.144  0.00  0.00    +0.210 HD
ENDBRANCH   1  22
TORSDOF 2
