REMARK  Name = DB12254
REMARK                            x       y       z     vdW  Elec       q    Type
REMARK                         _______ _______ _______ _____ _____    ______ ____
ROOT
ATOM      1  C   LIG    1       -0.041   0.205   0.166  0.00  0.00    +0.088 A 
ATOM      2  C   LIG    1       -0.775  -0.952   0.510  0.00  0.00    +0.145 A 
ATOM      3  N   LIG    1       -2.136  -0.956   0.532  0.00  0.00    -0.238 NA
ATOM      4  C   LIG    1       -2.802   0.184   0.228  0.00  0.00    +0.113 A 
ATOM      5  C   LIG    1       -2.153   1.366  -0.111  0.00  0.00    +0.022 A 
ATOM      6  C   LIG    1       -0.759   1.371  -0.141  0.00  0.00    +0.029 A 
ENDROOT
BRANCH   1   7
ATOM      7  N   LIG    1        1.367   0.180   0.133  0.00  0.00    -0.213 N 
ATOM      8  H   LIG    1        1.829  -0.690   0.352  0.00  0.00    +0.174 HD
BRANCH   7   9
ATOM      9  S   LIG    1        2.386   1.584  -0.240  0.00  0.00    +0.072 S 
ATOM     10  O   LIG    1        2.103   1.961  -1.630  0.00  0.00    -0.150 OA
ATOM     11  O   LIG    1        2.192   2.551   0.847  0.00  0.00    -0.150 OA
BRANCH   9  15
ATOM     12  C   LIG    1        6.667  -0.038  -0.008  0.00  0.00    +0.120 A 
ATOM     13  C   LIG    1        6.026   0.441   1.147  0.00  0.00    +0.047 A 
ATOM     14  C   LIG    1        4.729   0.941   1.074  0.00  0.00    +0.032 A 
ATOM     15  C   LIG    1        4.063   0.967  -0.152  0.00  0.00    +0.109 A 
ATOM     16  C   LIG    1        4.690   0.491  -1.304  0.00  0.00    +0.032 A 
ATOM     17  C   LIG    1        5.988  -0.006  -1.228  0.00  0.00    +0.047 A 
BRANCH  12  19
ATOM     18  C   LIG    1        8.691  -0.625   1.181  0.00  0.00    +0.277 C 
ATOM     19  O   LIG    1        7.948  -0.554  -0.031  0.00  0.00    -0.495 OA
ENDBRANCH  12  19
ENDBRANCH   9  15
ENDBRANCH   7   9
ENDBRANCH   1   7
BRANCH   2  20
ATOM     20  N   LIG    1       -0.094  -2.150   0.816  0.00  0.00    -0.298 N 
ATOM     21  H   LIG    1        0.902  -2.095   0.668  0.00  0.00    +0.154 HD
BRANCH  20  22
ATOM     22  C   LIG    1       -0.516  -3.402   1.301  0.00  0.00    +0.033 A 
ATOM     23  C   LIG    1       -1.699  -3.582   2.030  0.00  0.00    +0.027 A 
ATOM     24  C   LIG    1       -2.050  -4.848   2.494  0.00  0.00    +0.047 A 
ATOM     25  C   LIG    1       -1.215  -5.934   2.240  0.00  0.00    +0.117 A 
ATOM     26  C   LIG    1       -0.029  -5.762   1.529  0.00  0.00    +0.047 A 
ATOM     27  C   LIG    1        0.320  -4.496   1.065  0.00  0.00    +0.027 A 
BRANCH  25  28
ATOM     28  O   LIG    1       -1.559  -7.179   2.697  0.00  0.00    -0.507 OA
ATOM     29  H   LIG    1       -2.391  -7.186   3.174  0.00  0.00    +0.292 HD
ENDBRANCH  25  28
ENDBRANCH  20  22
ENDBRANCH   2  20
TORSDOF 7
