REMARK  Name = DB12001
REMARK                            x       y       z     vdW  Elec       q    Type
REMARK                         _______ _______ _______ _____ _____    ______ ____
ROOT
ATOM      1  C   LIG    1        2.169   0.757  -1.234  0.00  0.00    +0.221 A 
ATOM      2  N   LIG    1        2.722  -0.328  -1.835  0.00  0.00    -0.211 NA
ATOM      3  C   LIG    1        4.018  -0.632  -1.534  0.00  0.00    +0.111 A 
ATOM      4  C   LIG    1        4.746   0.146  -0.619  0.00  0.00    +0.167 A 
ATOM      5  F   LIG    1        6.023  -0.146  -0.277  0.00  0.00    -0.202 F 
ATOM      6  C   LIG    1        4.096   1.239  -0.045  0.00  0.00    +0.155 A 
ATOM      7  N   LIG    1        2.810   1.557  -0.340  0.00  0.00    -0.220 NA
ENDROOT
BRANCH   3   8
ATOM      8  C   LIG    1        4.587  -1.830  -2.221  0.00  0.00    +0.008 A 
ATOM      9  C   LIG    1        3.821  -2.998  -2.352  0.00  0.00    +0.050 A 
ATOM     10  C   LIG    1        4.310  -4.141  -2.982  0.00  0.00    +0.151 A 
ATOM     11  F   LIG    1        3.540  -5.249  -3.085  0.00  0.00    -0.203 F 
ATOM     12  C   LIG    1        5.612  -4.108  -3.498  0.00  0.00    +0.124 A 
ATOM     13  N   LIG    1        6.305  -5.090  -4.149  0.00  0.00    -0.230 NA
ATOM     14  C   LIG    1        7.468  -4.558  -4.420  0.00  0.00    +0.108 A 
ATOM     15  C   LIG    1        8.559  -5.317  -5.148  0.00  0.00    +0.086 C 
ATOM     16  N   LIG    1        7.596  -3.248  -3.980  0.00  0.00    -0.325 N 
ATOM     17  C   LIG    1        6.389  -2.932  -3.371  0.00  0.00    +0.073 A 
ATOM     18  C   LIG    1        5.892  -1.785  -2.738  0.00  0.00    +0.038 A 
BRANCH  16  19
ATOM     19  C   LIG    1        8.778  -2.385  -4.135  0.00  0.00    +0.083 C 
ATOM     20  C   LIG    1        8.451  -1.166  -5.019  0.00  0.00    +0.030 C 
ATOM     21  C   LIG    1        9.360  -2.006  -2.759  0.00  0.00    +0.030 C 
ENDBRANCH  16  19
ENDBRANCH   3   8
BRANCH   1  22
ATOM     22  N   LIG    1        0.828   1.006  -1.569  0.00  0.00    -0.268 N 
ATOM     23  H   LIG    1        0.427   0.306  -2.176  0.00  0.00    +0.156 HD
BRANCH  22  27
ATOM     24  C   LIG    1       -1.979   3.954  -0.654  0.00  0.00    -0.015 A 
ATOM     25  C   LIG    1       -2.312   2.665  -1.079  0.00  0.00    +0.117 A 
ATOM     26  N   LIG    1       -1.382   1.721  -1.371  0.00  0.00    -0.240 NA
ATOM     27  C   LIG    1       -0.068   2.035  -1.232  0.00  0.00    +0.125 A 
ATOM     28  C   LIG    1        0.345   3.313  -0.825  0.00  0.00    +0.044 A 
ATOM     29  C   LIG    1       -0.623   4.273  -0.528  0.00  0.00    +0.010 A 
BRANCH  24  30
ATOM     30  C   LIG    1       -3.064   4.973  -0.330  0.00  0.00    +0.121 C 
BRANCH  30  34
ATOM     31  N   LIG    1       -4.114   8.264  -2.844  0.00  0.00    -0.300 NA
ATOM     32  C   LIG    1       -3.253   7.206  -3.390  0.00  0.00    +0.100 C 
ATOM     33  C   LIG    1       -3.379   5.917  -2.543  0.00  0.00    +0.100 C 
ATOM     34  N   LIG    1       -2.970   6.181  -1.155  0.00  0.00    -0.296 NA
ATOM     35  C   LIG    1       -3.840   7.231  -0.609  0.00  0.00    +0.100 C 
ATOM     36  C   LIG    1       -3.714   8.523  -1.452  0.00  0.00    +0.100 C 
BRANCH  31  38
ATOM     37  C   LIG    1       -5.057  10.536  -3.317  0.00  0.00    +0.020 C 
ATOM     38  C   LIG    1       -4.017   9.463  -3.683  0.00  0.00    +0.081 C 
ENDBRANCH  31  38
ENDBRANCH  30  34
ENDBRANCH  24  30
ENDBRANCH  22  27
ENDBRANCH   1  22
TORSDOF 7
