REMARK  Name = DB12500
REMARK                            x       y       z     vdW  Elec       q    Type
REMARK                         _______ _______ _______ _____ _____    ______ ____
ROOT
ATOM      1  C   LIG    1       -2.640   1.356  -0.506  0.00  0.00    +0.131 A 
ATOM      2  N   LIG    1       -1.307   1.087  -0.581  0.00  0.00    -0.199 NA
ATOM      3  C   LIG    1       -0.861  -0.080  -0.055  0.00  0.00    +0.221 A 
ATOM      4  N   LIG    1       -1.652  -1.009   0.544  0.00  0.00    -0.222 NA
ATOM      5  C   LIG    1       -2.976  -0.724   0.622  0.00  0.00    +0.121 A 
ATOM      6  C   LIG    1       -3.528   0.455   0.110  0.00  0.00    +0.008 A 
ATOM      7  C   LIG    1       -5.023   0.719   0.227  0.00  0.00    +0.049 C 
ENDROOT
BRANCH   1   8
ATOM      8  N   LIG    1       -3.123   2.567  -1.039  0.00  0.00    -0.299 N 
ATOM      9  H   LIG    1       -4.078   2.774  -0.785  0.00  0.00    +0.154 HD
BRANCH   8  12
ATOM     10  C   LIG    1       -0.731   4.417  -3.225  0.00  0.00    +0.107 A 
ATOM     11  C   LIG    1       -1.380   3.358  -2.586  0.00  0.00    +0.051 A 
ATOM     12  C   LIG    1       -2.470   3.597  -1.738  0.00  0.00    +0.034 A 
ATOM     13  C   LIG    1       -2.942   4.905  -1.591  0.00  0.00    +0.023 A 
ATOM     14  C   LIG    1       -2.306   5.963  -2.241  0.00  0.00    +0.004 A 
ATOM     15  C   LIG    1       -1.195   5.722  -3.048  0.00  0.00    +0.028 A 
BRANCH  10  17
ATOM     16  O   LIG    1        0.668   5.098  -5.329  0.00  0.00    -0.153 OA
ATOM     17  S   LIG    1        0.709   4.109  -4.246  0.00  0.00    +0.059 S 
ATOM     18  O   LIG    1        0.744   2.676  -4.559  0.00  0.00    -0.153 OA
BRANCH  17  19
ATOM     19  N   LIG    1        2.103   4.519  -3.228  0.00  0.00    -0.185 NA
ATOM     20  H   LIG    1        2.374   5.506  -3.248  0.00  0.00    +0.149 HD
BRANCH  19  21
ATOM     21  C   LIG    1        2.503   3.801  -1.982  0.00  0.00    +0.032 C 
ATOM     22  C   LIG    1        1.730   4.391  -0.784  0.00  0.00    +0.029 C 
ATOM     23  C   LIG    1        2.265   2.276  -2.069  0.00  0.00    +0.029 C 
ATOM     24  C   LIG    1        4.012   4.052  -1.784  0.00  0.00    +0.029 C 
ENDBRANCH  19  21
ENDBRANCH  17  19
ENDBRANCH  10  17
ENDBRANCH   8  12
ENDBRANCH   1   8
BRANCH   3  25
ATOM     25  N   LIG    1        0.515  -0.311  -0.208  0.00  0.00    -0.284 N 
ATOM     26  H   LIG    1        0.982   0.396  -0.757  0.00  0.00    +0.155 HD
BRANCH  25  27
ATOM     27  C   LIG    1        1.369  -1.325   0.261  0.00  0.00    +0.034 A 
ATOM     28  C   LIG    1        1.099  -2.078   1.409  0.00  0.00    +0.027 A 
ATOM     29  C   LIG    1        1.988  -3.067   1.822  0.00  0.00    +0.047 A 
ATOM     30  C   LIG    1        3.164  -3.312   1.096  0.00  0.00    +0.121 A 
ATOM     31  C   LIG    1        3.435  -2.543  -0.035  0.00  0.00    +0.047 A 
ATOM     32  C   LIG    1        2.548  -1.554  -0.449  0.00  0.00    +0.027 A 
BRANCH  30  33
ATOM     33  O   LIG    1        4.098  -4.275   1.426  0.00  0.00    -0.491 OA
BRANCH  33  34
ATOM     34  C   LIG    1        3.861  -5.126   2.545  0.00  0.00    +0.244 C 
BRANCH  34  35
ATOM     35  C   LIG    1        5.019  -6.136   2.641  0.00  0.00    +0.125 C 
BRANCH  35  36
ATOM     36  N   LIG    1        4.790  -7.150   3.671  0.00  0.00    -0.299 NA
ATOM     37  C   LIG    1        4.806  -6.639   5.037  0.00  0.00    +0.084 C 
ATOM     38  C   LIG    1        4.977  -7.871   5.930  0.00  0.00    +0.017 C 
ATOM     39  C   LIG    1        5.649  -8.903   5.021  0.00  0.00    +0.017 C 
ATOM     40  C   LIG    1        5.832  -8.167   3.692  0.00  0.00    +0.084 C 
ENDBRANCH  35  36
ENDBRANCH  34  35
ENDBRANCH  33  34
ENDBRANCH  30  33
ENDBRANCH  25  27
ENDBRANCH   3  25
TORSDOF 11
