REMARK  Name = DB12441
REMARK                            x       y       z     vdW  Elec       q    Type
REMARK                         _______ _______ _______ _____ _____    ______ ____
ROOT
ATOM      1  C   UNK A  3       -7.089   2.732   2.408  0.00  0.00    +0.036 A 
ATOM      2  C   UNK A  3       -6.960   3.465   1.224  0.00  0.00    +0.123 A 
ATOM      3  C   UNK A  3       -5.690   3.567   0.641  0.00  0.00    +0.049 A 
ATOM      4  C   UNK A  0       -4.567   2.959   1.220  0.00  0.00    +0.080 A 
ATOM      5  C   UNK A  0       -3.235   3.120   0.536  0.00  0.00    +0.248 C 
ATOM      6  N   GLU A  1       -2.226   3.537   1.324  0.00  0.00    -0.300 N 
ATOM      7  H   GLU A  1       -2.410   3.707   2.302  0.00  0.00    +0.150 HD
ATOM      8  CA  GLU A  1       -0.836   3.737   0.898  0.00  0.00    +0.160 C 
ATOM      9  C   GLU A  1       -0.046   2.426   1.104  0.00  0.00    +0.234 C 
ATOM     10  N   LYS A  2       -0.328   1.435   0.235  0.00  0.00    -0.302 N 
ATOM     11  H   LYS A  2       -1.006   1.623  -0.489  0.00  0.00    +0.150 HD
ATOM     12  CA  LYS A  2        0.186   0.056   0.251  0.00  0.00    +0.159 C 
ATOM     13  C   LYS A  2       -0.285  -0.790   1.459  0.00  0.00    +0.234 C 
ATOM     14  N   UNK A  3       -1.254  -0.281   2.242  0.00  0.00    -0.302 N 
ATOM     15  H   UNK A  3       -1.640   0.626   2.020  0.00  0.00    +0.150 HD
ATOM     16  C   UNK A  3       -1.829  -0.941   3.416  0.00  0.00    +0.162 C 
ATOM     17  C   UNK A  3       -2.364   0.099   4.433  0.00  0.00    +0.072 C 
ATOM     18  C   UNK A  3       -3.712   0.775   4.103  0.00  0.00    +0.231 C 
ATOM     19  O   UNK A  3       -3.593   1.569   2.924  0.00  0.00    -0.491 OA
ATOM     20  O   LYS A  2        0.228  -1.894   1.646  0.00  0.00    -0.274 OA
ATOM     21  O   GLU A  1        0.750   2.320   2.039  0.00  0.00    -0.274 OA
ATOM     22  O   UNK A  0       -3.119   2.898  -0.671  0.00  0.00    -0.270 OA
ATOM     23  C   UNK A  3       -4.711   2.202   2.401  0.00  0.00    +0.133 A 
ATOM     24  C   UNK A  3       -5.986   2.110   2.986  0.00  0.00    +0.048 A 
ENDROOT
BRANCH  16  25
ATOM     25  C   UNK A  3       -2.907  -1.964   3.010  0.00  0.00    +0.234 C 
ATOM     26  N   GLY A  4       -3.195  -2.895   3.932  0.00  0.00    -0.303 N 
ATOM     27  H   GLY A  4       -2.695  -2.898   4.809  0.00  0.00    +0.149 HD
ATOM     28  O   UNK A  3       -3.470  -1.877   1.916  0.00  0.00    -0.274 OA
BRANCH  26  29
ATOM     29  CA  GLY A  4       -4.216  -3.935   3.758  0.00  0.00    +0.224 C 
BRANCH  29  30
ATOM     30  C   GLY A  4       -4.434  -4.800   5.026  0.00  0.00    +0.322 C 
ATOM     31  O   GLY A  4       -5.270  -5.724   4.914  0.00  0.00    -0.249 OA
BRANCH  30  32
ATOM     32  OXT GLY A  4       -3.803  -4.558   6.083  0.00  0.00    -0.480 OA
ATOM     33  HXT GLY A  4       -3.187  -3.852   6.111  0.00  0.00    +0.295 HD
ENDBRANCH  30  32
ENDBRANCH  29  30
ENDBRANCH  26  29
ENDBRANCH  16  25
BRANCH   2  34
ATOM     34  N   UNK A  3       -8.137   4.120   0.603  0.00  0.00    +0.006 N 
ATOM     35  O   UNK A  3       -7.977   4.760  -0.433  0.00  0.00    -0.130 OA
BRANCH  34  36
ATOM     36  O   UNK A  3       -9.231   4.001   1.148  0.00  0.00    -0.396 OA
ATOM     37  H   UNK A  3       -9.309   3.504   1.938  0.00  0.00    +0.329 HD
ENDBRANCH  34  36
ENDBRANCH   2  34
BRANCH   8  38
ATOM     38  CB  GLU A  1       -0.226   4.954   1.644  0.00  0.00    +0.043 C 
BRANCH  38  39
ATOM     39  CG  GLU A  1       -0.962   6.289   1.370  0.00  0.00    +0.123 C 
BRANCH  39  40
ATOM     40  CD  GLU A  1       -0.372   7.531   2.063  0.00  0.00    +0.305 C 
ATOM     41  OE1 GLU A  1       -0.956   8.615   1.841  0.00  0.00    -0.251 OA
BRANCH  40  42
ATOM     42  OE2 GLU A  1        0.635   7.405   2.797  0.00  0.00    -0.481 OA
ATOM     43  HE2 GLU A  1        1.022   6.561   2.919  0.00  0.00    +0.295 HD
ENDBRANCH  40  42
ENDBRANCH  39  40
ENDBRANCH  38  39
ENDBRANCH   8  38
BRANCH  12  44
ATOM     44  CB  LYS A  2        1.727   0.020   0.075  0.00  0.00    +0.032 C 
BRANCH  44  45
ATOM     45  CG  LYS A  2        2.217   0.673  -1.230  0.00  0.00    +0.000 C 
BRANCH  45  46
ATOM     46  CD  LYS A  2        3.738   0.562  -1.408  0.00  0.00    -0.019 C 
BRANCH  46  47
ATOM     47  CE  LYS A  2        4.228   1.234  -2.700  0.00  0.00    -0.086 C 
BRANCH  47  48
ATOM     48  NZ  LYS A  2        5.689   1.118  -2.857  0.00  0.00    +0.378 N 
ATOM     49  HZ1 LYS A  2        6.149   1.563  -2.076  0.00  0.00    -0.090 HD
ATOM     50  HZ2 LYS A  2        5.949   0.142  -2.888  0.00  0.00    -0.090 HD
ATOM     51  HZ3 LYS A  2        5.974   1.568  -3.715  0.00  0.00    -0.090 HD
ENDBRANCH  47  48
ENDBRANCH  46  47
ENDBRANCH  45  46
ENDBRANCH  44  45
ENDBRANCH  12  44
TORSDOF 15
