REMARK  Name = DB12827
REMARK                            x       y       z     vdW  Elec       q    Type
REMARK                         _______ _______ _______ _____ _____    ______ ____
ROOT
ATOM      1  C   LIG    1       -1.931   4.564  -1.640  0.00  0.00    +0.149 C 
ATOM      2  N   LIG    1       -1.418   3.499  -0.793  0.00  0.00    -0.349 N 
ATOM      3  C   LIG    1       -1.264   3.556   0.580  0.00  0.00    +0.049 A 
ATOM      4  C   LIG    1       -1.534   4.583   1.495  0.00  0.00    +0.026 A 
ATOM      5  C   LIG    1       -1.265   4.327   2.839  0.00  0.00    +0.002 A 
ATOM      6  C   LIG    1       -0.750   3.107   3.265  0.00  0.00    +0.001 A 
ATOM      7  C   LIG    1       -0.481   2.084   2.359  0.00  0.00    +0.010 A 
ATOM      8  C   LIG    1       -0.735   2.292   0.993  0.00  0.00    +0.003 A 
ATOM      9  C   LIG    1       -0.579   1.477  -0.182  0.00  0.00    -0.023 A 
ATOM     10  C   LIG    1       -1.016   2.261  -1.232  0.00  0.00    +0.090 A 
ENDROOT
BRANCH   9  11
ATOM     11  C   LIG    1       -0.040   0.060  -0.247  0.00  0.00    +0.032 C 
BRANCH  11  12
ATOM     12  CA  LIG    1        1.476  -0.045   0.070  0.00  0.00    +0.040 C 
BRANCH  12  13
ATOM     13  N   LIG    1        1.837  -1.535   0.196  0.00  0.00    +0.387 N 
ATOM     14  H1  LIG    1        1.278  -1.964   0.919  0.00  0.00    -0.089 HD
ATOM     15  H2  LIG    1        1.658  -2.011  -0.677  0.00  0.00    -0.089 HD
ATOM     16  H3  LIG    1        2.813  -1.637   0.438  0.00  0.00    -0.089 HD
ENDBRANCH  12  13
BRANCH  12  17
ATOM     17  C   LIG    1        2.373   0.591  -1.029  0.00  0.00    +0.290 C 
ATOM     18  O   LIG    1        2.529   1.831  -0.962  0.00  0.00    -0.253 OA
BRANCH  17  19
ATOM     19  OXT LIG    1        2.876  -0.126  -1.927  0.00  0.00    -0.482 OA
ATOM     20  HXT LIG    1        2.725  -1.051  -1.927  0.00  0.00    +0.295 HD
ENDBRANCH  17  19
ENDBRANCH  12  17
ENDBRANCH  11  12
ENDBRANCH   9  11
TORSDOF 5
