REMARK  Name = DB12505
REMARK                            x       y       z     vdW  Elec       q    Type
REMARK                         _______ _______ _______ _____ _____    ______ ____
ROOT
ATOM      1  C   LIG    1       -4.411   0.112   0.003  0.00  0.00    +0.044 C 
ATOM      2  C   LIG    1       -2.894  -0.004   0.001  0.00  0.00    -0.040 A 
ATOM      3  C   LIG    1       -2.165  -1.219  -0.001  0.00  0.00    +0.022 A 
ATOM      4  C   LIG    1       -2.508  -2.629  -0.001  0.00  0.00    +0.077 A 
ATOM      5  C   LIG    1       -1.316  -3.322  -0.004  0.00  0.00    +0.102 A 
ATOM      6  N   LIG    1       -0.266  -2.448  -0.005  0.00  0.00    -0.358 N 
ATOM      7  H   LIG    1        0.696  -2.757  -0.007  0.00  0.00    +0.165 HD
ATOM      8  C   LIG    1       -0.729  -1.149  -0.003  0.00  0.00    +0.071 A 
ATOM      9  C   LIG    1       -0.018   0.059  -0.003  0.00  0.00    +0.072 A 
ATOM     10  C   LIG    1       -0.789   1.225   0.000  0.00  0.00    +0.027 A 
ATOM     11  C   LIG    1       -2.177   1.194   0.002  0.00  0.00    +0.006 A 
ENDROOT
BRANCH   4  12
ATOM     12  C   LIG    1       -3.822  -3.252   0.001  0.00  0.00    +0.101 C 
ATOM     13  N   LIG    1       -4.867  -3.748   0.002  0.00  0.00    -0.191 NA
ENDBRANCH   4  12
BRANCH   9  14
ATOM     14  N   LIG    1        1.386   0.087  -0.007  0.00  0.00    -0.214 N 
ATOM     15  H   LIG    1        1.877  -0.794  -0.014  0.00  0.00    +0.174 HD
BRANCH  14  16
ATOM     16  S   LIG    1        2.353   1.575   0.002  0.00  0.00    +0.072 S 
ATOM     17  O   LIG    1        2.089   2.242   1.282  0.00  0.00    -0.150 OA
ATOM     18  O   LIG    1        2.085   2.260  -1.268  0.00  0.00    -0.150 OA
BRANCH  16  19
ATOM     19  C   LIG    1        4.051   1.015  -0.004  0.00  0.00    +0.110 A 
ATOM     20  C   LIG    1        4.711   0.791  -1.216  0.00  0.00    +0.047 A 
ATOM     21  C   LIG    1        6.033   0.334  -1.220  0.00  0.00    +0.054 A 
ATOM     22  C   LIG    1        6.691   0.098  -0.009  0.00  0.00    +0.019 A 
ATOM     23  C   LIG    1        6.028   0.314   1.200  0.00  0.00    +0.003 A 
ATOM     24  C   LIG    1        4.709   0.769   1.204  0.00  0.00    +0.029 A 
BRANCH  21  25
ATOM     25  C   LIG    1        6.721   0.105  -2.482  0.00  0.00    +0.099 C 
ATOM     26  N   LIG    1        7.269  -0.077  -3.485  0.00  0.00    -0.191 NA
ENDBRANCH  21  25
ENDBRANCH  16  19
ENDBRANCH  14  16
ENDBRANCH   9  14
TORSDOF 5
