REMARK  Name = DB12704
REMARK                            x       y       z     vdW  Elec       q    Type
REMARK                         _______ _______ _______ _____ _____    ______ ____
ROOT
ATOM      1  C   LIG    1        3.338  -1.605  -0.072  0.00  0.00    +0.062 C 
ATOM      2  C   LIG    1        4.325  -0.710   0.755  0.00  0.00    -0.045 C 
ATOM      3  C   LIG    1        5.821  -1.069   0.534  0.00  0.00    +0.021 C 
ATOM      4  C   LIG    1        6.221  -0.988  -0.954  0.00  0.00    +0.068 C 
ATOM      5  O   LIG    1        7.495  -1.634  -1.076  0.00  0.00    -0.373 OA
ATOM      6  C   LIG    1        8.439  -0.768  -1.702  0.00  0.00    +0.160 C 
ATOM      7  C   LIG    1        7.942   0.625  -1.341  0.00  0.00    +0.031 C 
ATOM      8  C   LIG    1        5.242  -1.792  -1.840  0.00  0.00    +0.037 C 
ATOM      9  C   LIG    1        6.444   0.455  -1.449  0.00  0.00    +0.037 C 
ATOM     10  C   LIG    1        3.765  -1.439  -1.563  0.00  0.00    +0.023 C 
ENDROOT
BRANCH   2  11
ATOM     11  N   LIG    1        3.936  -0.804   2.257  0.00  0.00    +0.383 N 
ATOM     12  H   LIG    1        2.926  -0.756   2.258  0.00  0.00    -0.081 HD
ATOM     13  C   LIG    1        4.425   0.358   3.143  0.00  0.00    -0.078 C 
ATOM     14  C   LIG    1        4.427  -0.199   4.574  0.00  0.00    -0.020 C 
ATOM     15  C   LIG    1        3.995  -1.664   4.482  0.00  0.00    -0.020 C 
ATOM     16  C   LIG    1        4.291  -2.076   3.046  0.00  0.00    -0.078 C 
ENDBRANCH   2  11
BRANCH   1  18
ATOM     17  C   LIG    1        1.147  -2.473   0.609  0.00  0.00    +0.132 C 
ATOM     18  N   LIG    1        1.896  -1.301   0.135  0.00  0.00    -0.303 N 
ATOM     19  C   LIG    1        1.313  -0.086  -0.083  0.00  0.00    +0.220 C 
ATOM     20  O   LIG    1        1.956   0.884  -0.491  0.00  0.00    -0.275 OA
BRANCH  19  21
ATOM     21  C   LIG    1       -0.200   0.089   0.197  0.00  0.00    +0.131 C 
BRANCH  21  22
ATOM     22  C   LIG    1       -0.702   1.523   0.035  0.00  0.00    -0.037 A 
ATOM     23  C   LIG    1       -1.090   1.998  -1.222  0.00  0.00    +0.025 A 
ATOM     24  C   LIG    1       -1.515   3.318  -1.381  0.00  0.00    +0.060 A 
ATOM     25 CL   LIG    1       -1.984   3.860  -2.955  0.00  0.00    -0.082 Cl
ATOM     26  C   LIG    1       -1.549   4.177  -0.274  0.00  0.00    +0.059 A 
ATOM     27 CL   LIG    1       -2.067   5.820  -0.424  0.00  0.00    -0.082 Cl
ATOM     28  C   LIG    1       -1.155   3.706   0.980  0.00  0.00    +0.022 A 
ATOM     29  C   LIG    1       -0.729   2.388   1.134  0.00  0.00    +0.005 A 
ENDBRANCH  21  22
ENDBRANCH  19  21
ENDBRANCH   1  18
TORSDOF 4
