REMARK  Name = DB12650
REMARK                            x       y       z     vdW  Elec       q    Type
REMARK                         _______ _______ _______ _____ _____    ______ ____
ROOT
ATOM      1  C   LIG    1        1.440  -0.026  -0.108  0.00  0.00    +0.058 C 
ATOM      2  C   LIG    1        1.965  -1.489  -0.035  0.00  0.00    +0.024 C 
ENDROOT
BRANCH   1   3
ATOM      3  N   LIG    1       -0.049  -0.006  -0.118  0.00  0.00    -0.292 NA
ATOM      4  C   LIG    1       -0.595  -0.794  -1.240  0.00  0.00    +0.106 C 
BRANCH   3   5
ATOM      5  C   LIG    1       -0.618   1.360  -0.105  0.00  0.00    +0.173 C 
BRANCH   5   6
ATOM      6  C   LIG    1       -2.081   1.387   0.112  0.00  0.00    -0.090 C 
ATOM      7  C   LIG    1       -3.288   1.426   0.292  0.00  0.00    +0.005 C 
ENDBRANCH   5   6
ENDBRANCH   3   5
ENDBRANCH   1   3
BRANCH   1   8
ATOM      8  C   LIG    1        2.031   0.813   1.070  0.00  0.00    +0.053 C 
BRANCH   8   9
ATOM      9  C   LIG    1        3.553   0.779   1.182  0.00  0.00    -0.046 A 
ATOM     10  C   LIG    1        4.335   1.444   0.233  0.00  0.00    +0.004 A 
ATOM     11  C   LIG    1        5.724   1.410   0.329  0.00  0.00    +0.000 A 
ATOM     12  C   LIG    1        6.326   0.714   1.375  0.00  0.00    +0.000 A 
ATOM     13  C   LIG    1        5.553   0.051   2.326  0.00  0.00    +0.000 A 
ATOM     14  C   LIG    1        4.164   0.084   2.229  0.00  0.00    +0.004 A 
ENDBRANCH   8   9
ENDBRANCH   1   8
TORSDOF 5
