REMARK  Name = DB12715
REMARK                            x       y       z     vdW  Elec       q    Type
REMARK                         _______ _______ _______ _____ _____    ______ ____
ROOT
ATOM      1  C   LIG    1        1.431   0.038   0.088  0.00  0.00    -0.030 A 
ATOM      2  C   LIG    1        2.278   0.673   1.001  0.00  0.00    +0.005 A 
ATOM      3  C   LIG    1        3.659   0.586   0.848  0.00  0.00    +0.005 A 
ATOM      4  C   LIG    1        4.197  -0.143  -0.215  0.00  0.00    -0.030 A 
ATOM      5  C   LIG    1        3.352  -0.771  -1.133  0.00  0.00    +0.005 A 
ATOM      6  C   LIG    1        1.972  -0.685  -0.979  0.00  0.00    +0.005 A 
ENDROOT
BRANCH   1   7
ATOM      7  C   LIG    1       -0.081   0.131   0.254  0.00  0.00    +0.139 C 
BRANCH   7   8
ATOM      8  N   LIG    1       -0.565   1.500   0.084  0.00  0.00    -0.309 N 
ATOM      9  H   LIG    1       -0.981   1.959   0.882  0.00  0.00    +0.149 HD
BRANCH   8  13
ATOM     10  C   LIG    1       -1.056   3.348  -3.573  0.00  0.00    +0.039 A 
ATOM     11  C   LIG    1       -0.483   2.078  -3.485  0.00  0.00    +0.116 A 
ATOM     12  N   LIG    1       -0.308   1.440  -2.299  0.00  0.00    -0.223 NA
ATOM     13  C   LIG    1       -0.718   2.099  -1.177  0.00  0.00    +0.215 A 
ATOM     14  N   LIG    1       -1.285   3.335  -1.169  0.00  0.00    -0.223 NA
ATOM     15  C   LIG    1       -1.447   3.945  -2.373  0.00  0.00    +0.116 A 
ENDBRANCH   8  13
ENDBRANCH   7   8
ENDBRANCH   1   7
BRANCH   4  16
ATOM     16  C   LIG    1        5.704  -0.220  -0.397  0.00  0.00    +0.139 C 
BRANCH  16  17
ATOM     17  N   LIG    1        6.174   0.898  -1.208  0.00  0.00    -0.309 N 
ATOM     18  H   LIG    1        5.558   1.686  -1.342  0.00  0.00    +0.149 HD
BRANCH  17  19
ATOM     19  C   LIG    1        7.517   1.016  -1.597  0.00  0.00    +0.215 A 
ATOM     20  N   LIG    1        8.394   0.006  -1.325  0.00  0.00    -0.223 NA
ATOM     21  C   LIG    1        9.678   0.184  -1.732  0.00  0.00    +0.116 A 
ATOM     22  C   LIG    1       10.100   1.336  -2.397  0.00  0.00    +0.039 A 
ATOM     23  C   LIG    1        9.132   2.315  -2.633  0.00  0.00    +0.116 A 
ATOM     24  N   LIG    1        7.839   2.170  -2.240  0.00  0.00    -0.223 NA
ENDBRANCH  17  19
ENDBRANCH  16  17
ENDBRANCH   4  16
TORSDOF 6
