REMARK  Name = DB12074
REMARK                            x       y       z     vdW  Elec       q    Type
REMARK                         _______ _______ _______ _____ _____    ______ ____
ROOT
ATOM      1  C   LIG    1       -2.696   2.555   0.215  0.00  0.00    +0.051 C 
ATOM      2  C   LIG    1       -1.961   1.228   0.070  0.00  0.00    +0.030 A 
ATOM      3  C   LIG    1       -2.753   0.026  -0.182  0.00  0.00    +0.257 A 
ATOM      4  O   LIG    1       -3.980  -0.011  -0.270  0.00  0.00    -0.267 OA
ATOM      5  N   LIG    1       -1.995  -1.100  -0.324  0.00  0.00    -0.275 N 
ATOM      6  H   LIG    1       -2.517  -1.944  -0.511  0.00  0.00    +0.173 HD
ATOM      7  C   LIG    1       -0.635  -1.262  -0.260  0.00  0.00    +0.332 A 
ATOM      8  O   LIG    1       -0.138  -2.375  -0.442  0.00  0.00    -0.246 OA
ATOM      9  N   LIG    1        0.057  -0.096   0.012  0.00  0.00    -0.270 N 
ATOM     10  C   LIG    1       -0.618   1.101   0.150  0.00  0.00    +0.102 A 
ENDROOT
BRANCH   9  11
ATOM     11  C   LIG    1        1.516  -0.166   0.066  0.00  0.00    +0.249 C 
ATOM     12  O   LIG    1        2.067   0.872   0.817  0.00  0.00    -0.328 OA
ATOM     13  C   LIG    1        3.214   1.401   0.156  0.00  0.00    +0.174 C 
ATOM     14  C   LIG    1        3.158   0.787  -1.232  0.00  0.00    +0.023 C 
ATOM     15  C   LIG    1        2.172  -0.116  -1.286  0.00  0.00    +0.026 C 
BRANCH  13  16
ATOM     16  C   LIG    1        4.428   0.936   0.870  0.00  0.00    -0.064 C 
ATOM     17  C   LIG    1        5.420   0.549   1.469  0.00  0.00    +0.007 C 
ENDBRANCH  13  16
BRANCH  13  18
ATOM     18  C   LIG    1        3.042   2.945   0.104  0.00  0.00    +0.208 C 
BRANCH  18  19
ATOM     19  O   LIG    1        3.188   3.585   1.360  0.00  0.00    -0.391 OA
ATOM     20  H   LIG    1        3.071   4.530   1.238  0.00  0.00    +0.210 HD
ENDBRANCH  18  19
ENDBRANCH  13  18
ENDBRANCH   9  11
TORSDOF 4
