REMARK  Name = DB12992
REMARK                            x       y       z     vdW  Elec       q    Type
REMARK                         _______ _______ _______ _____ _____    ______ ____
ROOT
ATOM      1  C   LIG    1       -0.495   0.771  -0.116  0.00  0.00    +0.194 C 
ENDROOT
BRANCH   1   2
ATOM      2  C   LIG    1        0.962   0.694   0.395  0.00  0.00    +0.237 C 
ATOM      3  O   LIG    1        1.300   1.342   1.387  0.00  0.00    -0.274 OA
ATOM      4  N   LIG    1        1.800  -0.092  -0.307  0.00  0.00    -0.309 N 
ATOM      5  H   LIG    1        1.452  -0.570  -1.125  0.00  0.00    +0.149 HD
BRANCH   4   6
ATOM      6  C   LIG    1        3.211  -0.313   0.029  0.00  0.00    +0.099 C 
ATOM      7  C   LIG    1        3.995  -0.835  -1.193  0.00  0.00    +0.030 C 
BRANCH   6   8
ATOM      8  C   LIG    1        3.417  -1.149   1.339  0.00  0.00    +0.146 C 
BRANCH   8   9
ATOM      9  C   LIG    1        4.767  -0.886   2.084  0.00  0.00    +0.102 C 
ATOM     10  C   LIG    1        5.041  -1.900   3.223  0.00  0.00    +0.020 C 
BRANCH   9  11
ATOM     11  C   LIG    1        4.815   0.554   2.642  0.00  0.00    +0.219 C 
ATOM     12  O   LIG    1        4.103   0.879   3.594  0.00  0.00    -0.275 OA
ATOM     13  N   LIG    1        5.645   1.414   2.025  0.00  0.00    -0.302 N 
ATOM     14  H   LIG    1        6.207   1.083   1.255  0.00  0.00    +0.150 HD
BRANCH  13  15
ATOM     15  C   LIG    1        5.743   2.850   2.307  0.00  0.00    +0.187 C 
BRANCH  15  16
ATOM     16  C   LIG    1        4.489   3.622   1.834  0.00  0.00    +0.236 C 
ATOM     17  O   LIG    1        3.754   3.131   0.976  0.00  0.00    -0.274 OA
ATOM     18  N   LIG    1        4.289   4.830   2.389  0.00  0.00    -0.313 N 
ATOM     19  H   LIG    1        4.926   5.153   3.103  0.00  0.00    +0.149 HD
BRANCH  18  20
ATOM     20  C   LIG    1        3.195   5.736   2.026  0.00  0.00    +0.111 C 
BRANCH  20  21
ATOM     21  C   LIG    1        3.599   6.851   1.030  0.00  0.00    +0.081 C 
BRANCH  21  22
ATOM     22  C   LIG    1        4.223   6.348  -0.261  0.00  0.00    +0.081 A 
ATOM     23  N   LIG    1        3.706   5.377  -0.976  0.00  0.00    -0.242 NA
ATOM     24  C   LIG    1        4.467   4.990  -1.986  0.00  0.00    +0.103 A 
ATOM     25  C   LIG    1        5.611   5.769  -2.162  0.00  0.00    +0.077 A 
ATOM     26  S   LIG    1        5.704   6.971  -0.915  0.00  0.00    -0.080 S 
BRANCH  24  27
ATOM     27  C   LIG    1        4.105   3.823  -2.799  0.00  0.00    +0.128 A 
ATOM     28  N   LIG    1        4.852   3.370  -3.780  0.00  0.00    -0.233 NA
ATOM     29  C   LIG    1        4.346   2.292  -4.370  0.00  0.00    +0.133 A 
ATOM     30  C   LIG    1        3.114   1.876  -3.860  0.00  0.00    +0.080 A 
ATOM     31  S   LIG    1        2.667   2.887  -2.523  0.00  0.00    -0.073 S 
BRANCH  29  32
ATOM     32  C   LIG    1        5.029   1.665  -5.486  0.00  0.00    +0.263 C 
ATOM     33  O   LIG    1        4.437   0.877  -6.226  0.00  0.00    -0.269 OA
ATOM     34  N   LIG    1        6.332   1.984  -5.635  0.00  0.00    -0.310 N 
ATOM     35  H   LIG    1        6.754   2.602  -4.957  0.00  0.00    +0.149 HD
BRANCH  34  36
ATOM     36  C   LIG    1        7.207   1.478  -6.691  0.00  0.00    +0.103 C 
BRANCH  36  37
ATOM     37  C   LIG    1        7.181   2.339  -7.968  0.00  0.00    -0.000 C 
BRANCH  37  38
ATOM     38  C   LIG    1        7.654   3.784  -7.734  0.00  0.00    -0.081 C 
BRANCH  38  39
ATOM     39  N   LIG    1        7.654   4.548  -9.067  0.00  0.00    +0.379 N 
ATOM     40  H   LIG    1        6.716   4.552  -9.441  0.00  0.00    -0.086 HD
ATOM     41  H   LIG    1        8.251   4.058  -9.719  0.00  0.00    -0.086 HD
BRANCH  39  42
ATOM     42  C   LIG    1        8.148   5.996  -8.934  0.00  0.00    -0.083 C 
BRANCH  42  43
ATOM     43  C   LIG    1        8.179   6.660 -10.319  0.00  0.00    -0.021 C 
BRANCH  43  44
ATOM     44  C   LIG    1        8.687   8.111 -10.260  0.00  0.00    -0.021 C 
BRANCH  44  45
ATOM     45  C   LIG    1        8.778   8.766 -11.647  0.00  0.00    -0.083 C 
BRANCH  45  46
ATOM     46  N   LIG    1        9.294  10.206 -11.496  0.00  0.00    +0.379 N 
ATOM     47  H   LIG    1       10.183  10.181 -11.017  0.00  0.00    -0.086 HD
ATOM     48  H   LIG    1        8.644  10.724 -10.921  0.00  0.00    -0.086 HD
BRANCH  46  49
ATOM     49  C   LIG    1        9.475  10.943 -12.832  0.00  0.00    -0.084 C 
BRANCH  49  50
ATOM     50  C   LIG    1        9.991  12.368 -12.563  0.00  0.00    -0.039 C 
BRANCH  50  51
ATOM     51  C   LIG    1       10.295  13.178 -13.837  0.00  0.00    -0.088 C 
BRANCH  51  52
ATOM     52  N   LIG    1        9.004  13.543 -14.581  0.00  0.00    +0.378 N 
ATOM     53  H   LIG    1        8.513  12.708 -14.867  0.00  0.00    -0.090 HD
ATOM     54  H   LIG    1        8.400  14.091 -13.985  0.00  0.00    -0.090 HD
ATOM     55  H   LIG    1        9.223  14.086 -15.405  0.00  0.00    -0.090 HD
ENDBRANCH  51  52
ENDBRANCH  50  51
ENDBRANCH  49  50
ENDBRANCH  46  49
ENDBRANCH  45  46
ENDBRANCH  44  45
ENDBRANCH  43  44
ENDBRANCH  42  43
ENDBRANCH  39  42
ENDBRANCH  38  39
ENDBRANCH  37  38
ENDBRANCH  36  37
ENDBRANCH  34  36
ENDBRANCH  29  32
ENDBRANCH  24  27
ENDBRANCH  21  22
ENDBRANCH  20  21
ENDBRANCH  18  20
ENDBRANCH  15  16
BRANCH  15  56
ATOM     56  C   LIG    1        6.988   3.463   1.600  0.00  0.00    +0.141 C 
ATOM     57  C   LIG    1        8.302   2.737   1.930  0.00  0.00    +0.040 C 
BRANCH  56  58
ATOM     58  O   LIG    1        6.847   3.544   0.191  0.00  0.00    -0.390 OA
ATOM     59  H   LIG    1        6.840   2.655  -0.169  0.00  0.00    +0.210 HD
ENDBRANCH  56  58
ENDBRANCH  15  56
ENDBRANCH  13  15
ENDBRANCH   9  11
ENDBRANCH   8   9
BRANCH   8  60
ATOM     60  O   LIG    1        3.236  -2.527   1.050  0.00  0.00    -0.389 OA
ATOM     61  H   LIG    1        2.368  -2.643   0.658  0.00  0.00    +0.210 HD
ENDBRANCH   8  60
ENDBRANCH   6   8
ENDBRANCH   4   6
ENDBRANCH   1   2
BRANCH   1  63
ATOM     62  C   LIG    1       -1.789  -0.403   1.700  0.00  0.00    +0.263 C 
ATOM     63  N   LIG    1       -1.452   0.692   0.990  0.00  0.00    -0.296 N 
ATOM     64  H   LIG    1       -1.851   1.578   1.266  0.00  0.00    +0.150 HD
ATOM     65  O   LIG    1       -1.348  -1.518   1.420  0.00  0.00    -0.268 OA
BRANCH  62  71
ATOM     66  C   LIG    1       -4.016   1.395   4.046  0.00  0.00    +0.149 A 
ATOM     67  N   LIG    1       -4.324   0.530   5.046  0.00  0.00    -0.216 NA
ATOM     68  C   LIG    1       -3.842  -0.732   4.940  0.00  0.00    +0.123 A 
ATOM     69  C   LIG    1       -3.024  -1.147   3.867  0.00  0.00    +0.020 A 
ATOM     70  C   LIG    1       -2.483  -2.581   3.804  0.00  0.00    +0.050 C 
ATOM     71  C   LIG    1       -2.725  -0.167   2.882  0.00  0.00    +0.134 A 
ATOM     72  N   LIG    1       -3.251   1.091   2.973  0.00  0.00    -0.225 NA
BRANCH  68  73
ATOM     73  N   LIG    1       -4.211  -1.591   5.975  0.00  0.00    -0.343 N 
ATOM     74  H   LIG    1       -4.788  -1.243   6.726  0.00  0.00    +0.144 HD
ATOM     75  H   LIG    1       -3.879  -2.545   5.970  0.00  0.00    +0.144 HD
ENDBRANCH  68  73
BRANCH  66  76
ATOM     76  C   LIG    1       -4.510   2.857   4.117  0.00  0.00    +0.131 C 
BRANCH  76  77
ATOM     77  N   LIG    1       -5.334   3.165   5.292  0.00  0.00    -0.308 NA
ATOM     78  H   LIG    1       -4.847   2.837   6.115  0.00  0.00    +0.123 HD
BRANCH  77  79
ATOM     79  C   LIG    1       -6.688   2.608   5.229  0.00  0.00    +0.074 C 
BRANCH  79  80
ATOM     80  C   LIG    1       -7.492   2.759   6.548  0.00  0.00    +0.026 C 
BRANCH  80  81
ATOM     81  C   LIG    1       -6.861   1.961   7.722  0.00  0.00    +0.197 C 
ATOM     82  N   LIG    1       -7.298   0.708   7.875  0.00  0.00    -0.331 N 
ATOM     83  H   LIG    1       -6.920   0.129   8.612  0.00  0.00    +0.145 HD
ATOM     84  H   LIG    1       -8.002   0.326   7.261  0.00  0.00    +0.145 HD
ATOM     85  O   LIG    1       -5.986   2.441   8.447  0.00  0.00    -0.278 OA
ENDBRANCH  80  81
BRANCH  80  86
ATOM     86  N   LIG    1       -7.664   4.183   7.009  0.00  0.00    +0.386 N 
ATOM     87  H   LIG    1       -6.792   4.498   7.410  0.00  0.00    -0.089 HD
ATOM     88  H   LIG    1       -7.899   4.759   6.214  0.00  0.00    -0.089 HD
ATOM     89  H   LIG    1       -8.400   4.225   7.700  0.00  0.00    -0.089 HD
ENDBRANCH  80  86
ENDBRANCH  79  80
ENDBRANCH  77  79
ENDBRANCH  76  77
BRANCH  76  90
ATOM     90  C   LIG    1       -3.345   3.888   4.020  0.00  0.00    +0.122 C 
BRANCH  90  91
ATOM     91  C   LIG    1       -2.225   3.748   5.068  0.00  0.00    +0.212 C 
ATOM     92  N   LIG    1       -0.970   3.680   4.617  0.00  0.00    -0.329 N 
ATOM     93  H   LIG    1       -0.203   3.589   5.267  0.00  0.00    +0.145 HD
ATOM     94  H   LIG    1       -0.780   3.697   3.625  0.00  0.00    +0.145 HD
ATOM     95  O   LIG    1       -2.486   3.708   6.269  0.00  0.00    -0.276 OA
ENDBRANCH  90  91
ENDBRANCH  76  90
ENDBRANCH  66  76
ENDBRANCH  62  71
ENDBRANCH   1  63
BRANCH   1  96
ATOM     96  C   LIG    1       -0.787   2.050  -0.967  0.00  0.00    +0.200 C 
BRANCH  96  97
ATOM     97  C   LIG    1       -0.527   3.404  -0.323  0.00  0.00    +0.090 A 
ATOM     98  C   LIG    1       -0.059   4.556  -0.926  0.00  0.00    +0.110 A 
ATOM     99  N   LIG    1       -0.022   5.529   0.056  0.00  0.00    -0.350 N 
ATOM    100  H   LIG    1        0.275   6.487  -0.059  0.00  0.00    +0.166 HD
ATOM    101  C   LIG    1       -0.462   4.964   1.180  0.00  0.00    +0.196 A 
ATOM    102  N   LIG    1       -0.787   3.689   1.026  0.00  0.00    -0.238 NA
ENDBRANCH  96  97
BRANCH  96 103
ATOM    103  O   LIG    1       -2.162   2.037  -1.355  0.00  0.00    -0.337 OA
BRANCH 103 104
ATOM    104  C   LIG    1       -2.497   1.281  -2.483  0.00  0.00    +0.283 C 
ATOM    105  C   LIG    1       -4.029   1.255  -2.614  0.00  0.00    +0.208 C 
ATOM    106  C   LIG    1       -4.587   2.622  -3.088  0.00  0.00    +0.179 C 
ATOM    107  C   LIG    1       -3.812   3.124  -4.324  0.00  0.00    +0.177 C 
ATOM    108  C   LIG    1       -2.286   3.081  -4.051  0.00  0.00    +0.178 C 
ATOM    109  O   LIG    1       -1.889   1.758  -3.662  0.00  0.00    -0.340 OA
BRANCH 106 110
ATOM    110  O   LIG    1       -4.556   3.599  -2.058  0.00  0.00    -0.386 OA
ATOM    111  H   LIG    1       -4.764   3.171  -1.224  0.00  0.00    +0.210 HD
ENDBRANCH 106 110
BRANCH 107 112
ATOM    112  O   LIG    1       -4.171   2.399  -5.489  0.00  0.00    -0.386 OA
ATOM    113  H   LIG    1       -3.951   1.474  -5.354  0.00  0.00    +0.210 HD
ENDBRANCH 107 112
BRANCH 108 114
ATOM    114  C   LIG    1       -1.431   3.536  -5.253  0.00  0.00    +0.190 C 
BRANCH 114 115
ATOM    115  O   LIG    1       -0.073   3.660  -4.881  0.00  0.00    -0.392 OA
ATOM    116  H   LIG    1        0.277   2.783  -4.710  0.00  0.00    +0.210 HD
ENDBRANCH 114 115
ENDBRANCH 108 114
BRANCH 105 117
ATOM    117  O   LIG    1       -4.617   0.798  -1.392  0.00  0.00    -0.338 OA
BRANCH 117 118
ATOM    118  C   LIG    1       -5.903   0.246  -1.463  0.00  0.00    +0.283 C 
ATOM    119  C   LIG    1       -6.901   1.194  -0.774  0.00  0.00    +0.213 C 
ATOM    120  C   LIG    1       -6.669   1.211   0.757  0.00  0.00    +0.242 C 
ATOM    121  C   LIG    1       -6.699  -0.224   1.312  0.00  0.00    +0.189 C 
ATOM    122  C   LIG    1       -5.676  -1.085   0.527  0.00  0.00    +0.179 C 
ATOM    123  O   LIG    1       -5.929  -1.040  -0.887  0.00  0.00    -0.340 OA
BRANCH 119 124
ATOM    124  O   LIG    1       -8.228   0.834  -1.118  0.00  0.00    -0.383 OA
ATOM    125  H   LIG    1       -8.829   1.254  -0.498  0.00  0.00    +0.210 HD
ENDBRANCH 119 124
BRANCH 121 126
ATOM    126  O   LIG    1       -6.440  -0.242   2.703  0.00  0.00    -0.385 OA
ATOM    127  H   LIG    1       -5.580   0.155   2.859  0.00  0.00    +0.210 HD
ENDBRANCH 121 126
BRANCH 122 128
ATOM    128  C   LIG    1       -5.604  -2.561   0.974  0.00  0.00    +0.190 C 
BRANCH 128 129
ATOM    129  O   LIG    1       -6.852  -3.215   0.853  0.00  0.00    -0.392 OA
ATOM    130  H   LIG    1       -6.748  -4.127   1.133  0.00  0.00    +0.210 HD
ENDBRANCH 128 129
ENDBRANCH 122 128
BRANCH 120 131
ATOM    131  O   LIG    1       -7.606   2.061   1.429  0.00  0.00    -0.442 OA
BRANCH 131 132
ATOM    132  C   LIG    1       -7.454   3.404   1.457  0.00  0.00    +0.398 C 
ATOM    133  N   LIG    1       -8.522   3.971   2.113  0.00  0.00    -0.295 N 
ATOM    134  H   LIG    1       -8.561   4.974   2.216  0.00  0.00    +0.148 HD
ATOM    135  H   LIG    1       -9.267   3.379   2.451  0.00  0.00    +0.148 HD
ATOM    136  O   LIG    1       -6.507   4.025   0.974  0.00  0.00    -0.227 OA
ENDBRANCH 131 132
ENDBRANCH 120 131
ENDBRANCH 117 118
ENDBRANCH 105 117
ENDBRANCH 103 104
ENDBRANCH  96 103
ENDBRANCH   1  96
TORSDOF 55
