REMARK  Name = DB12144
REMARK                            x       y       z     vdW  Elec       q    Type
REMARK                         _______ _______ _______ _____ _____    ______ ____
ROOT
ATOM      1  C   LIG    1       -0.253  -2.183  -2.018  0.00  0.00    +0.043 C 
ATOM      2  C   LIG    1       -1.261  -1.238  -1.358  0.00  0.00    -0.029 C 
ATOM      3  C   LIG    1       -0.896  -0.748   0.058  0.00  0.00    +0.205 C 
ATOM      4  C   LIG    1       -1.466   0.679   0.367  0.00  0.00    +0.088 C 
ATOM      5  C   LIG    1       -2.689   1.171  -0.492  0.00  0.00    +0.116 C 
ATOM      6  C   LIG    1       -3.464  -0.028  -1.148  0.00  0.00    +0.023 C 
ATOM      7  C   LIG    1       -4.029  -1.015  -0.073  0.00  0.00    +0.018 C 
ATOM      8  C   LIG    1       -4.733   0.459  -1.928  0.00  0.00    +0.018 C 
ATOM      9  C   LIG    1       -2.203   2.272  -1.574  0.00  0.00    +0.217 C 
ATOM     10  C   LIG    1       -0.991   1.923  -2.559  0.00  0.00    +0.097 C 
ATOM     11  C   LIG    1        0.309   2.830  -2.463  0.00  0.00    +0.173 C 
ATOM     12  C   LIG    1        0.168   4.294  -2.954  0.00  0.00    +0.211 C 
ATOM     13  O   LIG    1        1.142   4.038  -4.055  0.00  0.00    -0.368 OA
ATOM     14  C   LIG    1        1.391   2.649  -3.557  0.00  0.00    +0.167 C 
ATOM     15  C   LIG    1        1.183   1.626  -4.694  0.00  0.00    +0.068 C 
ATOM     16  C   LIG    1       -0.131   0.806  -4.706  0.00  0.00    +0.131 C 
ATOM     17  C   LIG    1       -1.378   1.515  -4.062  0.00  0.00    +0.066 C 
ATOM     18  C   LIG    1       -1.764   2.758  -4.936  0.00  0.00    +0.022 C 
ATOM     19  C   LIG    1       -2.592   0.498  -4.173  0.00  0.00    +0.187 C 
ATOM     20  O   LIG    1       -3.600   0.782  -4.829  0.00  0.00    -0.292 OA
ATOM     21  C   LIG    1       -2.529  -0.905  -3.500  0.00  0.00    +0.270 C 
ATOM     22  C   LIG    1       -2.392  -0.793  -1.978  0.00  0.00    -0.011 C 
ENDROOT
BRANCH   5  23
ATOM     23  O   LIG    1       -3.552   1.913   0.366  0.00  0.00    -0.384 OA
ATOM     24  H   LIG    1       -4.249   2.305  -0.165  0.00  0.00    +0.210 HD
ENDBRANCH   5  23
BRANCH  16  25
ATOM     25  O   LIG    1       -0.344   0.341  -6.033  0.00  0.00    -0.391 OA
ATOM     26  H   LIG    1        0.416  -0.181  -6.301  0.00  0.00    +0.210 HD
ENDBRANCH  16  25
BRANCH   3  27
ATOM     27  O   LIG    1        0.527  -0.719   0.217  0.00  0.00    -0.455 OA
BRANCH  27  28
ATOM     28  C   LIG    1        1.180  -1.541   1.079  0.00  0.00    +0.338 C 
ATOM     29  O   LIG    1        0.640  -2.291   1.898  0.00  0.00    -0.248 OA
BRANCH  28  30
ATOM     30  C   LIG    1        2.713  -1.467   0.899  0.00  0.00    +0.243 C 
BRANCH  30  31
ATOM     31  O   LIG    1        3.337  -2.387   1.787  0.00  0.00    -0.379 OA
ATOM     32  H   LIG    1        2.939  -3.251   1.663  0.00  0.00    +0.211 HD
ENDBRANCH  30  31
BRANCH  30  33
ATOM     33  C   LIG    1        3.331  -0.026   1.022  0.00  0.00    +0.121 C 
BRANCH  33  34
ATOM     34  N   LIG    1        3.476   0.407   2.426  0.00  0.00    -0.275 N 
ATOM     35  H   LIG    1        4.375   0.273   2.866  0.00  0.00    +0.152 HD
ATOM     36  C   LIG    1        2.435   0.891   3.206  0.00  0.00    +0.401 C 
ATOM     37  O   LIG    1        1.278   1.091   2.832  0.00  0.00    -0.226 OA
BRANCH  36  38
ATOM     38  O   LIG    1        2.901   1.111   4.463  0.00  0.00    -0.445 OA
BRANCH  38  39
ATOM     39  C   LIG    1        2.106   1.552   5.580  0.00  0.00    +0.107 C 
ATOM     40  C   LIG    1        3.100   1.605   6.758  0.00  0.00    +0.055 C 
ATOM     41  C   LIG    1        1.525   2.967   5.338  0.00  0.00    +0.055 C 
ATOM     42  C   LIG    1        0.980   0.539   5.907  0.00  0.00    +0.055 C 
ENDBRANCH  38  39
ENDBRANCH  36  38
ENDBRANCH  33  34
BRANCH  33  43
ATOM     43  C   LIG    1        4.660   0.180   0.196  0.00  0.00    -0.016 C 
ATOM     44  C   LIG    1        5.773  -0.804   0.637  0.00  0.00    +0.012 C 
ATOM     45  C   LIG    1        4.392  -0.009  -1.320  0.00  0.00    +0.012 C 
ATOM     46  C   LIG    1        5.209   1.619   0.379  0.00  0.00    +0.012 C 
ENDBRANCH  33  43
ENDBRANCH  30  33
ENDBRANCH  28  30
ENDBRANCH  27  28
ENDBRANCH   3  27
BRANCH   9  47
ATOM     47  O   LIG    1       -1.865   3.493  -0.888  0.00  0.00    -0.454 OA
BRANCH  47  48
ATOM     48  C   LIG    1       -2.584   4.645  -0.999  0.00  0.00    +0.340 C 
ATOM     49  O   LIG    1       -3.580   4.765  -1.718  0.00  0.00    -0.245 OA
BRANCH  48  50
ATOM     50  C   LIG    1       -1.989   5.773  -0.212  0.00  0.00    +0.059 A 
ATOM     51  C   LIG    1       -2.441   7.081  -0.437  0.00  0.00    +0.015 A 
ATOM     52  C   LIG    1       -1.901   8.147   0.278  0.00  0.00    +0.001 A 
ATOM     53  C   LIG    1       -0.907   7.912   1.225  0.00  0.00    +0.000 A 
ATOM     54  C   LIG    1       -0.453   6.619   1.466  0.00  0.00    +0.001 A 
ATOM     55  C   LIG    1       -0.993   5.552   0.753  0.00  0.00    +0.015 A 
ENDBRANCH  48  50
ENDBRANCH  47  48
ENDBRANCH   9  47
BRANCH  11  56
ATOM     56  O   LIG    1        0.819   2.717  -1.112  0.00  0.00    -0.422 OA
BRANCH  56  57
ATOM     57  C   LIG    1        1.839   3.439  -0.566  0.00  0.00    +0.511 C 
ATOM     58  O   LIG    1        2.646   4.151  -1.169  0.00  0.00    -0.203 OA
BRANCH  57  59
ATOM     59  O   LIG    1        1.769   3.284   0.766  0.00  0.00    -0.437 OA
ATOM     60  C   LIG    1        2.586   4.066   1.627  0.00  0.00    +0.284 C 
ENDBRANCH  57  59
ENDBRANCH  56  57
ENDBRANCH  11  56
BRANCH  21  61
ATOM     61  O   LIG    1       -3.646  -1.740  -3.833  0.00  0.00    -0.449 OA
BRANCH  61  62
ATOM     62  C   LIG    1       -3.665  -2.511  -4.947  0.00  0.00    +0.305 C 
ATOM     63  C   LIG    1       -4.964  -3.295  -5.081  0.00  0.00    +0.136 C 
ATOM     64  O   LIG    1       -2.768  -2.606  -5.785  0.00  0.00    -0.251 OA
ENDBRANCH  61  62
ENDBRANCH  21  61
TORSDOF 19
