REMARK  Name = DB12028
REMARK                            x       y       z     vdW  Elec       q    Type
REMARK                         _______ _______ _______ _____ _____    ______ ____
ROOT
ATOM      1  C1* LIG    1       -1.998   0.933  -0.496  0.00  0.00    +0.226 C 
ATOM      2  C2* LIG    1       -1.506   0.210  -1.743  0.00  0.00    +0.088 C 
ATOM      3  C3* LIG    1       -0.600  -0.830  -1.097  0.00  0.00    +0.150 C 
ATOM      4  C4* LIG    1        0.011  -0.090   0.108  0.00  0.00    +0.175 C 
ATOM      5  O4* LIG    1       -0.892   0.988   0.353  0.00  0.00    -0.348 OA
ENDROOT
BRANCH   1   6
ATOM      6  N   LIG    1       -2.564   2.264  -0.679  0.00  0.00    -0.273 N 
ATOM      7  C   LIG    1       -1.766   3.269  -1.176  0.00  0.00    +0.113 A 
ATOM      8  C   LIG    1       -2.193   4.528  -1.390  0.00  0.00    +0.098 A 
ATOM      9  C   LIG    1       -3.575   4.862  -1.083  0.00  0.00    +0.268 A 
ATOM     10  O   LIG    1       -4.076   5.973  -1.240  0.00  0.00    -0.267 OA
ATOM     11  N   LIG    1       -4.283   3.801  -0.593  0.00  0.00    -0.274 N 
ATOM     12  H   LIG    1       -5.247   3.999  -0.369  0.00  0.00    +0.173 HD
ATOM     13 BR   LIG    1       -0.990   5.924  -2.100  0.00  0.00    -0.043 Br
ATOM     14  C   LIG    1       -3.888   2.507  -0.360  0.00  0.00    +0.331 A 
ATOM     15  O   LIG    1       -4.698   1.693   0.086  0.00  0.00    -0.246 OA
ENDBRANCH   1   6
BRANCH   3  16
ATOM     16  O3* LIG    1       -1.312  -1.993  -0.712  0.00  0.00    -0.389 OA
ATOM     17  H3* LIG    1       -1.800  -2.319  -1.472  0.00  0.00    +0.210 HD
ENDBRANCH   3  16
BRANCH   4  18
ATOM     18  C5* LIG    1        1.407   0.505  -0.167  0.00  0.00    +0.190 C 
BRANCH  18  19
ATOM     19  O5* LIG    1        1.914   1.157   0.980  0.00  0.00    -0.392 OA
ATOM     20  H5* LIG    1        2.781   1.515   0.772  0.00  0.00    +0.210 HD
ENDBRANCH  18  19
ENDBRANCH   4  18
TORSDOF 4
