REMARK  Name = DB12353
REMARK                            x       y       z     vdW  Elec       q    Type
REMARK                         _______ _______ _______ _____ _____    ______ ____
ROOT
ATOM      1  C   LIG    1       -1.089   2.247  -0.936  0.00  0.00    +0.090 A 
ATOM      2  N   LIG    1       -1.402   3.519  -0.530  0.00  0.00    -0.355 N 
ATOM      3  H   LIG    1       -1.875   4.219  -1.084  0.00  0.00    +0.166 HD
ATOM      4  C   LIG    1       -0.961   3.679   0.753  0.00  0.00    +0.130 A 
ATOM      5  C   LIG    1       -1.044   4.835   1.636  0.00  0.00    +0.275 A 
ATOM      6  N   LIG    1       -0.456   4.524   2.839  0.00  0.00    -0.312 N 
ATOM      7  H   LIG    1       -0.465   5.270   3.519  0.00  0.00    +0.170 HD
ATOM      8  C   LIG    1        0.133   3.329   3.215  0.00  0.00    +0.199 A 
ATOM      9  N   LIG    1        0.188   2.321   2.408  0.00  0.00    -0.235 NA
ATOM     10  O   LIG    1       -1.542   5.936   1.412  0.00  0.00    -0.266 OA
ATOM     11  C   LIG    1       -0.359   2.483   1.162  0.00  0.00    +0.100 A 
ATOM     12  C   LIG    1       -0.433   1.567   0.092  0.00  0.00    +0.010 A 
ENDROOT
BRANCH  12  13
ATOM     13  C   LIG    1        0.089   0.143   0.056  0.00  0.00    +0.123 C 
BRANCH  13  14
ATOM     14  N   LIG    1        1.537   0.100  -0.142  0.00  0.00    -0.295 NA
ATOM     15  C   LIG    1        2.087  -1.245  -0.051  0.00  0.00    +0.116 C 
ATOM     16  C   LIG    1        3.502  -1.167  -0.640  0.00  0.00    +0.135 C 
ATOM     17  C   LIG    1        3.444   0.071  -1.562  0.00  0.00    +0.058 C 
ATOM     18  C   LIG    1        1.980   0.523  -1.464  0.00  0.00    +0.093 C 
BRANCH  16  19
ATOM     19  O   LIG    1        4.522  -1.048   0.333  0.00  0.00    -0.390 OA
ATOM     20  H   LIG    1        4.325  -0.286   0.884  0.00  0.00    +0.210 HD
ENDBRANCH  16  19
BRANCH  17  21
ATOM     21  C   LIG    1        3.946  -0.199  -2.995  0.00  0.00    +0.163 C 
BRANCH  21  22
ATOM     22  O   LIG    1        3.920   0.981  -3.772  0.00  0.00    -0.395 OA
ATOM     23  H   LIG    1        4.255   0.778  -4.648  0.00  0.00    +0.209 HD
ENDBRANCH  21  22
ENDBRANCH  17  21
ENDBRANCH  13  14
ENDBRANCH  12  13
TORSDOF 5
