REMARK  Name = DB12004
REMARK                            x       y       z     vdW  Elec       q    Type
REMARK                         _______ _______ _______ _____ _____    ______ ____
ROOT
ATOM      1  S   LIG    1       -0.330   1.002   1.507  0.00  0.00    -0.006 S 
ATOM      2  O   LIG    1       -1.050  -0.099   0.857  0.00  0.00    -0.170 OA
ATOM      3  O   LIG    1       -0.318   1.097   2.971  0.00  0.00    -0.170 OA
ENDROOT
BRANCH   1   4
ATOM      4  C   LIG    1        1.385   0.987   0.960  0.00  0.00    +0.135 C 
ATOM      5  C   LIG    1        1.762   0.209  -0.073  0.00  0.00    +0.034 C 
BRANCH   5   6
ATOM      6  C   LIG    1        3.124   0.102  -0.654  0.00  0.00    +0.060 A 
ATOM      7  C   LIG    1        3.235   0.096  -2.057  0.00  0.00    +0.134 A 
ATOM      8  C   LIG    1        4.507   0.009  -2.643  0.00  0.00    +0.092 A 
ATOM      9  C   LIG    1        5.661  -0.069  -1.871  0.00  0.00    +0.127 A 
ATOM     10  C   LIG    1        5.538  -0.064  -0.476  0.00  0.00    +0.092 A 
ATOM     11  C   LIG    1        4.282   0.017   0.147  0.00  0.00    +0.134 A 
BRANCH   7  12
ATOM     12  O   LIG    1        2.067   0.189  -2.797  0.00  0.00    -0.494 OA
ATOM     13  C   LIG    1        2.125   0.200  -4.219  0.00  0.00    +0.277 C 
ENDBRANCH   7  12
BRANCH   9  14
ATOM     14  O   LIG    1        6.859  -0.149  -2.554  0.00  0.00    -0.495 OA
ATOM     15  C   LIG    1        8.075  -0.242  -1.820  0.00  0.00    +0.277 C 
ENDBRANCH   9  14
BRANCH  11  16
ATOM     16  O   LIG    1        4.125  -0.005   1.523  0.00  0.00    -0.494 OA
ATOM     17  C   LIG    1        5.265  -0.099   2.371  0.00  0.00    +0.277 C 
ENDBRANCH  11  16
ENDBRANCH   5   6
ENDBRANCH   1   4
BRANCH   1  18
ATOM     18  C   LIG    1       -0.989   2.638   0.813  0.00  0.00    +0.206 C 
BRANCH  18  22
ATOM     19  C   LIG    1       -0.882   2.727  -3.520  0.00  0.00    +0.162 A 
ATOM     20  C   LIG    1       -1.986   2.182  -2.850  0.00  0.00    +0.174 A 
ATOM     21  C   LIG    1       -2.016   2.157  -1.451  0.00  0.00    +0.055 A 
ATOM     22  C   LIG    1       -0.956   2.680  -0.708  0.00  0.00    -0.022 A 
ATOM     23  C   LIG    1        0.139   3.234  -1.373  0.00  0.00    +0.009 A 
ATOM     24  C   LIG    1        0.180   3.254  -2.766  0.00  0.00    +0.050 A 
BRANCH  19  26
ATOM     25  C   LIG    1        0.155   3.307  -5.632  0.00  0.00    +0.277 C 
ATOM     26  O   LIG    1       -0.915   2.715  -4.904  0.00  0.00    -0.491 OA
ENDBRANCH  19  26
BRANCH  20  27
ATOM     27  O   LIG    1       -3.021   1.672  -3.593  0.00  0.00    -0.400 OA
BRANCH  27  28
ATOM     28  P   LIG    1       -4.684   1.333  -3.120  0.00  0.00    +0.528 P 
ATOM     29  O   LIG    1       -4.648  -0.038  -2.420  0.00  0.00    -0.216 OA
BRANCH  28  30
ATOM     30  O   LIG    1       -5.489   1.315  -4.432  0.00  0.00    -0.293 OA
ATOM     31  H   LIG    1       -5.186   0.579  -4.987  0.00  0.00    +0.223 HD
ENDBRANCH  28  30
BRANCH  28  32
ATOM     32  O   LIG    1       -5.107   2.478  -2.179  0.00  0.00    -0.293 OA
ATOM     33  H   LIG    1       -4.572   2.446  -1.370  0.00  0.00    +0.223 HD
ENDBRANCH  28  32
ENDBRANCH  27  28
ENDBRANCH  20  27
ENDBRANCH  18  22
ENDBRANCH   1  18
TORSDOF 12
