REMARK  Name = DB12614
REMARK                            x       y       z     vdW  Elec       q    Type
REMARK                         _______ _______ _______ _____ _____    ______ ____
ROOT
ATOM      1  C   LIG    1       -2.142   1.100   0.004  0.00  0.00    +0.004 A 
ATOM      2  C   LIG    1       -2.762  -0.151  -0.043  0.00  0.00    -0.047 A 
ATOM      3  C   LIG    1       -1.989  -1.310  -0.133  0.00  0.00    +0.004 A 
ATOM      4  C   LIG    1       -0.600  -1.220  -0.171  0.00  0.00    +0.004 A 
ATOM      5  C   LIG    1        0.026   0.030  -0.129  0.00  0.00    -0.036 A 
ATOM      6  C   LIG    1       -0.753   1.190  -0.035  0.00  0.00    +0.004 A 
ENDROOT
BRANCH   5   7
ATOM      7  C   LIG    1        1.566   0.111  -0.130  0.00  0.00    +0.103 C 
ATOM      8  C   LIG    1        2.097   1.154  -1.144  0.00  0.00    +0.022 C 
BRANCH   7   9
ATOM      9  C   LIG    1        2.223   0.280   1.272  0.00  0.00    +0.239 C 
ATOM     10  O   LIG    1        3.458   0.313   1.287  0.00  0.00    -0.274 OA
ATOM     11  N   LIG    1        1.450   0.359   2.333  0.00  0.00    -0.190 N 
ATOM     12  H   LIG    1        0.472   0.320   2.224  0.00  0.00    +0.176 HD
BRANCH  11  13
ATOM     13  S   LIG    1        2.060   0.516   3.771  0.00  0.00    +0.042 S 
ATOM     14  O   LIG    1        2.728   1.808   3.976  0.00  0.00    -0.155 OA
ATOM     15  O   LIG    1        2.776  -0.681   4.227  0.00  0.00    -0.155 OA
ATOM     16  C   LIG    1        0.521   0.597   4.857  0.00  0.00    +0.218 C 
ENDBRANCH  11  13
ENDBRANCH   7   9
ENDBRANCH   5   7
BRANCH   2  17
ATOM     17  C   LIG    1       -4.281  -0.255   0.013  0.00  0.00    +0.038 C 
BRANCH  17  18
ATOM     18  C   LIG    1       -4.833  -0.676   1.397  0.00  0.00    -0.013 C 
ATOM     19  C   LIG    1       -4.485   0.332   2.511  0.00  0.00    +0.007 C 
ATOM     20  C   LIG    1       -6.352  -0.915   1.334  0.00  0.00    +0.007 C 
ENDBRANCH  17  18
ENDBRANCH   2  17
TORSDOF 5
