REMARK  Name = DB12924
REMARK                            x       y       z     vdW  Elec       q    Type
REMARK                         _______ _______ _______ _____ _____    ______ ____
ROOT
ATOM      1  C   LIG    1        1.419   0.167  -0.235  0.00  0.00    -0.012 A 
ATOM      2  C   LIG    1        2.113  -0.127  -1.428  0.00  0.00    -0.019 A 
ATOM      3  C   LIG    1        1.326  -0.625  -2.646  0.00  0.00    +0.046 C 
ATOM      4  C   LIG    1        3.527  -0.012  -1.462  0.00  0.00    +0.057 A 
ATOM      5  N   LIG    1        4.303  -0.152  -2.646  0.00  0.00    -0.342 N 
ATOM      6  C   LIG    1        5.643  -0.474  -2.544  0.00  0.00    +0.105 A 
ATOM      7  C   LIG    1        6.412  -0.289  -1.437  0.00  0.00    +0.122 A 
ATOM      8  C   LIG    1        5.759   0.250  -0.207  0.00  0.00    +0.203 A 
ATOM      9  O   LIG    1        6.354   0.604   0.814  0.00  0.00    -0.286 OA
ATOM     10  C   LIG    1        4.245   0.269  -0.272  0.00  0.00    +0.046 A 
ATOM     11  C   LIG    1        3.525   0.571   0.889  0.00  0.00    +0.014 A 
ATOM     12  C   LIG    1        2.138   0.539   0.900  0.00  0.00    +0.009 A 
ENDROOT
BRANCH   1  18
ATOM     13  C   LIG    1       -2.838  -2.493   0.241  0.00  0.00    +0.047 C 
ATOM     14  C   LIG    1       -2.129  -1.149   0.115  0.00  0.00    -0.010 A 
ATOM     15  C   LIG    1       -2.830   0.071   0.110  0.00  0.00    +0.121 A 
ATOM     16  N   LIG    1       -2.183   1.265  -0.002  0.00  0.00    -0.240 NA
ATOM     17  C   LIG    1       -0.832   1.269  -0.113  0.00  0.00    +0.121 A 
ATOM     18  C   LIG    1       -0.061   0.104  -0.124  0.00  0.00    +0.001 A 
ATOM     19  C   LIG    1       -0.734  -1.116   0.000  0.00  0.00    +0.016 A 
BRANCH  15  20
ATOM     20  N   LIG    1       -4.234   0.070   0.223  0.00  0.00    -0.332 N 
ATOM     21  H   LIG    1       -4.722  -0.810   0.308  0.00  0.00    +0.147 HD
ATOM     22  C   LIG    1       -5.011   1.302   0.232  0.00  0.00    +0.127 C 
ENDBRANCH  15  20
ENDBRANCH   1  18
BRANCH   5  23
ATOM     23  C   LIG    1        3.873   0.343  -3.961  0.00  0.00    +0.087 C 
ATOM     24  C   LIG    1        3.147   1.683  -4.029  0.00  0.00    +0.027 C 
ATOM     25  C   LIG    1        4.562   1.590  -4.502  0.00  0.00    +0.027 C 
ENDBRANCH   5  23
BRANCH   7  26
ATOM     26  C   LIG    1        7.838  -0.630  -1.456  0.00  0.00    +0.342 C 
ATOM     27  O   LIG    1        8.589  -0.534  -0.486  0.00  0.00    -0.245 OA
BRANCH  26  28
ATOM     28  O   LIG    1        8.295  -1.080  -2.665  0.00  0.00    -0.477 OA
ATOM     29  H   LIG    1        9.230  -1.295  -2.639  0.00  0.00    +0.295 HD
ENDBRANCH  26  28
ENDBRANCH   7  26
TORSDOF 5
