REMARK  Name = DB12186
REMARK                            x       y       z     vdW  Elec       q    Type
REMARK                         _______ _______ _______ _____ _____    ______ ____
ROOT
ATOM      1  C   LIG    1        1.736  -0.251   0.109  0.00  0.00    +0.043 A 
ATOM      2  C   LIG    1        2.434   0.652   0.942  0.00  0.00    +0.023 A 
ATOM      3  C   LIG    1        3.835   0.602   0.968  0.00  0.00    +0.012 A 
ATOM      4  C   LIG    1        4.536  -0.303   0.175  0.00  0.00    +0.001 A 
ATOM      5  C   LIG    1        3.846  -1.176  -0.662  0.00  0.00    +0.002 A 
ATOM      6  C   LIG    1        2.454  -1.149  -0.699  0.00  0.00    +0.024 A 
ENDROOT
BRANCH   2   7
ATOM      7  C   LIG    1        1.773   1.671   1.831  0.00  0.00    +0.092 A 
ATOM      8  N   LIG    1        0.699   2.344   1.450  0.00  0.00    -0.221 NA
ATOM      9  C   LIG    1        0.385   3.119   2.461  0.00  0.00    +0.178 A 
ATOM     10  S   LIG    1       -0.875   4.288   2.804  0.00  0.00    -0.057 S 
ATOM     11  C   LIG    1       -0.165   4.556   4.390  0.00  0.00    +0.071 A 
ATOM     12  C   LIG    1        0.960   3.790   4.628  0.00  0.00    +0.046 A 
ATOM     13  N   LIG    1        1.250   2.992   3.529  0.00  0.00    -0.296 N 
ATOM     14  C   LIG    1        2.170   2.047   3.115  0.00  0.00    +0.122 A 
BRANCH  12  15
ATOM     15  C   LIG    1        1.842   3.719   5.862  0.00  0.00    +0.138 C 
BRANCH  15  16
ATOM     16  N   LIG    1        1.265   2.878   6.915  0.00  0.00    -0.292 NA
ATOM     17  C   LIG    1        1.933   3.128   8.199  0.00  0.00    +0.113 C 
ATOM     18  C   LIG    1        1.387   2.209   9.312  0.00  0.00    +0.175 C 
ATOM     19  O   LIG    1        1.494   0.847   8.915  0.00  0.00    -0.377 OA
ATOM     20  C   LIG    1        0.767   0.572   7.723  0.00  0.00    +0.175 C 
ATOM     21  C   LIG    1        1.294   1.448   6.567  0.00  0.00    +0.113 C 
ENDBRANCH  15  16
ENDBRANCH  12  15
ENDBRANCH   2   7
BRANCH   1  23
ATOM     22  C   LIG    1       -0.540  -1.235  -0.011  0.00  0.00    +0.257 C 
ATOM     23  N   LIG    1        0.332  -0.207   0.085  0.00  0.00    -0.280 N 
ATOM     24  H   LIG    1       -0.062   0.704   0.272  0.00  0.00    +0.155 HD
ATOM     25  O   LIG    1       -0.215  -2.412  -0.173  0.00  0.00    -0.269 OA
BRANCH  22  31
ATOM     26  C   LIG    1       -3.235  -3.015  -0.688  0.00  0.00    +0.067 C 
ATOM     27  C   LIG    1       -3.095  -1.607  -0.141  0.00  0.00    +0.058 A 
ATOM     28  N   LIG    1       -4.240  -1.000   0.126  0.00  0.00    -0.243 NA
ATOM     29  C   LIG    1       -4.094   0.217   0.595  0.00  0.00    +0.111 A 
ATOM     30  S   LIG    1       -2.432   0.706   0.747  0.00  0.00    -0.062 S 
ATOM     31  C   LIG    1       -1.935  -0.856   0.121  0.00  0.00    +0.097 A 
BRANCH  29  32
ATOM     32  C   LIG    1       -5.238   1.115   0.976  0.00  0.00    +0.025 A 
ATOM     33  C   LIG    1       -5.046   2.424   1.447  0.00  0.00    +0.121 A 
ATOM     34  N   LIG    1       -6.061   3.256   1.796  0.00  0.00    -0.263 NA
ATOM     35  C   LIG    1       -7.328   2.789   1.683  0.00  0.00    +0.111 A 
ATOM     36  C   LIG    1       -7.623   1.505   1.226  0.00  0.00    +0.020 A 
ATOM     37  C   LIG    1       -6.565   0.667   0.871  0.00  0.00    +0.013 A 
ENDBRANCH  29  32
ENDBRANCH  22  31
ENDBRANCH   1  23
TORSDOF 6
