REMARK  Name = DB12664
REMARK                            x       y       z     vdW  Elec       q    Type
REMARK                         _______ _______ _______ _____ _____    ______ ____
ROOT
ATOM      1  C   LIG    1       -2.455   5.141   2.211  0.00  0.00    +0.000 A 
ATOM      2  C   LIG    1       -1.270   4.404   2.223  0.00  0.00    +0.004 A 
ATOM      3  C   LIG    1       -1.159   3.257   1.435  0.00  0.00    -0.046 A 
ATOM      4  C   LIG    1       -0.042   2.239   1.364  0.00  0.00    +0.020 C 
ATOM      5  C   LIG    1       -0.406   1.399   0.133  0.00  0.00    -0.062 C 
ATOM      6  C   LIG    1       -1.933   1.486   0.039  0.00  0.00    +0.020 C 
ATOM      7  C   LIG    1       -2.247   2.825   0.669  0.00  0.00    -0.046 A 
ATOM      8  C   LIG    1       -3.445   3.541   0.690  0.00  0.00    +0.004 A 
ATOM      9  C   LIG    1       -3.541   4.711   1.445  0.00  0.00    +0.000 A 
ENDROOT
BRANCH   5  10
ATOM     10  N   LIG    1        0.176  -0.025   0.066  0.00  0.00    +0.387 N 
ATOM     11  H   LIG    1       -0.184  -0.467  -0.767  0.00  0.00    -0.085 HD
ATOM     12  H   LIG    1       -0.172  -0.541   0.862  0.00  0.00    -0.085 HD
BRANCH  10  13
ATOM     13  C   LIG    1        1.670  -0.045   0.054  0.00  0.00    +0.015 C 
BRANCH  13  14
ATOM     14  C   LIG    1        2.124  -1.482  -0.235  0.00  0.00    +0.193 C 
ATOM     15  N   LIG    1        1.785  -2.035  -1.405  0.00  0.00    -0.331 N 
ATOM     16  H   LIG    1        2.084  -2.976  -1.620  0.00  0.00    +0.145 HD
ATOM     17  H   LIG    1        1.252  -1.519  -2.089  0.00  0.00    +0.145 HD
ATOM     18  O   LIG    1        2.806  -2.085   0.589  0.00  0.00    -0.278 OA
ENDBRANCH  13  14
ENDBRANCH  10  13
ENDBRANCH   5  10
TORSDOF 3
