REMARK  Name = DB12681
REMARK                            x       y       z     vdW  Elec       q    Type
REMARK                         _______ _______ _______ _____ _____    ______ ____
ROOT
ATOM      1  C   LIG    1        3.453  -0.756  -1.272  0.00  0.00    -0.075 C 
ATOM      2  C   LIG    1        3.905  -0.870  -2.723  0.00  0.00    +0.039 C 
ATOM      3  C   LIG    1        4.278  -0.928  -0.212  0.00  0.00    -0.017 C 
ENDROOT
BRANCH   1   4
ATOM      4  C   LIG    1        1.968  -0.407  -1.135  0.00  0.00    +0.034 C 
BRANCH   4   5
ATOM      5  C   LIG    1        1.396  -0.250   0.289  0.00  0.00    +0.031 C 
BRANCH   5   8
ATOM      6  C   LIG    1       -0.668   1.277   0.525  0.00  0.00    -0.076 C 
ATOM      7  C   LIG    1        0.106   2.569   0.758  0.00  0.00    +0.039 C 
ATOM      8  C   LIG    1       -0.089   0.076   0.303  0.00  0.00    -0.028 C 
BRANCH   6   9
ATOM      9  C   LIG    1       -2.185   1.432   0.521  0.00  0.00    +0.034 C 
BRANCH   9  10
ATOM     10  C   LIG    1       -2.787   1.804   1.888  0.00  0.00    +0.031 C 
BRANCH  10  14
ATOM     11  C   LIG    1       -6.708   1.376   2.232  0.00  0.00    +0.038 C 
ATOM     12  C   LIG    1       -5.222   1.070   2.316  0.00  0.00    -0.080 C 
ATOM     13  C   LIG    1       -4.901  -0.284   2.933  0.00  0.00    +0.038 C 
ATOM     14  C   LIG    1       -4.301   1.945   1.858  0.00  0.00    -0.028 C 
ENDBRANCH  10  14
ENDBRANCH   9  10
ENDBRANCH   6   9
ENDBRANCH   5   8
ENDBRANCH   4   5
ENDBRANCH   1   4
BRANCH   3  15
ATOM     15  C   LIG    1        5.757  -1.268  -0.231  0.00  0.00    +0.101 C 
BRANCH  15  16
ATOM     16  S   LIG    1        6.828   0.162   0.084  0.00  0.00    -0.120 S 
BRANCH  16  17
ATOM     17  C   LIG    1        8.484  -0.488   0.157  0.00  0.00    +0.022 A 
ATOM     18  C   LIG    1        8.994  -1.322   1.200  0.00  0.00    +0.072 A 
ATOM     19  C   LIG    1       10.312  -1.804   1.032  0.00  0.00    +0.016 A 
ATOM     20  C   LIG    1       11.120  -1.408  -0.030  0.00  0.00    +0.001 A 
ATOM     21  C   LIG    1       10.629  -0.524  -0.980  0.00  0.00    +0.001 A 
ATOM     22  C   LIG    1        9.321  -0.067  -0.881  0.00  0.00    +0.015 A 
BRANCH  18  23
ATOM     23  C   LIG    1        8.195  -1.801   2.403  0.00  0.00    +0.338 C 
ATOM     24  O   LIG    1        8.535  -2.870   2.964  0.00  0.00    -0.245 OA
BRANCH  23  25
ATOM     25  O   LIG    1        7.260  -1.096   2.849  0.00  0.00    -0.477 OA
ATOM     26  H   LIG    1        7.024  -0.301   2.412  0.00  0.00    +0.295 HD
ENDBRANCH  23  25
ENDBRANCH  18  23
ENDBRANCH  16  17
ENDBRANCH  15  16
ENDBRANCH   3  15
TORSDOF 11
