REMARK  Name = DB12974
REMARK                            x       y       z     vdW  Elec       q    Type
REMARK                         _______ _______ _______ _____ _____    ______ ____
ROOT
ATOM      1  C   LIG    1        1.110  -0.094  -0.528  0.00  0.00    +0.231 A 
ATOM      2  N   LIG    1        2.058   0.876  -0.367  0.00  0.00    -0.179 NA
ATOM      3  C   LIG    1        3.267   0.672  -0.946  0.00  0.00    +0.223 A 
ATOM      4  N   LIG    1        3.606  -0.431  -1.664  0.00  0.00    -0.222 NA
ATOM      5  C   LIG    1        2.650  -1.382  -1.815  0.00  0.00    +0.132 A 
ATOM      6  C   LIG    1        1.368  -1.262  -1.262  0.00  0.00    +0.134 A 
ENDROOT
BRANCH   6   7
ATOM      7  C   LIG    1        0.305  -2.344  -1.446  0.00  0.00    +0.424 C 
ATOM      8  F   LIG    1       -0.761  -1.827  -2.057  0.00  0.00    -0.166 F 
ATOM      9  F   LIG    1       -0.068  -2.813  -0.256  0.00  0.00    -0.166 F 
ATOM     10  F   LIG    1        0.749  -3.368  -2.178  0.00  0.00    -0.166 F 
ENDBRANCH   6   7
BRANCH   3  11
ATOM     11  N   LIG    1        4.210   1.688  -0.726  0.00  0.00    -0.284 N 
ATOM     12  H   LIG    1        3.875   2.421  -0.117  0.00  0.00    +0.155 HD
BRANCH  11  13
ATOM     13  C   LIG    1        5.507   1.906  -1.220  0.00  0.00    +0.034 A 
ATOM     14  C   LIG    1        6.364   2.699  -0.455  0.00  0.00    +0.024 A 
ATOM     15  C   LIG    1        7.657   2.965  -0.896  0.00  0.00    +0.020 A 
ATOM     16  C   LIG    1        8.097   2.445  -2.115  0.00  0.00    +0.048 A 
ATOM     17  C   LIG    1        7.242   1.662  -2.891  0.00  0.00    +0.020 A 
ATOM     18  C   LIG    1        5.949   1.397  -2.447  0.00  0.00    +0.024 A 
BRANCH  16  19
ATOM     19  S   LIG    1        9.758   2.792  -2.690  0.00  0.00    +0.077 S 
ATOM     20  O   LIG    1        9.878   2.407  -4.101  0.00  0.00    -0.243 OA
ATOM     21  N   LIG    1       10.635   2.217  -1.570  0.00  0.00    -0.248 NA
ATOM     22  H   LIG    1       10.575   1.212  -1.498  0.00  0.00    +0.197 HD
BRANCH  19  23
ATOM     23  C   LIG    1        9.990   4.664  -2.492  0.00  0.00    +0.092 C 
ATOM     24  C   LIG    1       11.101   5.290  -3.298  0.00  0.00    +0.019 C 
ATOM     25  C   LIG    1        9.655   5.528  -3.683  0.00  0.00    +0.019 C 
ENDBRANCH  19  23
ENDBRANCH  16  19
ENDBRANCH  11  13
ENDBRANCH   3  11
BRANCH   1  26
ATOM     26  O   LIG    1       -0.141   0.082   0.042  0.00  0.00    -0.470 OA
BRANCH  26  27
ATOM     27  C   LIG    1       -0.443   1.227   0.852  0.00  0.00    +0.200 C 
ATOM     28  C   LIG    1        0.162   1.066   2.264  0.00  0.00    +0.055 C 
BRANCH  27  30
ATOM     29  C   LIG    1       -2.575   1.649  -0.536  0.00  0.00    +0.041 C 
ATOM     30  C   LIG    1       -1.979   1.429   0.866  0.00  0.00    +0.152 C 
BRANCH  30  31
ATOM     31  O   LIG    1       -2.634   0.330   1.473  0.00  0.00    -0.388 OA
ATOM     32  H   LIG    1       -2.434  -0.461   0.965  0.00  0.00    +0.210 HD
ENDBRANCH  30  31
ENDBRANCH  27  30
ENDBRANCH  26  27
ENDBRANCH   1  26
TORSDOF 9
