REMARK  Name = DB12933
REMARK                            x       y       z     vdW  Elec       q    Type
REMARK                         _______ _______ _______ _____ _____    ______ ____
ROOT
ATOM      1  C   LIG    1        1.627  -0.321  -0.068  0.00  0.00    +0.063 A 
ATOM      2  C   LIG    1        2.382  -1.504  -0.124  0.00  0.00    +0.023 A 
ATOM      3  C   LIG    1        3.776  -1.481  -0.090  0.00  0.00    +0.011 A 
ATOM      4  C   LIG    1        4.438  -0.255   0.005  0.00  0.00    +0.165 A 
ATOM      5  F   LIG    1        5.792  -0.211   0.030  0.00  0.00    -0.202 F 
ATOM      6  C   LIG    1        3.711   0.933   0.067  0.00  0.00    +0.180 A 
ATOM      7  F   LIG    1        4.391   2.104   0.123  0.00  0.00    -0.200 F 
ATOM      8  C   LIG    1        2.305   0.916   0.059  0.00  0.00    +0.082 A 
ENDROOT
BRANCH   1   9
ATOM      9  C   LIG    1        0.116  -0.416  -0.150  0.00  0.00    +0.269 C 
ATOM     10  N   LIG    1       -0.443  -1.407   0.577  0.00  0.00    -0.190 N 
ATOM     11  H   LIG    1        0.059  -2.185   0.979  0.00  0.00    +0.183 HD
ATOM     12  O   LIG    1       -0.531   0.378  -0.839  0.00  0.00    -0.268 OA
BRANCH  10  13
ATOM     13  O   LIG    1       -1.815  -1.650   0.476  0.00  0.00    -0.277 OA
BRANCH  13  14
ATOM     14  C   LIG    1       -2.526  -0.941   1.488  0.00  0.00    +0.218 C 
BRANCH  14  15
ATOM     15  C   LIG    1       -4.027  -1.233   1.343  0.00  0.00    +0.186 C 
BRANCH  15  16
ATOM     16  O   LIG    1       -4.763  -0.550   2.336  0.00  0.00    -0.393 OA
ATOM     17  H   LIG    1       -5.696  -0.742   2.211  0.00  0.00    +0.209 HD
ENDBRANCH  15  16
ENDBRANCH  14  15
ENDBRANCH  13  14
ENDBRANCH  10  13
ENDBRANCH   1   9
BRANCH   8  18
ATOM     18  N   LIG    1        1.600   2.137   0.094  0.00  0.00    -0.309 N 
ATOM     19  H   LIG    1        0.799   2.182  -0.521  0.00  0.00    +0.152 HD
BRANCH  18  20
ATOM     20  C   LIG    1        1.734   3.234   0.962  0.00  0.00    +0.067 A 
ATOM     21  C   LIG    1        2.420   3.128   2.181  0.00  0.00    +0.027 A 
ATOM     22  C   LIG    1        2.544   4.235   3.020  0.00  0.00    +0.016 A 
ATOM     23  C   LIG    1        1.983   5.457   2.651  0.00  0.00    +0.016 A 
ATOM     24  I   LIG    1        2.169   7.116   3.910  0.00  0.00    -0.044 I 
ATOM     25  C   LIG    1        1.298   5.571   1.442  0.00  0.00    +0.054 A 
ATOM     26  C   LIG    1        1.173   4.466   0.599  0.00  0.00    +0.145 A 
ATOM     27  F   LIG    1        0.503   4.603  -0.570  0.00  0.00    -0.204 F 
ENDBRANCH  18  20
ENDBRANCH   8  18
BRANCH   3  28
ATOM     28  C   LIG    1        4.561  -2.792  -0.164  0.00  0.00    +0.178 C 
BRANCH  28  29
ATOM     29  N   LIG    1        5.444  -2.911  -1.335  0.00  0.00    -0.176 N 
ATOM     30  C   LIG    1        4.947  -2.968  -2.611  0.00  0.00    +0.239 C 
ATOM     31  O   LIG    1        3.745  -2.981  -2.878  0.00  0.00    -0.274 OA
ATOM     32  C   LIG    1        6.019  -2.852  -3.723  0.00  0.00    +0.100 C 
ATOM     33  C   LIG    1        7.369  -3.481  -3.338  0.00  0.00    +0.040 C 
ATOM     34  C   LIG    1        7.704  -3.241  -1.866  0.00  0.00    +0.191 C 
ATOM     35  O   LIG    1        6.598  -3.697  -1.089  0.00  0.00    -0.277 OA
ENDBRANCH  28  29
ENDBRANCH   3  28
TORSDOF 9
