REMARK  Name = DB12271
REMARK                            x       y       z     vdW  Elec       q    Type
REMARK                         _______ _______ _______ _____ _____    ______ ____
ROOT
ATOM      1  C   UNK    1       -0.413  -0.049  -0.206  0.00  0.00    +0.046 C 
ENDROOT
BRANCH   1   2
ATOM      2  N   UNK    1        1.115  -0.116  -0.464  0.00  0.00    +0.397 N 
ATOM      3  H   UNK    1        1.260  -0.609  -1.334  0.00  0.00    -0.084 HD
ATOM      4  H   UNK    1        1.567  -0.623   0.285  0.00  0.00    -0.084 HD
BRANCH   2   5
ATOM      5  C   UNK    1        1.841   1.202  -0.634  0.00  0.00    +0.040 C 
BRANCH   5   6
ATOM      6  C   UNK    1        3.197   0.888  -1.393  0.00  0.00    +0.291 C 
ATOM      7  O   UNK    1        3.117   0.103  -2.369  0.00  0.00    -0.253 OA
BRANCH   6   8
ATOM      8  O   UNK    1        4.199   1.542  -1.024  0.00  0.00    -0.482 OA
ATOM      9  H   UNK    1        5.029   1.400  -1.436  0.00  0.00    +0.295 HD
ENDBRANCH   6   8
ENDBRANCH   5   6
BRANCH   5  10
ATOM     10  C   UNK    1        2.004   1.978   0.713  0.00  0.00    -0.002 C 
BRANCH  10  11
ATOM     11  C   UNK    1        2.159   3.511   0.565  0.00  0.00    -0.018 C 
ATOM     12  C   UNK    1        0.917   4.161  -0.083  0.00  0.00    +0.007 C 
ATOM     13  C   UNK    1        2.523   4.164   1.916  0.00  0.00    +0.007 C 
ENDBRANCH  10  11
ENDBRANCH   5  10
ENDBRANCH   2   5
ENDBRANCH   1   2
BRANCH   1  14
ATOM     14  C   UNK    1       -0.707  -0.341   1.296  0.00  0.00    +0.291 C 
ATOM     15  O   UNK    1       -1.784   0.115   1.740  0.00  0.00    -0.253 OA
BRANCH  14  16
ATOM     16  O   UNK    1        0.097  -1.015   1.985  0.00  0.00    -0.482 OA
ATOM     17  H   UNK    1        0.891  -1.333   1.602  0.00  0.00    +0.295 HD
ENDBRANCH  14  16
ENDBRANCH   1  14
BRANCH   1  18
ATOM     18  C   UNK    1       -1.090  -1.079  -1.151  0.00  0.00    +0.050 C 
BRANCH  18  21
ATOM     19  C   UNK    1       -4.692  -0.424  -1.417  0.00  0.00    +0.199 A 
ATOM     20  N   UNK    1       -3.397   0.002  -1.588  0.00  0.00    -0.330 N 
ATOM     21  C   UNK    1       -2.613  -1.055  -1.160  0.00  0.00    +0.037 A 
ATOM     22  C   UNK    1       -3.537  -2.022  -0.780  0.00  0.00    +0.133 A 
ATOM     23  N   UNK    1       -4.789  -1.638  -0.940  0.00  0.00    -0.244 NA
BRANCH  20  24
ATOM     24  C   UNK    1       -2.990   1.325  -2.065  0.00  0.00    +0.158 C 
BRANCH  24  25
ATOM     25  C   UNK    1       -1.989   1.323  -3.216  0.00  0.00    -0.025 A 
ATOM     26  C   UNK    1       -2.160   0.480  -4.320  0.00  0.00    +0.025 A 
ATOM     27  C   UNK    1       -1.219   0.470  -5.351  0.00  0.00    +0.043 A 
ATOM     28 CL   UNK    1       -1.430  -0.583  -6.702  0.00  0.00    -0.083 Cl
ATOM     29  C   UNK    1       -0.105   1.308  -5.287  0.00  0.00    +0.040 A 
ATOM     30  C   UNK    1        0.063   2.162  -4.196  0.00  0.00    +0.043 A 
ATOM     31 CL   UNK    1        1.443   3.195  -4.109  0.00  0.00    -0.083 Cl
ATOM     32  C   UNK    1       -0.882   2.176  -3.171  0.00  0.00    +0.025 A 
ENDBRANCH  24  25
ENDBRANCH  20  24
ENDBRANCH  18  21
ENDBRANCH   1  18
TORSDOF 12
