REMARK  Name = DB12039
REMARK                            x       y       z     vdW  Elec       q    Type
REMARK                         _______ _______ _______ _____ _____    ______ ____
ROOT
ATOM      1  C   LIG    1       -0.507  -0.741  -1.325  0.00  0.00    +0.164 C 
ATOM      2  C   LIG    1       -2.042  -0.791  -1.230  0.00  0.00    +0.078 C 
ATOM      3  C   LIG    1       -2.631   0.591  -0.951  0.00  0.00    +0.038 A 
ATOM      4  C   LIG    1       -1.814   1.585  -0.373  0.00  0.00    +0.132 A 
ATOM      5  C   LIG    1       -2.322   2.849  -0.075  0.00  0.00    +0.091 A 
ATOM      6  C   LIG    1       -3.656   3.143  -0.344  0.00  0.00    +0.124 A 
ATOM      7  C   LIG    1       -4.479   2.176  -0.917  0.00  0.00    +0.091 A 
ATOM      8  O   LIG    1       -0.457   1.428  -0.152  0.00  0.00    -0.481 OA
ATOM      9  C   LIG    1       -3.971   0.911  -1.218  0.00  0.00    +0.127 A 
ATOM     10  C   LIG    1        0.044   0.084  -0.134  0.00  0.00    +0.232 C 
ENDROOT
BRANCH  10  11
ATOM     11  C   LIG    1        1.570   0.063  -0.045  0.00  0.00    -0.001 A 
ATOM     12  C   LIG    1        2.217  -0.968   0.645  0.00  0.00    +0.011 A 
ATOM     13  C   LIG    1        3.609  -1.000   0.723  0.00  0.00    +0.049 A 
ATOM     14  C   LIG    1        4.370  -0.002   0.112  0.00  0.00    +0.158 A 
ATOM     15  C   LIG    1        3.731   1.032  -0.584  0.00  0.00    +0.159 A 
ATOM     16  C   LIG    1        2.337   1.059  -0.661  0.00  0.00    +0.056 A 
BRANCH  15  17
ATOM     17  O   LIG    1        4.456   2.024  -1.196  0.00  0.00    -0.503 OA
ATOM     18  H   LIG    1        3.903   2.675  -1.636  0.00  0.00    +0.292 HD
ENDBRANCH  15  17
BRANCH  14  19
ATOM     19  O   LIG    1        5.738  -0.053   0.203  0.00  0.00    -0.503 OA
ATOM     20  H   LIG    1        6.163   0.684  -0.242  0.00  0.00    +0.292 HD
ENDBRANCH  14  19
ENDBRANCH  10  11
BRANCH   1  21
ATOM     21  O   LIG    1       -0.076  -0.235  -2.577  0.00  0.00    -0.387 OA
ATOM     22  H   LIG    1       -0.278  -0.883  -3.256  0.00  0.00    +0.210 HD
ENDBRANCH   1  21
BRANCH   6  23
ATOM     23  O   LIG    1       -4.157   4.384  -0.053  0.00  0.00    -0.507 OA
ATOM     24  H   LIG    1       -5.083   4.475  -0.286  0.00  0.00    +0.292 HD
ENDBRANCH   6  23
BRANCH   9  25
ATOM     25  O   LIG    1       -4.815  -0.018  -1.771  0.00  0.00    -0.506 OA
ATOM     26  H   LIG    1       -5.705   0.318  -1.899  0.00  0.00    +0.292 HD
ENDBRANCH   9  25
TORSDOF 6
