REMARK  Name = DB12736
REMARK                            x       y       z     vdW  Elec       q    Type
REMARK                         _______ _______ _______ _____ _____    ______ ____
ROOT
ATOM      1  N   LIG    1       -0.537   1.113   0.034  0.00  0.00    -0.303 N 
ATOM      2  C   LIG    1       -0.320   2.303  -0.654  0.00  0.00    +0.287 A 
ATOM      3  N   LIG    1       -0.721   3.359   0.027  0.00  0.00    -0.215 NA
ATOM      4  C   LIG    1       -1.199   2.887   1.161  0.00  0.00    +0.132 A 
ATOM      5  C   LIG    1       -1.112   1.509   1.217  0.00  0.00    +0.109 A 
ENDROOT
BRANCH   2   6
ATOM      6  N   LIG    1        0.286   2.380  -1.961  0.00  0.00    +0.043 N 
ATOM      7  O   LIG    1        0.783   1.376  -2.459  0.00  0.00    -0.127 OA
BRANCH   6   8
ATOM      8  O   LIG    1        0.288   3.475  -2.516  0.00  0.00    -0.394 OA
ATOM      9  H   LIG    1       -0.105   4.214  -2.096  0.00  0.00    +0.329 HD
ENDBRANCH   6   8
ENDBRANCH   2   6
BRANCH   1  10
ATOM     10  C   LIG    1       -0.275  -0.279  -0.348  0.00  0.00    +0.220 C 
BRANCH  10  11
ATOM     11  C   LIG    1        1.160  -0.790  -0.114  0.00  0.00    +0.233 C 
ATOM     12  O   LIG    1        1.421  -1.960  -0.394  0.00  0.00    -0.274 OA
ATOM     13  N   LIG    1        2.075   0.062   0.387  0.00  0.00    -0.312 N 
ATOM     14  H   LIG    1        1.792   1.009   0.592  0.00  0.00    +0.149 HD
BRANCH  13  15
ATOM     15  C   LIG    1        3.473  -0.268   0.677  0.00  0.00    +0.132 C 
BRANCH  15  16
ATOM     16  C   LIG    1        3.685  -1.115   1.949  0.00  0.00    +0.174 C 
BRANCH  16  17
ATOM     17  O   LIG    1        3.132  -0.479   3.085  0.00  0.00    -0.393 OA
ATOM     18  H   LIG    1        3.262  -1.048   3.847  0.00  0.00    +0.209 HD
ENDBRANCH  16  17
ENDBRANCH  15  16
ENDBRANCH  13  15
ENDBRANCH  10  11
ENDBRANCH   1  10
TORSDOF 7
