REMARK  Name = DB12763
REMARK                            x       y       z     vdW  Elec       q    Type
REMARK                         _______ _______ _______ _____ _____    ______ ____
ROOT
ATOM      1  C   LIG    1       -2.917   0.025   0.042  0.00  0.00    -0.062 A 
ATOM      2  C   LIG    1       -2.282   1.270   0.109  0.00  0.00    +0.002 A 
ATOM      3  C   LIG    1       -0.892   1.348   0.121  0.00  0.00    +0.006 A 
ATOM      4  C   LIG    1       -0.121   0.182   0.063  0.00  0.00    -0.021 A 
ATOM      5  C   LIG    1       -0.755  -1.062  -0.011  0.00  0.00    +0.006 A 
ATOM      6  C   LIG    1       -2.145  -1.140  -0.021  0.00  0.00    +0.002 A 
ENDROOT
BRANCH   1   8
ATOM      7  C   LIG    1       -5.123   0.833  -1.026  0.00  0.00    -0.009 C 
ATOM      8  C   LIG    1       -4.443  -0.080   0.016  0.00  0.00    -0.047 C 
BRANCH   8   9
ATOM      9  N   LIG    1       -5.074   0.167   1.393  0.00  0.00    +0.382 N 
ATOM     10  H   LIG    1       -4.898   1.116   1.693  0.00  0.00    -0.089 HD
ATOM     11  H   LIG    1       -6.073   0.024   1.347  0.00  0.00    -0.089 HD
ATOM     12  H   LIG    1       -4.688  -0.472   2.073  0.00  0.00    -0.089 HD
ENDBRANCH   8   9
ENDBRANCH   1   8
BRANCH   4  13
ATOM     13  C   LIG    1        1.405   0.260   0.062  0.00  0.00    +0.128 C 
BRANCH  13  14
ATOM     14  O   LIG    1        1.897   1.046   1.135  0.00  0.00    -0.389 OA
ATOM     15  H   LIG    1        1.670   0.613   1.962  0.00  0.00    +0.210 HD
ENDBRANCH  13  14
BRANCH  13  16
ATOM     16  C   LIG    1        1.933   0.803  -1.287  0.00  0.00    -0.045 C 
BRANCH  16  17
ATOM     17  N   LIG    1        3.477   0.786  -1.316  0.00  0.00    +0.384 N 
ATOM     18  H   LIG    1        3.776  -0.174  -1.210  0.00  0.00    -0.085 HD
ATOM     19  H   LIG    1        3.806   1.291  -0.504  0.00  0.00    -0.085 HD
BRANCH  17  20
ATOM     20  C   LIG    1        4.201   1.369  -2.554  0.00  0.00    -0.077 C 
ATOM     21  C   LIG    1        3.735   0.620  -3.823  0.00  0.00    -0.011 C 
ATOM     22  C   LIG    1        3.906   2.884  -2.647  0.00  0.00    -0.011 C 
ATOM     23  C   LIG    1        5.707   1.132  -2.317  0.00  0.00    -0.011 C 
ENDBRANCH  17  20
ENDBRANCH  16  17
ENDBRANCH  13  16
ENDBRANCH   4  13
TORSDOF 7
