REMARK  Name = DB12229
REMARK                            x       y       z     vdW  Elec       q    Type
REMARK                         _______ _______ _______ _____ _____    ______ ____
ROOT
ATOM      1  C   LIG    1        3.447  -1.268  -0.006  0.00  0.00    +0.121 A 
ATOM      2  C   LIG    1        4.364  -0.204  -0.022  0.00  0.00    +0.059 A 
ATOM      3  C   LIG    1        5.738  -0.488   0.002  0.00  0.00    +0.049 A 
ATOM      4  C   LIG    1        6.948   0.269  -0.003  0.00  0.00    +0.211 A 
ATOM      5  N   LIG    1        8.001  -0.509   0.020  0.00  0.00    -0.154 NA
ATOM      6  N   LIG    1        7.549  -1.776   0.046  0.00  0.00    -0.275 N 
ATOM      7  H   LIG    1        8.200  -2.547   0.070  0.00  0.00    +0.189 HD
ATOM      8  C   LIG    1        6.169  -1.835   0.034  0.00  0.00    +0.068 A 
ATOM      9  C   LIG    1        5.272  -2.905   0.045  0.00  0.00    +0.031 A 
ATOM     10  C   LIG    1        3.913  -2.584   0.024  0.00  0.00    +0.048 A 
ENDROOT
BRANCH   4  11
ATOM     11  S   LIG    1        7.115   2.071  -0.058  0.00  0.00    +0.045 S 
ATOM     12  O   LIG    1        8.490   2.390   0.344  0.00  0.00    -0.163 OA
ATOM     13  O   LIG    1        5.965   2.610   0.678  0.00  0.00    -0.163 OA
BRANCH  11  14
ATOM     14  C   LIG    1        6.937   2.575  -1.780  0.00  0.00    +0.103 A 
ATOM     15  C   LIG    1        6.836   3.959  -2.139  0.00  0.00    +0.007 A 
ATOM     16  C   LIG    1        6.893   5.018  -1.188  0.00  0.00    +0.010 A 
ATOM     17  C   LIG    1        6.785   6.346  -1.588  0.00  0.00    +0.001 A 
ATOM     18  C   LIG    1        6.621   6.670  -2.928  0.00  0.00    +0.001 A 
ATOM     19  C   LIG    1        6.566   5.669  -3.892  0.00  0.00    +0.008 A 
ATOM     20  C   LIG    1        6.675   4.305  -3.520  0.00  0.00    -0.016 A 
ATOM     21  C   LIG    1        6.630   3.280  -4.494  0.00  0.00    +0.008 A 
ATOM     22  C   LIG    1        6.747   1.948  -4.118  0.00  0.00    +0.002 A 
ATOM     23  C   LIG    1        6.899   1.602  -2.783  0.00  0.00    +0.028 A 
ENDBRANCH  11  14
ENDBRANCH   4  11
BRANCH   1  24
ATOM     24  O   LIG    1        2.075  -1.106  -0.019  0.00  0.00    -0.492 OA
BRANCH  24  25
ATOM     25  C   LIG    1        1.525   0.208  -0.004  0.00  0.00    +0.227 C 
BRANCH  25  26
ATOM     26  C   LIG    1       -0.004   0.097   0.073  0.00  0.00    +0.022 C 
BRANCH  26  27
ATOM     27  C   LIG    1       -0.688   1.475   0.130  0.00  0.00    -0.076 C 
BRANCH  27  29
ATOM     28  C   LIG    1       -2.837   0.621   1.287  0.00  0.00    -0.097 C 
ATOM     29  N   LIG    1       -2.228   1.348   0.069  0.00  0.00    +0.376 N 
ATOM     30  H   LIG    1       -2.450   0.800  -0.751  0.00  0.00    -0.083 HD
ATOM     31  C   LIG    1       -2.890   2.727  -0.125  0.00  0.00    -0.097 C 
ENDBRANCH  27  29
ENDBRANCH  26  27
ENDBRANCH  25  26
ENDBRANCH  24  25
ENDBRANCH   1  24
TORSDOF 7
