REMARK  Name = DB12494
REMARK                            x       y       z     vdW  Elec       q    Type
REMARK                         _______ _______ _______ _____ _____    ______ ____
ROOT
ATOM      1  C   LIG    1        1.471  -0.158   0.100  0.00  0.00    +0.140 A 
ATOM      2  N   LIG    1        2.036   1.080   0.087  0.00  0.00    -0.150 NA
ATOM      3  N   LIG    1        3.379   1.111   0.051  0.00  0.00    -0.211 N 
ATOM      4  C   LIG    1        4.198   2.222  -0.005  0.00  0.00    +0.093 A 
ATOM      5  C   LIG    1        5.489   1.682   0.016  0.00  0.00    +0.141 A 
ATOM      6  N   LIG    1        5.533   0.368   0.055  0.00  0.00    -0.234 NA
ATOM      7  C   LIG    1        4.231  -0.005   0.072  0.00  0.00    +0.155 A 
ATOM      8  C   LIG    1        3.621  -1.271   0.103  0.00  0.00    +0.051 A 
ATOM      9  C   LIG    1        2.225  -1.334   0.107  0.00  0.00    +0.049 A 
ENDROOT
BRANCH   4  10
ATOM     10  C   LIG    1        3.747   3.649  -0.084  0.00  0.00    +0.005 A 
ATOM     11  C   LIG    1        2.549   4.019  -0.712  0.00  0.00    +0.056 A 
ATOM     12  C   LIG    1        2.136   5.352  -0.773  0.00  0.00    +0.131 A 
ATOM     13  C   LIG    1        2.956   6.337  -0.201  0.00  0.00    +0.046 A 
ATOM     14  C   LIG    1        4.159   5.986   0.411  0.00  0.00    +0.004 A 
ATOM     15  C   LIG    1        4.553   4.651   0.465  0.00  0.00    +0.010 A 
BRANCH  12  16
ATOM     16  O   LIG    1        0.932   5.594  -1.410  0.00  0.00    -0.406 OA
BRANCH  16  17
ATOM     17  C   LIG    1        0.380   6.910  -1.441  0.00  0.00    +0.575 C 
ATOM     18  F   LIG    1        1.153   7.753  -2.127  0.00  0.00    -0.133 F 
ATOM     19  F   LIG    1        0.143   7.374  -0.213  0.00  0.00    -0.133 F 
ATOM     20  F   LIG    1       -0.790   6.831  -2.073  0.00  0.00    -0.133 F 
ENDBRANCH  16  17
ENDBRANCH  12  16
ENDBRANCH   4  10
BRANCH   1  21
ATOM     21  N   LIG    1        0.069  -0.264   0.089  0.00  0.00    -0.327 N 
ATOM     22  H   LIG    1       -0.343  -1.153  -0.155  0.00  0.00    +0.148 HD
BRANCH  21  23
ATOM     23  C   LIG    1       -0.787   0.923   0.091  0.00  0.00    +0.106 C 
BRANCH  23  29
ATOM     24  C   LIG    1       -2.853   3.245  -4.899  0.00  0.00    -0.096 C 
ATOM     25  N   LIG    1       -2.681   2.632  -3.495  0.00  0.00    +0.378 N 
ATOM     26  H   LIG    1       -3.590   2.560  -3.059  0.00  0.00    -0.082 HD
ATOM     27  C   LIG    1       -2.098   1.202  -3.603  0.00  0.00    -0.079 C 
ATOM     28  C   LIG    1       -1.948   0.623  -2.184  0.00  0.00    -0.014 C 
ATOM     29  C   LIG    1       -1.038   1.516  -1.313  0.00  0.00    +0.003 C 
ATOM     30  C   LIG    1       -1.677   2.917  -1.220  0.00  0.00    -0.014 C 
ATOM     31  C   LIG    1       -1.813   3.560  -2.612  0.00  0.00    -0.079 C 
ENDBRANCH  23  29
ENDBRANCH  21  23
ENDBRANCH   1  21
TORSDOF 6
