REMARK  Name = DB12058
REMARK                            x       y       z     vdW  Elec       q    Type
REMARK                         _______ _______ _______ _____ _____    ______ ____
ROOT
ATOM      1  C   LIG    1        1.564   0.073  -0.152  0.00  0.00    +0.139 A 
ATOM      2  O   LIG    1        2.101  -1.155   0.079  0.00  0.00    -0.454 OA
ATOM      3  C   LIG    1        3.473  -1.306   0.040  0.00  0.00    +0.146 A 
ATOM      4  C   LIG    1        3.944  -2.595   0.256  0.00  0.00    +0.092 A 
ATOM      5  C   LIG    1        5.308  -2.859   0.245  0.00  0.00    +0.128 A 
ATOM      6  C   LIG    1        6.196  -1.799   0.013  0.00  0.00    +0.092 A 
ATOM      7  C   LIG    1        5.740  -0.486  -0.207  0.00  0.00    +0.138 A 
ATOM      8  C   LIG    1        4.350  -0.231  -0.196  0.00  0.00    +0.106 A 
ATOM      9  C   LIG    1        3.766   1.142  -0.424  0.00  0.00    +0.197 A 
ATOM     10  O   LIG    1        4.444   2.147  -0.635  0.00  0.00    -0.287 OA
ATOM     11  C   LIG    1        2.308   1.179  -0.372  0.00  0.00    +0.098 A 
ENDROOT
BRANCH   1  15
ATOM     12  C   LIG    1       -2.736  -0.015   0.175  0.00  0.00    +0.162 A 
ATOM     13  C   LIG    1       -2.041  -1.152  -0.261  0.00  0.00    +0.162 A 
ATOM     14  C   LIG    1       -0.639  -1.106  -0.361  0.00  0.00    +0.061 A 
ATOM     15  C   LIG    1        0.084   0.046  -0.029  0.00  0.00    +0.021 A 
ATOM     16  C   LIG    1       -0.628   1.173   0.398  0.00  0.00    +0.015 A 
ATOM     17  C   LIG    1       -2.016   1.145   0.501  0.00  0.00    +0.050 A 
BRANCH  12  19
ATOM     18  C   LIG    1       -4.871   1.015   0.693  0.00  0.00    +0.277 C 
ATOM     19  O   LIG    1       -4.115  -0.110   0.257  0.00  0.00    -0.491 OA
ENDBRANCH  12  19
BRANCH  13  20
ATOM     20  O   LIG    1       -2.796  -2.269  -0.573  0.00  0.00    -0.491 OA
ATOM     21  C   LIG    1       -2.146  -3.457  -1.014  0.00  0.00    +0.277 C 
ENDBRANCH  13  20
ENDBRANCH   1  15
BRANCH   7  22
ATOM     22  O   LIG    1        6.609   0.570  -0.434  0.00  0.00    -0.494 OA
ATOM     23  C   LIG    1        8.016   0.354  -0.446  0.00  0.00    +0.277 C 
ENDBRANCH   7  22
BRANCH   5  24
ATOM     24  O   LIG    1        5.688  -4.168   0.469  0.00  0.00    -0.481 OA
BRANCH  24  25
ATOM     25  C   LIG    1        7.079  -4.508   0.468  0.00  0.00    +0.349 C 
BRANCH  25  26
ATOM     26  C   LIG    1        7.259  -6.019   0.736  0.00  0.00    +0.343 C 
ATOM     27  O   LIG    1        8.438  -6.439   0.732  0.00  0.00    -0.247 OA
BRANCH  26  28
ATOM     28  O   LIG    1        6.256  -6.743   0.943  0.00  0.00    -0.478 OA
ATOM     29  H   LIG    1        5.398  -6.368   0.933  0.00  0.00    +0.295 HD
ENDBRANCH  26  28
ENDBRANCH  25  26
ENDBRANCH  24  25
ENDBRANCH   5  24
TORSDOF 8
