REMARK  Name = DB12536
REMARK                            x       y       z     vdW  Elec       q    Type
REMARK                         _______ _______ _______ _____ _____    ______ ____
ROOT
ATOM      1  C   LIG    1       -0.043   0.075   0.038  0.00  0.00    +0.173 C 
ENDROOT
BRANCH   1   2
ATOM      2  O   LIG    1       -0.475   1.428   0.108  0.00  0.00    -0.387 OA
ATOM      3  H   LIG    1       -0.376   1.829  -0.759  0.00  0.00    +0.210 HD
ENDBRANCH   1   2
BRANCH   1   4
ATOM      4  CA  LIG    1       -0.643  -0.746   1.226  0.00  0.00    +0.167 C 
BRANCH   4   7
ATOM      5  C   LIG    1        1.134  -4.077   2.024  0.00  0.00    +0.109 C 
ATOM      6  C   LIG    1        0.738  -2.613   2.178  0.00  0.00    +0.211 C 
ATOM      7  N   LIG    1       -0.144  -2.131   1.284  0.00  0.00    -0.304 N 
ATOM      8  H   LIG    1       -0.468  -2.738   0.545  0.00  0.00    +0.149 HD
ATOM      9  O   LIG    1        1.227  -1.940   3.083  0.00  0.00    -0.276 OA
ENDBRANCH   4   7
BRANCH   4  10
ATOM     10  C   LIG    1       -2.166  -0.821   1.153  0.00  0.00    +0.248 C 
ATOM     11  O   LIG    1       -2.832  -1.859   1.151  0.00  0.00    -0.299 OA
ENDBRANCH   4  10
ENDBRANCH   1   4
BRANCH   1  12
ATOM     12  C   LIG    1        1.517   0.032  -0.063  0.00  0.00    +0.176 C 
BRANCH  12  13
ATOM     13  O   LIG    1        2.102   0.534   1.129  0.00  0.00    -0.387 OA
ATOM     14  H   LIG    1        1.789   0.008   1.869  0.00  0.00    +0.210 HD
ENDBRANCH  12  13
BRANCH  12  15
ATOM     15  C   LIG    1        2.121   0.771  -1.295  0.00  0.00    +0.171 C 
BRANCH  15  16
ATOM     16  O   LIG    1        1.556   0.287  -2.503  0.00  0.00    -0.387 OA
ATOM     17  H   LIG    1        0.601   0.353  -2.444  0.00  0.00    +0.210 HD
ENDBRANCH  15  16
BRANCH  15  18
ATOM     18  C   LIG    1        3.666   0.710  -1.401  0.00  0.00    +0.189 C 
BRANCH  18  19
ATOM     19  O   LIG    1        4.153  -0.619  -1.428  0.00  0.00    -0.392 OA
ATOM     20  H   LIG    1        5.110  -0.593  -1.493  0.00  0.00    +0.210 HD
ENDBRANCH  18  19
ENDBRANCH  15  18
ENDBRANCH  12  15
ENDBRANCH   1  12
TORSDOF 10
