REMARK  Name = DB12617
REMARK                            x       y       z     vdW  Elec       q    Type
REMARK                         _______ _______ _______ _____ _____    ______ ____
ROOT
ATOM      1  N   LIG    1        4.092   0.652   2.087  0.00  0.00    -0.223 NA
ATOM      2  C   LIG    1        5.446   0.808   2.436  0.00  0.00    +0.198 C 
ATOM      3  C   LIG    1        5.534   1.335   3.748  0.00  0.00    +0.175 C 
ATOM      4  N   LIG    1        4.226   1.414   4.192  0.00  0.00    -0.280 NA
ATOM      5  H   LIG    1        3.949   1.721   5.114  0.00  0.00    +0.125 HD
ATOM      6  C   LIG    1        3.364   1.021   3.203  0.00  0.00    +0.162 C 
ENDROOT
BRANCH   1   9
ATOM      7  C4* LIG    1        1.409   0.001  -0.147  0.00  0.00    +0.177 C 
ATOM      8  O4* LIG    1        2.336   0.826   0.559  0.00  0.00    -0.351 OA
ATOM      9  C1* LIG    1        3.515   0.137   0.853  0.00  0.00    +0.224 C 
ATOM     10  C2* LIG    1        3.113  -1.332   0.917  0.00  0.00    +0.189 C 
ATOM     11  C3* LIG    1        2.117  -1.362  -0.242  0.00  0.00    +0.178 C 
BRANCH  10  12
ATOM     12  O2* LIG    1        4.244  -2.180   0.806  0.00  0.00    -0.385 OA
ATOM     13  H2* LIG    1        4.770  -2.095   1.605  0.00  0.00    +0.210 HD
ENDBRANCH  10  12
BRANCH  11  14
ATOM     14  O3* LIG    1        2.722  -1.555  -1.512  0.00  0.00    -0.386 OA
ATOM     15  H3* LIG    1        3.347  -2.281  -1.442  0.00  0.00    +0.210 HD
ENDBRANCH  11  14
BRANCH   7  16
ATOM     16  C5* LIG    1        0.084  -0.032   0.642  0.00  0.00    +0.190 C 
BRANCH  16  17
ATOM     17  O5* LIG    1       -0.519   1.246   0.674  0.00  0.00    -0.392 OA
ATOM     18  H5* LIG    1       -1.358   1.179   1.137  0.00  0.00    +0.210 HD
ENDBRANCH  16  17
ENDBRANCH   7  16
ENDBRANCH   1   9
BRANCH   3  19
ATOM     19  C   LIG    1        6.648   1.625   4.626  0.00  0.00    +0.238 C 
ATOM     20  O   LIG    1        6.505   1.733   5.843  0.00  0.00    -0.274 OA
ATOM     21  N   LIG    1        7.829   1.801   4.028  0.00  0.00    -0.328 N 
ATOM     22  H   LIG    1        8.646   2.032   4.573  0.00  0.00    +0.145 HD
ATOM     23  H   LIG    1        7.914   1.678   3.029  0.00  0.00    +0.145 HD
ENDBRANCH   3  19
BRANCH   2  24
ATOM     24  O   LIG    1        6.389   0.489   1.633  0.00  0.00    -0.368 OA
ATOM     25  H   LIG    1        7.245   0.668   2.053  0.00  0.00    +0.212 HD
ENDBRANCH   2  24
TORSDOF 7
