REMARK  Name = DB12085
REMARK                            x       y       z     vdW  Elec       q    Type
REMARK                         _______ _______ _______ _____ _____    ______ ____
ROOT
ATOM      1  C   LIG    1        2.087  -0.551  -0.868  0.00  0.00    +0.237 C 
ATOM      2  N   LIG    1        2.939   0.146  -1.668  0.00  0.00    -0.291 N 
ATOM      3  C   LIG    1        3.400  -0.375  -2.976  0.00  0.00    +0.132 C 
ATOM      4  C   LIG    1        4.158   0.813  -3.581  0.00  0.00    +0.031 C 
ATOM      5  C   LIG    1        3.523   2.023  -2.931  0.00  0.00    +0.021 C 
ATOM      6  C   LIG    1        3.247   1.575  -1.499  0.00  0.00    +0.108 C 
ATOM      7  O   LIG    1        1.720  -1.700  -1.129  0.00  0.00    -0.274 OA
ENDROOT
BRANCH   3   8
ATOM      8  C   LIG    1        4.261  -1.639  -2.976  0.00  0.00    +0.099 A 
ATOM      9  S   LIG    1        5.023  -2.358  -1.589  0.00  0.00    -0.078 S 
ATOM     10  C   LIG    1        5.684  -3.577  -2.631  0.00  0.00    +0.078 A 
ATOM     11  C   LIG    1        5.275  -3.361  -3.949  0.00  0.00    +0.118 A 
ATOM     12  N   LIG    1        4.510  -2.288  -4.088  0.00  0.00    -0.239 NA
BRANCH  11  13
ATOM     13  C   LIG    1        5.635  -4.176  -5.123  0.00  0.00    +0.212 C 
ATOM     14  O   LIG    1        6.577  -4.966  -5.022  0.00  0.00    -0.285 OA
BRANCH  13  15
ATOM     15  C   LIG    1        4.968  -3.964  -6.453  0.00  0.00    +0.024 A 
ATOM     16  C   LIG    1        3.588  -3.731  -6.552  0.00  0.00    +0.014 A 
ATOM     17  C   LIG    1        2.988  -3.572  -7.798  0.00  0.00    +0.039 A 
ATOM     18  C   LIG    1        3.758  -3.665  -8.954  0.00  0.00    +0.123 A 
ATOM     19  F   LIG    1        3.175  -3.510 -10.164  0.00  0.00    -0.205 F 
ATOM     20  C   LIG    1        5.124  -3.924  -8.873  0.00  0.00    +0.039 A 
ATOM     21  C   LIG    1        5.725  -4.083  -7.627  0.00  0.00    +0.014 A 
ENDBRANCH  13  15
ENDBRANCH  11  13
ENDBRANCH   3   8
BRANCH   1  22
ATOM     22  C   LIG    1        1.580   0.068   0.468  0.00  0.00    +0.162 C 
BRANCH  22  23
ATOM     23  C   LIG    1        2.127  -0.705   1.713  0.00  0.00    +0.018 C 
ATOM     24  C   LIG    1        3.661  -0.576   1.884  0.00  0.00    +0.006 C 
ATOM     25  C   LIG    1        4.152  -1.587   2.941  0.00  0.00    +0.000 C 
ATOM     26  C   LIG    1        3.446  -1.350   4.300  0.00  0.00    +0.000 C 
ATOM     27  C   LIG    1        1.906  -1.222   4.179  0.00  0.00    +0.000 C 
ATOM     28  C   LIG    1        1.519  -0.232   3.059  0.00  0.00    +0.006 C 
ENDBRANCH  22  23
BRANCH  22  30
ATOM     29  C   LIG    1       -0.642   0.939  -0.280  0.00  0.00    +0.199 C 
ATOM     30  N   LIG    1        0.112   0.102   0.453  0.00  0.00    -0.305 N 
ATOM     31  H   LIG    1       -0.341  -0.604   1.015  0.00  0.00    +0.149 HD
ATOM     32  O   LIG    1       -0.178   1.822  -1.007  0.00  0.00    -0.278 OA
BRANCH  29  34
ATOM     33  C   LIG    1       -2.644  -0.310  -1.232  0.00  0.00    -0.004 C 
ATOM     34  C   LIG    1       -2.170   0.704  -0.173  0.00  0.00    +0.012 C 
BRANCH  34  35
ATOM     35  N   LIG    1       -2.872   2.027  -0.375  0.00  0.00    +0.385 N 
ATOM     36  H   LIG    1       -3.847   1.812  -0.528  0.00  0.00    -0.085 HD
ATOM     37  H   LIG    1       -2.506   2.437  -1.224  0.00  0.00    -0.085 HD
ATOM     38  C   LIG    1       -2.779   3.029   0.789  0.00  0.00    -0.099 C 
ENDBRANCH  34  35
ENDBRANCH  29  34
ENDBRANCH  22  30
ENDBRANCH   1  22
TORSDOF 8
