REMARK  Name = DB12741
REMARK                            x       y       z     vdW  Elec       q    Type
REMARK                         _______ _______ _______ _____ _____    ______ ____
ROOT
ATOM      1  C   LIG    1        2.772  -1.125   2.223  0.00  0.00    +0.086 C 
ATOM      2  C   LIG    1        2.582  -1.923   0.948  0.00  0.00    +0.108 A 
ATOM      3  N   LIG    1        1.997  -1.417  -0.199  0.00  0.00    -0.308 N 
ATOM      4  C   LIG    1        2.004  -2.481  -1.090  0.00  0.00    +0.211 A 
ATOM      5  C   LIG    1        2.619  -3.518  -0.398  0.00  0.00    +0.164 A 
ATOM      6  N   LIG    1        2.960  -3.174   0.827  0.00  0.00    -0.239 NA
ENDROOT
BRANCH   4   7
ATOM      7  N   LIG    1        1.472  -2.455  -2.424  0.00  0.00    +0.025 N 
ATOM      8  O   LIG    1        1.648  -3.463  -3.100  0.00  0.00    -0.128 OA
BRANCH   7   9
ATOM      9  O   LIG    1        0.870  -1.466  -2.825  0.00  0.00    -0.395 OA
ATOM     10  H   LIG    1        0.765  -0.722  -2.265  0.00  0.00    +0.329 HD
ENDBRANCH   7   9
ENDBRANCH   4   7
BRANCH   3  11
ATOM     11  C   LIG    1        1.472  -0.059  -0.368  0.00  0.00    +0.142 C 
BRANCH  11  12
ATOM     12  C   LIG    1       -0.037  -0.028  -0.073  0.00  0.00    +0.128 C 
BRANCH  12  13
ATOM     13  N   LIG    1       -0.570   1.338  -0.223  0.00  0.00    -0.178 NA
ATOM     14  H   LIG    1       -0.417   1.697  -1.170  0.00  0.00    +0.149 HD
BRANCH  13  15
ATOM     15  S   LIG    1       -2.221   1.597   0.322  0.00  0.00    +0.092 S 
ATOM     16  O   LIG    1       -3.113   0.969  -0.658  0.00  0.00    -0.142 OA
ATOM     17  O   LIG    1       -2.295   1.236   1.741  0.00  0.00    -0.142 OA
BRANCH  15  18
ATOM     18  N   LIG    1       -2.410   3.333   0.187  0.00  0.00    -0.193 NA
ATOM     19  H   LIG    1       -2.606   3.628  -0.773  0.00  0.00    +0.145 HD
ATOM     20  H   LIG    1       -3.152   3.688   0.796  0.00  0.00    +0.145 HD
ENDBRANCH  15  18
ENDBRANCH  13  15
ENDBRANCH  12  13
ENDBRANCH  11  12
ENDBRANCH   3  11
TORSDOF 7
