REMARK  Name = DB12064
REMARK                            x       y       z     vdW  Elec       q    Type
REMARK                         _______ _______ _______ _____ _____    ______ ____
ROOT
ATOM      1  C   LIG    1        1.377   0.563  -0.614  0.00  0.00    +0.257 C 
ATOM      2  N   LIG    1        2.038   1.399   0.219  0.00  0.00    -0.281 N 
ATOM      3  H   LIG    1        1.467   1.975   0.819  0.00  0.00    +0.155 HD
ATOM      4  O   LIG    1        1.904  -0.121  -1.493  0.00  0.00    -0.270 OA
ENDROOT
BRANCH   1  11
ATOM      5  C   LIG    1       -0.908   1.691  -0.533  0.00  0.00    +0.271 A 
ATOM      6  O   LIG    1       -0.454   2.776  -0.918  0.00  0.00    -0.266 OA
ATOM      7  N   LIG    1       -2.249   1.517  -0.252  0.00  0.00    -0.283 N 
ATOM      8  C   LIG    1       -2.752   0.306   0.154  0.00  0.00    +0.098 A 
ATOM      9  C   LIG    1       -2.014  -0.801   0.324  0.00  0.00    +0.064 A 
ATOM     10  C   LIG    1       -0.575  -0.713   0.060  0.00  0.00    +0.139 A 
ATOM     11  C   LIG    1       -0.053   0.490  -0.349  0.00  0.00    +0.143 A 
BRANCH   7  12
ATOM     12  C   LIG    1       -3.155   2.588  -0.385  0.00  0.00    +0.050 A 
ATOM     13  C   LIG    1       -4.039   2.616  -1.469  0.00  0.00    +0.029 A 
ATOM     14  C   LIG    1       -4.940   3.670  -1.597  0.00  0.00    +0.040 A 
ATOM     15  C   LIG    1       -4.957   4.686  -0.644  0.00  0.00    +0.124 A 
ATOM     16  F   LIG    1       -5.833   5.708  -0.771  0.00  0.00    -0.205 F 
ATOM     17  C   LIG    1       -4.080   4.660   0.439  0.00  0.00    +0.040 A 
ATOM     18  C   LIG    1       -3.177   3.609   0.573  0.00  0.00    +0.029 A 
ENDBRANCH   7  12
BRANCH  10  19
ATOM     19  O   LIG    1        0.261  -1.786   0.225  0.00  0.00    -0.491 OA
BRANCH  19  20
ATOM     20  C   LIG    1       -0.268  -3.031   0.672  0.00  0.00    +0.226 C 
ATOM     21  C   LIG    1        0.887  -4.031   0.784  0.00  0.00    +0.048 C 
ENDBRANCH  19  20
ENDBRANCH  10  19
ENDBRANCH   1  11
BRANCH   2  22
ATOM     22  C   LIG    1        3.418   1.662   0.288  0.00  0.00    +0.037 A 
ATOM     23  C   LIG    1        3.796   2.864   0.892  0.00  0.00    +0.027 A 
ATOM     24  C   LIG    1        5.144   3.196   1.024  0.00  0.00    +0.051 A 
ATOM     25  C   LIG    1        6.134   2.322   0.573  0.00  0.00    +0.164 A 
ATOM     26  C   LIG    1        5.763   1.116  -0.038  0.00  0.00    +0.167 A 
ATOM     27  F   LIG    1        6.704   0.261  -0.499  0.00  0.00    -0.202 F 
ATOM     28  C   LIG    1        4.414   0.784  -0.171  0.00  0.00    +0.065 A 
BRANCH  25  29
ATOM     29  O   LIG    1        7.452   2.690   0.708  0.00  0.00    -0.452 OA
BRANCH  29  30
ATOM     30  C   LIG    1        8.270   1.925   1.509  0.00  0.00    +0.152 A 
ATOM     31  C   LIG    1        7.968   1.728   2.863  0.00  0.00    +0.067 A 
ATOM     32  C   LIG    1        8.825   0.943   3.633  0.00  0.00    +0.116 A 
ATOM     33  N   LIG    1        9.942   0.363   3.130  0.00  0.00    -0.239 NA
ATOM     34  C   LIG    1       10.234   0.561   1.819  0.00  0.00    +0.138 A 
ATOM     35  C   LIG    1        9.425   1.337   0.974  0.00  0.00    +0.122 A 
ATOM     36 CL   LIG    1        9.823   1.576  -0.697  0.00  0.00    -0.076 Cl
BRANCH  34  37
ATOM     37  N   LIG    1       11.395  -0.054   1.348  0.00  0.00    -0.342 N 
ATOM     38  H   LIG    1       11.954  -0.607   1.982  0.00  0.00    +0.144 HD
ATOM     39  H   LIG    1       11.660   0.061   0.381  0.00  0.00    +0.144 HD
ENDBRANCH  34  37
ENDBRANCH  29  30
ENDBRANCH  25  29
ENDBRANCH   2  22
TORSDOF 8
