REMARK  Name = DB12410
REMARK                            x       y       z     vdW  Elec       q    Type
REMARK                         _______ _______ _______ _____ _____    ______ ____
ROOT
ATOM      1  C   LIG    1        1.859  -0.631  -0.759  0.00  0.00    +0.158 C 
ATOM      2  C   LIG    1        3.394  -0.832  -0.668  0.00  0.00    +0.030 A 
ATOM      3  C   LIG    1        3.954  -1.542   0.409  0.00  0.00    +0.134 A 
ATOM      4  C   LIG    1        5.344  -1.792   0.512  0.00  0.00    +0.078 A 
ATOM      5  C   LIG    1        5.921  -2.556   1.696  0.00  0.00    +0.198 C 
ATOM      6  O   LIG    1        5.218  -3.145   2.521  0.00  0.00    -0.286 OA
ATOM      7  C   LIG    1        7.402  -2.457   1.908  0.00  0.00    +0.033 A 
ATOM      8  C   LIG    1        8.251  -1.974   0.892  0.00  0.00    +0.033 A 
ATOM      9  C   LIG    1        7.702  -1.546  -0.434  0.00  0.00    +0.198 C 
ATOM     10  O   LIG    1        8.467  -1.305  -1.371  0.00  0.00    -0.286 OA
ATOM     11  C   LIG    1        9.632  -1.891   1.137  0.00  0.00    +0.012 A 
ATOM     12  C   LIG    1       10.169  -2.280   2.361  0.00  0.00    +0.001 A 
ATOM     13  C   LIG    1        9.332  -2.758   3.363  0.00  0.00    +0.001 A 
ATOM     14  C   LIG    1        7.960  -2.845   3.138  0.00  0.00    +0.012 A 
ATOM     15  C   LIG    1        6.202  -1.302  -0.508  0.00  0.00    +0.078 A 
ATOM     16  C   LIG    1        5.634  -0.575  -1.580  0.00  0.00    +0.132 A 
ATOM     17  C   LIG    1        4.253  -0.345  -1.676  0.00  0.00    +0.007 A 
ATOM     18  C   LIG    1        3.666   0.439  -2.864  0.00  0.00    +0.082 C 
ATOM     19  C   LIG    1        2.252  -0.038  -3.267  0.00  0.00    +0.133 C 
ATOM     20  C   LIG    1        1.362   0.132  -2.018  0.00  0.00    +0.079 C 
ENDROOT
BRANCH   3  21
ATOM     21  O   LIG    1        3.081  -2.005   1.369  0.00  0.00    -0.506 OA
ATOM     22  H   LIG    1        2.171  -1.753   1.195  0.00  0.00    +0.292 HD
ENDBRANCH   3  21
BRANCH  16  23
ATOM     23  O   LIG    1        6.426  -0.041  -2.573  0.00  0.00    -0.506 OA
ATOM     24  H   LIG    1        5.925   0.439  -3.235  0.00  0.00    +0.292 HD
ENDBRANCH  16  23
BRANCH  19  25
ATOM     25  O   LIG    1        1.760   0.792  -4.305  0.00  0.00    -0.381 OA
ATOM     26  H   LIG    1        0.849   0.546  -4.485  0.00  0.00    +0.211 HD
ENDBRANCH  19  25
BRANCH  19  27
ATOM     27  C   LIG    1        2.261  -1.483  -3.848  0.00  0.00    +0.190 C 
ATOM     28  O   LIG    1        1.577  -2.379  -3.346  0.00  0.00    -0.292 OA
BRANCH  27  29
ATOM     29  C   LIG    1        3.159  -1.747  -5.075  0.00  0.00    +0.233 C 
BRANCH  29  30
ATOM     30  O   LIG    1        3.026  -3.086  -5.516  0.00  0.00    -0.387 OA
ATOM     31  H   LIG    1        3.335  -3.670  -4.819  0.00  0.00    +0.210 HD
ENDBRANCH  29  30
ENDBRANCH  27  29
ENDBRANCH  19  27
BRANCH   1  32
ATOM     32  O   LIG    1        1.347  -0.070   0.456  0.00  0.00    -0.343 OA
BRANCH  32  36
ATOM     33  C   LIG    1       -0.730   2.494   1.844  0.00  0.00    +0.178 C 
ATOM     34  C   LIG    1        0.011   1.431   2.683  0.00  0.00    +0.151 C 
ATOM     35  C   LIG    1       -0.305   0.017   2.168  0.00  0.00    +0.095 C 
ATOM     36  C   LIG    1       -0.040  -0.099   0.657  0.00  0.00    +0.254 C 
ATOM     37  O   LIG    1       -0.696   0.933  -0.047  0.00  0.00    -0.346 OA
ATOM     38  C   LIG    1       -0.352   2.266   0.363  0.00  0.00    +0.150 C 
ATOM     39  C   LIG    1       -1.017   3.268  -0.596  0.00  0.00    +0.041 C 
BRANCH  34  40
ATOM     40  O   LIG    1       -0.193   1.558   4.075  0.00  0.00    -0.389 OA
ATOM     41  H   LIG    1        0.078   0.741   4.500  0.00  0.00    +0.210 HD
ENDBRANCH  34  40
BRANCH  33  42
ATOM     42  O   LIG    1       -2.159   2.445   1.932  0.00  0.00    -0.343 OA
BRANCH  42  46
ATOM     43  C   LIG    1       -4.061  -0.145   4.636  0.00  0.00    +0.040 C 
ATOM     44  C   LIG    1       -3.980   0.961   3.570  0.00  0.00    +0.145 C 
ATOM     45  O   LIG    1       -3.067   1.974   4.020  0.00  0.00    -0.346 OA
ATOM     46  C   LIG    1       -2.768   2.977   3.074  0.00  0.00    +0.250 C 
ATOM     47  C   LIG    1       -4.049   3.699   2.635  0.00  0.00    +0.048 C 
ATOM     48  C   LIG    1       -5.104   2.688   2.140  0.00  0.00    -0.039 C 
ATOM     49  C   LIG    1       -5.351   1.568   3.180  0.00  0.00    +0.129 C 
BRANCH  48  50
ATOM     50  N   LIG    1       -6.407   3.443   1.816  0.00  0.00    +0.382 N 
ATOM     51  H   LIG    1       -6.233   4.162   1.128  0.00  0.00    -0.090 HD
ATOM     52  H   LIG    1       -7.098   2.803   1.452  0.00  0.00    -0.090 HD
ATOM     53  H   LIG    1       -6.774   3.873   2.653  0.00  0.00    -0.090 HD
ENDBRANCH  48  50
BRANCH  49  54
ATOM     54  O   LIG    1       -6.077   1.985   4.330  0.00  0.00    -0.391 OA
ATOM     55  H   LIG    1       -5.532   2.600   4.829  0.00  0.00    +0.210 HD
ENDBRANCH  49  54
ENDBRANCH  42  46
ENDBRANCH  33  42
ENDBRANCH  32  36
ENDBRANCH   1  32
TORSDOF 13
