REMARK  Name = DB12273
REMARK                            x       y       z     vdW  Elec       q    Type
REMARK                         _______ _______ _______ _____ _____    ______ ____
ROOT
ATOM      1  C   LIG    1       -0.125  -0.382   0.060  0.00  0.00    -0.096 C 
ATOM      2  N   LIG    1        1.377  -0.014   0.051  0.00  0.00    +0.381 N 
ATOM      3  H   LIG    1        1.856  -0.901   0.119  0.00  0.00    -0.082 HD
ATOM      4  C   LIG    1        1.881   0.572  -1.298  0.00  0.00    -0.057 C 
ATOM      5  C   LIG    1        1.376   2.050  -1.482  0.00  0.00    +0.036 C 
ATOM      6  C   LIG    1        2.277   3.065  -0.751  0.00  0.00    -0.035 A 
ATOM      7  C   LIG    1        2.204   3.176   0.654  0.00  0.00    -0.044 A 
ATOM      8  C   LIG    1        2.974   4.148   1.306  0.00  0.00    +0.027 A 
ATOM      9  C   LIG    1        3.823   4.996   0.600  0.00  0.00    +0.083 A 
ATOM     10 CL   LIG    1        4.752   6.172   1.465  0.00  0.00    -0.080 Cl
ATOM     11  C   LIG    1        3.920   4.873  -0.786  0.00  0.00    +0.135 A 
ATOM     12  C   LIG    1        1.371   2.191   1.473  0.00  0.00    +0.017 C 
ATOM     13  C   LIG    1        3.154   3.915  -1.446  0.00  0.00    +0.051 A 
ATOM     14  C   LIG    1        1.069   2.452  -2.944  0.00  0.00    -0.038 A 
ATOM     15  C   LIG    1        1.498   1.667  -4.038  0.00  0.00    -0.044 A 
ATOM     16  C   LIG    1        2.258   0.374  -3.791  0.00  0.00    +0.034 C 
ATOM     17  C   LIG    1        1.194   2.075  -5.342  0.00  0.00    +0.004 A 
ATOM     18  C   LIG    1        0.481   3.246  -5.582  0.00  0.00    +0.000 A 
ATOM     19  C   LIG    1        0.056   4.024  -4.512  0.00  0.00    +0.000 A 
ATOM     20  C   LIG    1        0.347   3.626  -3.210  0.00  0.00    +0.004 A 
ATOM     21  C   LIG    1        1.691  -0.315  -2.546  0.00  0.00    -0.010 C 
ATOM     22  C   LIG    1        1.799   0.714   1.349  0.00  0.00    -0.074 C 
ENDROOT
BRANCH  11  23
ATOM     23  O   LIG    1        4.756   5.683  -1.512  0.00  0.00    -0.505 OA
ATOM     24  H   LIG    1        4.727   5.506  -2.455  0.00  0.00    +0.292 HD
ENDBRANCH  11  23
TORSDOF 1
