REMARK  Name = DB12709
REMARK                            x       y       z     vdW  Elec       q    Type
REMARK                         _______ _______ _______ _____ _____    ______ ____
ROOT
ATOM      1  C   LIG    1        1.736  -0.232   0.130  0.00  0.00    +0.251 C 
ENDROOT
BRANCH   1   2
ATOM      2  C   LIG    1        0.266  -0.213   0.586  0.00  0.00    +0.280 C 
BRANCH   2   3
ATOM      3  O   LIG    1       -0.281   1.081   0.361  0.00  0.00    -0.461 OA
BRANCH   3   4
ATOM      4  C   LIG    1       -1.548   1.365   0.719  0.00  0.00    +0.307 C 
ATOM      5  O   LIG    1       -2.343   0.582   1.246  0.00  0.00    -0.251 OA
BRANCH   4   6
ATOM      6  C   LIG    1       -1.916   2.816   0.385  0.00  0.00    +0.120 C 
BRANCH   6   8
ATOM      7  C   LIG    1       -3.692   4.655   0.330  0.00  0.00    +0.004 C 
ATOM      8  C   LIG    1       -3.379   3.198   0.692  0.00  0.00    +0.008 C 
ENDBRANCH   6   8
ENDBRANCH   4   6
ENDBRANCH   3   4
ENDBRANCH   2   3
ENDBRANCH   1   2
BRANCH   1   9
ATOM      9  O   LIG    1        2.477   0.564   1.054  0.00  0.00    -0.454 OA
BRANCH   9  10
ATOM     10  C   LIG    1        3.658   1.139   0.719  0.00  0.00    +0.308 C 
ATOM     11  O   LIG    1        4.234   1.025  -0.364  0.00  0.00    -0.251 OA
BRANCH  10  12
ATOM     12  C   LIG    1        4.258   1.996   1.843  0.00  0.00    +0.120 C 
BRANCH  12  13
ATOM     13  C   LIG    1        3.243   2.815   2.675  0.00  0.00    +0.008 C 
ATOM     14  C   LIG    1        2.445   3.855   1.870  0.00  0.00    +0.004 C 
ENDBRANCH  12  13
ENDBRANCH  10  12
ENDBRANCH   9  10
ENDBRANCH   1   9
BRANCH   1  15
ATOM     15  C   LIG    1        2.316  -1.661   0.079  0.00  0.00    +0.280 C 
BRANCH  15  16
ATOM     16  O   LIG    1        1.634  -2.436  -0.900  0.00  0.00    -0.461 OA
BRANCH  16  17
ATOM     17  C   LIG    1        1.964  -3.727  -1.108  0.00  0.00    +0.307 C 
ATOM     18  O   LIG    1        2.844  -4.352  -0.511  0.00  0.00    -0.251 OA
BRANCH  17  19
ATOM     19  C   LIG    1        1.099  -4.363  -2.204  0.00  0.00    +0.120 C 
BRANCH  19  20
ATOM     20  C   LIG    1        1.412  -5.846  -2.494  0.00  0.00    +0.008 C 
ATOM     21  C   LIG    1        0.512  -6.431  -3.590  0.00  0.00    +0.004 C 
ENDBRANCH  19  20
ENDBRANCH  17  19
ENDBRANCH  16  17
ENDBRANCH  15  16
ENDBRANCH   1  15
TORSDOF 14
