REMARK  Name = DB12875
REMARK                            x       y       z     vdW  Elec       q    Type
REMARK                         _______ _______ _______ _____ _____    ______ ____
ROOT
ATOM      1  C   LIG    1        1.539   2.206   1.236  0.00  0.00    -0.015 A 
ATOM      2  C   LIG    1        1.156   2.060   2.577  0.00  0.00    +0.036 A 
ATOM      3  C   LIG    1        0.572   3.168   3.196  0.00  0.00    +0.067 A 
ATOM      4  N   LIG    1        0.083   3.405   4.460  0.00  0.00    -0.338 N 
ATOM      5  H   LIG    1        0.045   2.780   5.252  0.00  0.00    +0.167 HD
ATOM      6  C   LIG    1       -0.372   4.704   4.496  0.00  0.00    +0.132 A 
ATOM      7  N   LIG    1       -0.216   5.321   3.348  0.00  0.00    -0.228 NA
ATOM      8  C   LIG    1        0.371   4.397   2.523  0.00  0.00    +0.089 A 
ATOM      9  C   LIG    1        0.769   4.526   1.187  0.00  0.00    +0.030 A 
ATOM     10  C   LIG    1        1.354   3.422   0.566  0.00  0.00    +0.011 A 
ENDROOT
BRANCH   1  12
ATOM     11  C   LIG    1        1.465  -0.010  -0.063  0.00  0.00    -0.009 A 
ATOM     12  C   LIG    1        2.180   1.070   0.525  0.00  0.00    -0.012 A 
ATOM     13  C   LIG    1        3.579   1.089   0.458  0.00  0.00    +0.009 A 
ATOM     14  C   LIG    1        4.288   0.060  -0.153  0.00  0.00    +0.001 A 
ATOM     15  C   LIG    1        3.602  -1.013  -0.704  0.00  0.00    +0.000 A 
ATOM     16  C   LIG    1        2.211  -1.047  -0.654  0.00  0.00    +0.007 A 
BRANCH  11  18
ATOM     17  C   LIG    1       -0.657  -0.858  -1.302  0.00  0.00    +0.046 C 
ATOM     18  C   LIG    1       -0.088  -0.124  -0.059  0.00  0.00    +0.086 C 
ATOM     19  C   LIG    1       -0.569  -0.820   1.231  0.00  0.00    +0.046 C 
BRANCH  18  20
ATOM     20  O   LIG    1       -0.745   1.130  -0.122  0.00  0.00    -0.384 OA
ATOM     21  H   LIG    1       -1.693   0.979  -0.110  0.00  0.00    +0.211 HD
ENDBRANCH  18  20
ENDBRANCH  11  18
ENDBRANCH   1  12
BRANCH   6  22
ATOM     22  C   LIG    1       -0.936   5.233   5.725  0.00  0.00    +0.047 C 
ATOM     23  C   LIG    1       -1.421   6.478   5.905  0.00  0.00    +0.011 C 
BRANCH  23  24
ATOM     24  C   LIG    1       -1.989   7.044   7.148  0.00  0.00    -0.025 A 
ATOM     25  C   LIG    1       -2.069   6.314   8.342  0.00  0.00    +0.008 A 
ATOM     26  C   LIG    1       -2.603   6.896   9.489  0.00  0.00    +0.013 A 
ATOM     27  C   LIG    1       -3.066   8.215   9.461  0.00  0.00    +0.055 A 
ATOM     28  C   LIG    1       -2.991   8.943   8.270  0.00  0.00    +0.013 A 
ATOM     29  C   LIG    1       -2.456   8.361   7.125  0.00  0.00    +0.008 A 
BRANCH  27  30
ATOM     30  C   LIG    1       -3.650   8.860  10.717  0.00  0.00    +0.417 C 
ATOM     31  F   LIG    1       -4.646   9.694  10.411  0.00  0.00    -0.166 F 
ATOM     32  F   LIG    1       -2.691   9.552  11.332  0.00  0.00    -0.166 F 
ATOM     33  F   LIG    1       -4.125   7.949  11.568  0.00  0.00    -0.166 F 
ENDBRANCH  27  30
ENDBRANCH  23  24
ENDBRANCH   6  22
TORSDOF 6
