REMARK  Name = DB12846
REMARK                            x       y       z     vdW  Elec       q    Type
REMARK                         _______ _______ _______ _____ _____    ______ ____
ROOT
ATOM      1  N   LIG    1        1.489  -0.076   0.177  0.00  0.00    +0.381 N 
ATOM      2  H   LIG    1        1.783   0.467   0.977  0.00  0.00    -0.086 HD
ATOM      3  H   LIG    1        1.827   0.387  -0.655  0.00  0.00    -0.086 HD
ENDROOT
BRANCH   1   4
ATOM      4  C   LIG    1       -0.045  -0.102   0.124  0.00  0.00    -0.081 C 
BRANCH   4   5
ATOM      5  C   LIG    1       -0.568   1.342   0.035  0.00  0.00    +0.003 C 
BRANCH   5   6
ATOM      6  C   LIG    1       -2.100   1.446  -0.129  0.00  0.00    +0.121 C 
BRANCH   6  15
ATOM      7  C   LIG    1       -3.706  -0.929  -5.519  0.00  0.00    +0.155 C 
ATOM      8  N   LIG    1       -2.999   0.111  -4.755  0.00  0.00    -0.280 N 
ATOM      9  C   LIG    1       -2.299   1.072  -5.448  0.00  0.00    +0.333 A 
ATOM     10  O   LIG    1       -2.209   1.047  -6.682  0.00  0.00    -0.246 OA
ATOM     11  N   LIG    1       -1.708   2.051  -4.655  0.00  0.00    -0.262 N 
ATOM     12  C   LIG    1       -1.701   2.200  -3.276  0.00  0.00    +0.282 A 
ATOM     13  O   LIG    1       -1.188   3.150  -2.680  0.00  0.00    -0.265 OA
ATOM     14  C   LIG    1       -2.376   1.077  -2.657  0.00  0.00    +0.151 A 
ATOM     15  N   LIG    1       -2.575   0.757  -1.329  0.00  0.00    -0.325 N 
ATOM     16  C   LIG    1       -3.340  -0.387  -1.365  0.00  0.00    +0.202 A 
ATOM     17  N   LIG    1       -3.609  -0.808  -2.577  0.00  0.00    -0.218 NA
ATOM     18  C   LIG    1       -1.042   3.139  -5.411  0.00  0.00    +0.157 C 
ATOM     19  C   LIG    1       -3.026   0.080  -3.367  0.00  0.00    +0.168 A 
ENDBRANCH   6  15
ENDBRANCH   5   6
ENDBRANCH   4   5
ENDBRANCH   1   4
BRANCH   1  20
ATOM     20  C   LIG    1        2.133  -1.472   0.255  0.00  0.00    -0.046 C 
BRANCH  20  21
ATOM     21  C   LIG    1        3.671  -1.377   0.130  0.00  0.00    +0.128 C 
BRANCH  21  22
ATOM     22  C   LIG    1        4.140  -0.659  -1.138  0.00  0.00    -0.014 A 
ATOM     23  C   LIG    1        3.939  -1.234  -2.400  0.00  0.00    +0.051 A 
ATOM     24  C   LIG    1        4.348  -0.566  -3.554  0.00  0.00    +0.121 A 
ATOM     25  C   LIG    1        4.959   0.685  -3.457  0.00  0.00    +0.090 A 
ATOM     26  C   LIG    1        5.160   1.266  -2.205  0.00  0.00    +0.121 A 
ATOM     27  C   LIG    1        4.752   0.597  -1.050  0.00  0.00    +0.051 A 
BRANCH  24  28
ATOM     28  O   LIG    1        4.144  -1.136  -4.782  0.00  0.00    -0.507 OA
ATOM     29  H   LIG    1        4.465  -0.594  -5.506  0.00  0.00    +0.292 HD
ENDBRANCH  24  28
BRANCH  26  30
ATOM     30  O   LIG    1        5.755   2.495  -2.108  0.00  0.00    -0.507 OA
ATOM     31  H   LIG    1        6.005   2.860  -2.960  0.00  0.00    +0.292 HD
ENDBRANCH  26  30
ENDBRANCH  21  22
BRANCH  21  32
ATOM     32  O   LIG    1        4.177  -2.695   0.210  0.00  0.00    -0.389 OA
ATOM     33  H   LIG    1        5.134  -2.652   0.271  0.00  0.00    +0.210 HD
ENDBRANCH  21  32
ENDBRANCH  20  21
ENDBRANCH   1  20
TORSDOF 10
