REMARK  Name = DB12408
REMARK                            x       y       z     vdW  Elec       q    Type
REMARK                         _______ _______ _______ _____ _____    ______ ____
ROOT
ATOM      1  C   LIG    1        2.220  -1.533  -0.095  0.00  0.00    +0.024 C 
ENDROOT
BRANCH   1   2
ATOM      2  C   LIG    1        1.453  -0.186   0.032  0.00  0.00    -0.011 C 
BRANCH   2   4
ATOM      3  C   LIG    1       -0.708  -0.904  -1.121  0.00  0.00    -0.010 C 
ATOM      4  C   LIG    1       -0.098  -0.281   0.159  0.00  0.00    -0.071 C 
ATOM      5  C   LIG    1       -0.535  -1.084   1.416  0.00  0.00    -0.010 C 
BRANCH   4   6
ATOM      6  N   LIG    1       -0.618   1.188   0.234  0.00  0.00    +0.388 N 
ATOM      7  H   LIG    1       -0.302   1.688  -0.585  0.00  0.00    -0.081 HD
ATOM      8  C   LIG    1       -2.118   1.444   0.466  0.00  0.00    -0.035 C 
ATOM      9  C   LIG    1       -1.827   2.016   1.855  0.00  0.00    +0.141 C 
ATOM     10  C   LIG    1       -0.335   2.011   1.503  0.00  0.00    -0.035 C 
BRANCH   9  11
ATOM     11  O   LIG    1       -2.385   3.320   2.010  0.00  0.00    -0.492 OA
BRANCH  11  12
ATOM     12  C   LIG    1       -2.122   4.045   3.157  0.00  0.00    +0.124 A 
ATOM     13  C   LIG    1       -2.676   5.326   3.232  0.00  0.00    +0.091 A 
ATOM     14  C   LIG    1       -2.467   6.131   4.353  0.00  0.00    +0.120 A 
ATOM     15  C   LIG    1       -1.698   5.658   5.416  0.00  0.00    +0.045 A 
ATOM     16  C   LIG    1       -1.140   4.382   5.357  0.00  0.00    +0.007 A 
ATOM     17  C   LIG    1       -1.350   3.578   4.236  0.00  0.00    +0.046 A 
BRANCH  14  18
ATOM     18  O   LIG    1       -3.016   7.384   4.410  0.00  0.00    -0.507 OA
ATOM     19  H   LIG    1       -3.525   7.605   3.627  0.00  0.00    +0.292 HD
ENDBRANCH  14  18
ENDBRANCH  11  12
ENDBRANCH   9  11
ENDBRANCH   4   6
ENDBRANCH   2   4
ENDBRANCH   1   2
BRANCH   1  20
ATOM     20  C   LIG    1        3.795  -1.448  -0.079  0.00  0.00    +0.096 C 
BRANCH  20  21
ATOM     21  C   LIG    1        4.376  -0.971   1.293  0.00  0.00    -0.028 A 
ATOM     22  C   LIG    1        3.602  -0.943   2.467  0.00  0.00    +0.005 A 
ATOM     23  C   LIG    1        4.152  -0.532   3.678  0.00  0.00    +0.000 A 
ATOM     24  C   LIG    1        5.490  -0.156   3.738  0.00  0.00    +0.000 A 
ATOM     25  C   LIG    1        6.283  -0.194   2.597  0.00  0.00    +0.000 A 
ATOM     26  C   LIG    1        5.731  -0.604   1.388  0.00  0.00    +0.005 A 
ENDBRANCH  20  21
BRANCH  20  27
ATOM     27  C   LIG    1        4.177  -0.520  -1.283  0.00  0.00    -0.028 A 
ATOM     28  C   LIG    1        4.476   0.839  -1.082  0.00  0.00    +0.005 A 
ATOM     29  C   LIG    1        4.769   1.675  -2.156  0.00  0.00    +0.000 A 
ATOM     30  C   LIG    1        4.744   1.170  -3.451  0.00  0.00    +0.000 A 
ATOM     31  C   LIG    1        4.417  -0.161  -3.682  0.00  0.00    +0.000 A 
ATOM     32  C   LIG    1        4.125  -0.996  -2.606  0.00  0.00    +0.005 A 
ENDBRANCH  20  27
BRANCH  20  33
ATOM     33  C   LIG    1        4.365  -2.903  -0.246  0.00  0.00    +0.225 C 
ATOM     34  N   LIG    1        5.554  -3.074  -0.839  0.00  0.00    -0.328 N 
ATOM     35  H   LIG    1        5.950  -3.999  -0.921  0.00  0.00    +0.145 HD
ATOM     36  H   LIG    1        6.057  -2.282  -1.210  0.00  0.00    +0.145 HD
ATOM     37  O   LIG    1        3.776  -3.873   0.232  0.00  0.00    -0.275 OA
ENDBRANCH  20  33
ENDBRANCH   1  20
TORSDOF 10
