REMARK  Name = DB12233
REMARK                            x       y       z     vdW  Elec       q    Type
REMARK                         _______ _______ _______ _____ _____    ______ ____
ROOT
ATOM      1  C   LIG    1        0.058  -0.227  -0.139  0.00  0.00    +0.093 A 
ATOM      2  C   LIG    1       -0.697  -1.404  -0.202  0.00  0.00    +0.075 A 
ATOM      3  C   LIG    1       -2.087  -1.349  -0.140  0.00  0.00    +0.141 A 
ATOM      4  O   LIG    1       -2.758  -2.553  -0.210  0.00  0.00    -0.461 OA
ATOM      5  C   LIG    1       -4.114  -2.534  -0.151  0.00  0.00    +0.222 A 
ATOM      6  C   LIG    1       -4.887  -1.424  -0.030  0.00  0.00    +0.116 A 
ATOM      7  C   LIG    1       -4.262  -0.086   0.045  0.00  0.00    +0.214 A 
ATOM      8  O   LIG    1       -4.875   0.980   0.150  0.00  0.00    -0.285 OA
ATOM      9  C   LIG    1       -2.763  -0.124  -0.018  0.00  0.00    +0.069 A 
ATOM     10  C   LIG    1       -2.000   1.049   0.043  0.00  0.00    +0.063 A 
ATOM     11  C   LIG    1       -0.605   1.005  -0.006  0.00  0.00    +0.152 A 
ENDROOT
BRANCH   6  12
ATOM     12  N   LIG    1       -6.263  -1.422   0.023  0.00  0.00    -0.283 N 
ATOM     13  H   LIG    1       -6.672  -0.498   0.053  0.00  0.00    +0.155 HD
ATOM     14  C   LIG    1       -7.136  -2.454   0.050  0.00  0.00    +0.330 C 
ATOM     15  O   LIG    1       -6.863  -3.653   0.037  0.00  0.00    -0.279 OA
ENDBRANCH   6  12
BRANCH   1  16
ATOM     16  N   LIG    1        1.460  -0.242  -0.211  0.00  0.00    -0.217 N 
ATOM     17  H   LIG    1        1.932   0.649  -0.158  0.00  0.00    +0.173 HD
BRANCH  16  18
ATOM     18  S   LIG    1        2.444  -1.699   0.017  0.00  0.00    +0.040 S 
ATOM     19  O   LIG    1        2.240  -2.543  -1.165  0.00  0.00    -0.155 OA
ATOM     20  O   LIG    1        2.140  -2.210   1.358  0.00  0.00    -0.155 OA
ATOM     21  C   LIG    1        4.194  -1.003  -0.005  0.00  0.00    +0.218 C 
ENDBRANCH  16  18
ENDBRANCH   1  16
BRANCH  11  22
ATOM     22  O   LIG    1        0.084   2.198   0.060  0.00  0.00    -0.454 OA
BRANCH  22  23
ATOM     23  C   LIG    1        0.835   2.528   1.172  0.00  0.00    +0.129 A 
ATOM     24  C   LIG    1        0.704   1.889   2.415  0.00  0.00    +0.046 A 
ATOM     25  C   LIG    1        1.498   2.280   3.490  0.00  0.00    +0.004 A 
ATOM     26  C   LIG    1        2.416   3.313   3.330  0.00  0.00    +0.000 A 
ATOM     27  C   LIG    1        2.546   3.962   2.104  0.00  0.00    +0.004 A 
ATOM     28  C   LIG    1        1.754   3.569   1.029  0.00  0.00    +0.046 A 
ENDBRANCH  22  23
ENDBRANCH  11  22
TORSDOF 5
