REMARK  Name = DB12529
REMARK                            x       y       z     vdW  Elec       q    Type
REMARK                         _______ _______ _______ _____ _____    ______ ____
ROOT
ATOM      1  N   LIG    1       -0.125   0.571  -0.271  0.00  0.00    +0.153 NA
ATOM      2  O   LIG    1        0.520  -0.007   0.540  0.00  0.00    -0.106 OA
ENDROOT
BRANCH   1   3
ATOM      3  O   LIG    1       -1.088   1.441   0.243  0.00  0.00    -0.378 OA
ATOM      4  H   LIG    1       -1.634   1.931  -0.339  0.00  0.00    +0.331 HD
ENDBRANCH   1   3
TORSDOF 1
