REMARK  Name = DB12008
REMARK                            x       y       z     vdW  Elec       q    Type
REMARK                         _______ _______ _______ _____ _____    ______ ____
ROOT
ATOM      1  C   LIG    1       -2.154   1.212  -0.047  0.00  0.00    +0.133 A 
ATOM      2  C   LIG    1       -0.751   1.085  -0.077  0.00  0.00    +0.083 A 
ATOM      3  C   LIG    1       -0.148  -0.185   0.026  0.00  0.00    +0.133 A 
ATOM      4  C   LIG    1       -0.966  -1.319   0.155  0.00  0.00    +0.046 A 
ATOM      5  C   LIG    1       -2.349  -1.198   0.185  0.00  0.00    +0.007 A 
ATOM      6  C   LIG    1       -2.940   0.056   0.086  0.00  0.00    +0.046 A 
ENDROOT
BRANCH   2   7
ATOM      7  C   LIG    1        0.099   2.314  -0.209  0.00  0.00    +0.075 A 
ATOM      8  N   LIG    1        1.213   2.413  -1.001  0.00  0.00    -0.275 N 
ATOM      9  H   LIG    1        1.571   1.660  -1.571  0.00  0.00    +0.189 HD
ATOM     10  N   LIG    1        1.814   3.605  -0.960  0.00  0.00    -0.158 NA
ATOM     11  C   LIG    1        1.092   4.334  -0.135  0.00  0.00    +0.146 A 
ATOM     12  C   LIG    1        0.016   3.580   0.353  0.00  0.00    +0.073 A 
BRANCH  11  13
ATOM     13  N   LIG    1        1.366   5.647   0.191  0.00  0.00    -0.282 N 
ATOM     14  H   LIG    1        0.728   6.121   0.814  0.00  0.00    +0.155 HD
BRANCH  13  15
ATOM     15  C   LIG    1        2.423   6.486  -0.208  0.00  0.00    +0.142 A 
ATOM     16  N   LIG    1        3.410   6.044  -1.040  0.00  0.00    -0.236 NA
ATOM     17  C   LIG    1        4.398   6.913  -1.380  0.00  0.00    +0.151 A 
ATOM     18  C   LIG    1        4.403   8.222  -0.891  0.00  0.00    +0.158 A 
ATOM     19  N   LIG    1        3.428   8.676  -0.061  0.00  0.00    -0.240 NA
ATOM     20  C   LIG    1        2.443   7.801   0.274  0.00  0.00    +0.156 A 
BRANCH  18  21
ATOM     21  C   LIG    1        5.449   9.169  -1.239  0.00  0.00    +0.121 C 
ATOM     22  N   LIG    1        6.282   9.923  -1.517  0.00  0.00    -0.189 NA
ENDBRANCH  18  21
ENDBRANCH  13  15
ENDBRANCH  11  13
ENDBRANCH   2   7
BRANCH   1  24
ATOM     23  C   LIG    1       -4.109   2.652  -0.159  0.00  0.00    +0.277 C 
ATOM     24  O   LIG    1       -2.696   2.482  -0.167  0.00  0.00    -0.494 OA
ENDBRANCH   1  24
BRANCH   3  25
ATOM     25  O   LIG    1        1.235  -0.252   0.009  0.00  0.00    -0.491 OA
BRANCH  25  26
ATOM     26  C   LIG    1        1.894  -1.511   0.099  0.00  0.00    +0.227 C 
BRANCH  26  27
ATOM     27  C   LIG    1        3.407  -1.264   0.023  0.00  0.00    +0.021 C 
BRANCH  27  28
ATOM     28  C   LIG    1        4.220  -2.565   0.117  0.00  0.00    -0.083 C 
BRANCH  28  29
ATOM     29  N   LIG    1        5.718  -2.252   0.030  0.00  0.00    +0.378 N 
ATOM     30  H   LIG    1        5.928  -1.796  -0.847  0.00  0.00    -0.090 HD
ATOM     31  H   LIG    1        5.991  -1.642   0.787  0.00  0.00    -0.090 HD
ATOM     32  H   LIG    1        6.256  -3.105   0.089  0.00  0.00    -0.090 HD
ENDBRANCH  28  29
ENDBRANCH  27  28
ENDBRANCH  26  27
ENDBRANCH  25  26
ENDBRANCH   3  25
TORSDOF 10
