REMARK  Name = DB12180
REMARK                            x       y       z     vdW  Elec       q    Type
REMARK                         _______ _______ _______ _____ _____    ______ ____
ROOT
ATOM      1  C   LIG    1       -2.683   0.820   0.044  0.00  0.00    +0.078 A 
ATOM      2  C   LIG    1       -4.049   1.197   0.042  0.00  0.00    +0.140 A 
ATOM      3  N   LIG    1       -4.998   0.222   0.047  0.00  0.00    -0.211 NA
ATOM      4  C   LIG    1       -4.604  -1.075   0.102  0.00  0.00    +0.165 A 
ATOM      5  N   LIG    1       -3.314  -1.504   0.144  0.00  0.00    -0.226 NA
ATOM      6  C   LIG    1       -2.359  -0.564   0.102  0.00  0.00    +0.087 A 
ATOM      7  C   LIG    1       -0.953  -0.830   0.106  0.00  0.00    -0.016 A 
ATOM      8  C   LIG    1       -0.401  -2.243   0.185  0.00  0.00    +0.047 C 
ATOM      9  C   LIG    1       -0.199   0.336   0.021  0.00  0.00    -0.021 A 
ATOM     10  S   LIG    1       -1.209   1.768  -0.085  0.00  0.00    -0.090 S 
ENDROOT
BRANCH   2  11
ATOM     11  N   LIG    1       -4.480   2.527   0.010  0.00  0.00    -0.310 N 
ATOM     12  C   LIG    1       -5.896   2.861  -0.250  0.00  0.00    +0.134 C 
ATOM     13  C   LIG    1       -6.104   4.342  -0.636  0.00  0.00    +0.178 C 
ATOM     14  O   LIG    1       -5.576   5.186   0.377  0.00  0.00    -0.377 OA
ATOM     15  C   LIG    1       -4.191   4.956   0.590  0.00  0.00    +0.178 C 
ATOM     16  C   LIG    1       -3.963   3.487   1.006  0.00  0.00    +0.134 C 
ENDBRANCH   2  11
BRANCH   4  17
ATOM     17  C   LIG    1       -5.682  -2.120   0.113  0.00  0.00    +0.055 A 
ATOM     18  C   LIG    1       -5.405  -3.500   0.144  0.00  0.00    +0.127 A 
ATOM     19  N   LIG    1       -6.367  -4.459   0.150  0.00  0.00    -0.222 NA
ATOM     20  C   LIG    1       -7.650  -4.024   0.125  0.00  0.00    +0.213 A 
ATOM     21  N   LIG    1       -8.043  -2.727   0.095  0.00  0.00    -0.222 NA
ATOM     22  C   LIG    1       -7.052  -1.798   0.090  0.00  0.00    +0.127 A 
BRANCH  20  23
ATOM     23  N   LIG    1       -8.652  -4.990   0.130  0.00  0.00    -0.327 N 
ATOM     24  H   LIG    1       -9.618  -4.700   0.112  0.00  0.00    +0.145 HD
ATOM     25  H   LIG    1       -8.398  -5.968   0.152  0.00  0.00    +0.145 HD
ENDBRANCH  20  23
ENDBRANCH   4  17
BRANCH   9  26
ATOM     26  C   LIG    1        1.312   0.483  -0.029  0.00  0.00    -0.035 C 
BRANCH  26  27
ATOM     27  N   LIG    1        1.920   0.260   1.377  0.00  0.00    +0.385 N 
ATOM     28  H   LIG    1        1.580  -0.617   1.746  0.00  0.00    -0.081 HD
ATOM     29  C   LIG    1        1.540   1.388   2.364  0.00  0.00    -0.059 C 
ATOM     30  C   LIG    1        2.198   1.112   3.739  0.00  0.00    +0.089 C 
ATOM     31  N   LIG    1        3.669   1.041   3.603  0.00  0.00    -0.303 N 
ATOM     32  C   LIG    1        4.352   2.221   3.544  0.00  0.00    +0.244 C 
ATOM     33  O   LIG    1        5.167   2.462   2.648  0.00  0.00    -0.273 OA
ATOM     34  C   LIG    1        4.068  -0.053   2.687  0.00  0.00    +0.089 C 
ATOM     35  C   LIG    1        3.460   0.161   1.277  0.00  0.00    -0.059 C 
BRANCH  32  36
ATOM     36  C   LIG    1        4.117   3.315   4.624  0.00  0.00    +0.197 C 
ATOM     37  C   LIG    1        5.360   4.184   4.911  0.00  0.00    +0.047 C 
BRANCH  36  38
ATOM     38  O   LIG    1        3.690   2.743   5.851  0.00  0.00    -0.383 OA
ATOM     39  H   LIG    1        3.809   3.391   6.549  0.00  0.00    +0.210 HD
ENDBRANCH  36  38
ENDBRANCH  32  36
ENDBRANCH  26  27
ENDBRANCH   9  26
TORSDOF 7
