REMARK  Name = DB12006
REMARK                            x       y       z     vdW  Elec       q    Type
REMARK                         _______ _______ _______ _____ _____    ______ ____
ROOT
ATOM      1  N   LIG    1       -1.149  -0.085   2.139  0.00  0.00    -0.286 N 
ATOM      2  H   LIG    1       -1.654   0.661   1.684  0.00  0.00    +0.151 HD
ATOM      3  C   LIG    1       -0.246  -0.725   1.363  0.00  0.00    +0.219 C 
ATOM      4  O   LIG    1        0.261  -1.809   1.657  0.00  0.00    -0.275 OA
ENDROOT
BRANCH   1   9
ATOM      5  C   LIG    1       -0.245  -1.105   6.875  0.00  0.00    +0.138 C 
ATOM      6  N   LIG    1       -1.234  -0.941   5.793  0.00  0.00    -0.271 N 
ATOM      7  C   LIG    1       -0.690  -0.669   4.562  0.00  0.00    +0.262 C 
ATOM      8  O   LIG    1        0.521  -0.533   4.352  0.00  0.00    -0.271 OA
ATOM      9  C   LIG    1       -1.748  -0.528   3.415  0.00  0.00    +0.279 C 
ATOM     10  N   LIG    1       -2.500  -1.761   3.195  0.00  0.00    -0.251 NA
ATOM     11  C   LIG    1       -3.357  -2.154   4.063  0.00  0.00    +0.077 C 
ATOM     12  C   LIG    1       -3.636  -1.432   5.339  0.00  0.00    +0.022 A 
ATOM     13  C   LIG    1       -4.975  -1.340   5.759  0.00  0.00    +0.012 A 
ATOM     14  C   LIG    1       -5.322  -0.741   6.964  0.00  0.00    +0.001 A 
ATOM     15  C   LIG    1       -4.330  -0.227   7.784  0.00  0.00    +0.002 A 
ATOM     16  C   LIG    1       -3.001  -0.290   7.380  0.00  0.00    +0.024 A 
ATOM     17  C   LIG    1       -2.617  -0.832   6.139  0.00  0.00    +0.045 A 
BRANCH  11  18
ATOM     18  C   LIG    1       -4.099  -3.411   3.800  0.00  0.00    +0.001 A 
ATOM     19  C   LIG    1       -4.540  -3.716   2.503  0.00  0.00    +0.010 A 
ATOM     20  C   LIG    1       -5.230  -4.899   2.253  0.00  0.00    +0.001 A 
ATOM     21  C   LIG    1       -5.480  -5.786   3.297  0.00  0.00    +0.000 A 
ATOM     22  C   LIG    1       -5.043  -5.502   4.588  0.00  0.00    +0.001 A 
ATOM     23  C   LIG    1       -4.352  -4.320   4.839  0.00  0.00    +0.010 A 
ENDBRANCH  11  18
ENDBRANCH   1   9
BRANCH   3  24
ATOM     24  C   LIG    1        0.120  -0.043   0.023  0.00  0.00    +0.087 C 
BRANCH  24  25
ATOM     25  C   LIG    1        1.668   0.228  -0.102  0.00  0.00    +0.087 C 
BRANCH  25  26
ATOM     26  C   LIG    1        2.014   0.955  -1.424  0.00  0.00    +0.214 C 
ATOM     27  N   LIG    1        2.788   0.312  -2.302  0.00  0.00    -0.329 N 
ATOM     28  H   LIG    1        3.034   0.752  -3.176  0.00  0.00    +0.145 HD
ATOM     29  H   LIG    1        3.127  -0.617  -2.100  0.00  0.00    +0.145 HD
ATOM     30  O   LIG    1        1.583   2.085  -1.648  0.00  0.00    -0.276 OA
ENDBRANCH  25  26
BRANCH  25  31
ATOM     31  C   LIG    1        2.273   0.999   1.117  0.00  0.00    +0.022 C 
BRANCH  31  32
ATOM     32  C   LIG    1        3.807   1.207   1.084  0.00  0.00    +0.114 C 
BRANCH  32  33
ATOM     33  C   LIG    1        4.377   1.854   2.360  0.00  0.00    +0.390 C 
ATOM     34  F   LIG    1        4.139   1.107   3.438  0.00  0.00    -0.171 F 
ATOM     35  F   LIG    1        3.847   3.057   2.577  0.00  0.00    -0.171 F 
ATOM     36  F   LIG    1        5.697   2.008   2.262  0.00  0.00    -0.171 F 
ENDBRANCH  32  33
ENDBRANCH  31  32
ENDBRANCH  25  31
ENDBRANCH  24  25
BRANCH  24  37
ATOM     37  C   LIG    1       -0.470  -0.863  -1.171  0.00  0.00    +0.022 C 
BRANCH  37  38
ATOM     38  C   LIG    1       -2.002  -1.100  -1.131  0.00  0.00    +0.114 C 
BRANCH  38  39
ATOM     39  C   LIG    1       -2.557  -1.818  -2.373  0.00  0.00    +0.390 C 
ATOM     40  F   LIG    1       -2.003  -3.021  -2.531  0.00  0.00    -0.171 F 
ATOM     41  F   LIG    1       -2.330  -1.120  -3.486  0.00  0.00    -0.171 F 
ATOM     42  F   LIG    1       -3.874  -1.993  -2.269  0.00  0.00    -0.171 F 
ENDBRANCH  38  39
ENDBRANCH  37  38
ENDBRANCH  24  37
ENDBRANCH   3  24
TORSDOF 11
