REMARK  Name = DB12966
REMARK                            x       y       z     vdW  Elec       q    Type
REMARK                         _______ _______ _______ _____ _____    ______ ____
ROOT
ATOM      1  C   LIG    1        1.578   0.414   0.522  0.00  0.00    +0.216 A 
ATOM      2  N   LIG    1        2.165  -0.803   0.660  0.00  0.00    -0.209 NA
ATOM      3  C   LIG    1        3.532  -0.858   0.592  0.00  0.00    +0.134 A 
ATOM      4  C   LIG    1        4.266  -2.076   0.726  0.00  0.00    +0.152 A 
ATOM      5  N   LIG    1        5.622  -2.103   0.648  0.00  0.00    -0.218 NA
ATOM      6  C   LIG    1        6.250  -0.919   0.447  0.00  0.00    +0.224 A 
ATOM      7  N   LIG    1        5.669   0.298   0.309  0.00  0.00    -0.232 NA
ATOM      8  C   LIG    1        4.310   0.322   0.382  0.00  0.00    +0.112 A 
ATOM      9  C   LIG    1        3.583   1.525   0.252  0.00  0.00    +0.144 A 
ATOM     10  N   LIG    1        2.232   1.590   0.318  0.00  0.00    -0.221 NA
ENDROOT
BRANCH   1  11
ATOM     11  N   LIG    1        0.176   0.401   0.612  0.00  0.00    -0.311 N 
ATOM     12  H   LIG    1       -0.254  -0.512   0.586  0.00  0.00    +0.149 HD
BRANCH  11  18
ATOM     13  C   LIG    1       -4.140   3.548  -1.521  0.00  0.00    -0.096 C 
ATOM     14  N   LIG    1       -3.148   2.473  -1.035  0.00  0.00    +0.378 N 
ATOM     15  H   LIG    1       -3.536   1.560  -1.231  0.00  0.00    -0.082 HD
ATOM     16  C   LIG    1       -1.812   2.599  -1.803  0.00  0.00    -0.077 C 
ATOM     17  C   LIG    1       -0.859   1.487  -1.328  0.00  0.00    +0.003 C 
ATOM     18  C   LIG    1       -0.645   1.540   0.200  0.00  0.00    +0.070 C 
ATOM     19  C   LIG    1       -1.990   1.472   0.951  0.00  0.00    +0.003 C 
ATOM     20  C   LIG    1       -2.948   2.586   0.494  0.00  0.00    -0.077 C 
ENDBRANCH  11  18
ENDBRANCH   1  11
BRANCH   4  21
ATOM     21  N   LIG    1        3.577  -3.291   0.914  0.00  0.00    -0.298 N 
ATOM     22  H   LIG    1        2.573  -3.190   0.880  0.00  0.00    +0.154 HD
BRANCH  21  23
ATOM     23  C   LIG    1        4.004  -4.607   1.165  0.00  0.00    +0.034 A 
ATOM     24  C   LIG    1        3.147  -5.650   0.802  0.00  0.00    +0.046 A 
ATOM     25  C   LIG    1        3.504  -6.980   1.035  0.00  0.00    +0.078 A 
ATOM     26 CL   LIG    1        2.428  -8.247   0.562  0.00  0.00    -0.081 Cl
ATOM     27  C   LIG    1        4.724  -7.276   1.647  0.00  0.00    +0.142 A 
ATOM     28  F   LIG    1        5.083  -8.560   1.879  0.00  0.00    -0.204 F 
ATOM     29  C   LIG    1        5.578  -6.241   2.028  0.00  0.00    +0.041 A 
ATOM     30  C   LIG    1        5.220  -4.914   1.793  0.00  0.00    +0.026 A 
ENDBRANCH  21  23
ENDBRANCH   4  21
TORSDOF 4
