REMARK  Name = DB12045
REMARK                            x       y       z     vdW  Elec       q    Type
REMARK                         _______ _______ _______ _____ _____    ______ ____
ROOT
ATOM      1  C   LIG    1        1.870  -0.127  -0.492  0.00  0.00    +0.202 C 
ATOM      2  O   LIG    1        2.753   0.960  -0.781  0.00  0.00    -0.343 OA
ATOM      3  C   LIG    1        3.790   1.100   0.165  0.00  0.00    +0.264 C 
ATOM      4  C   LIG    1        3.686  -0.129   1.089  0.00  0.00    +0.193 C 
ATOM      5  F   LIG    1        4.359  -1.137   0.522  0.00  0.00    -0.234 F 
ATOM      6  C   LIG    1        4.249   0.045   2.514  0.00  0.00    +0.056 C 
ATOM      7  C   LIG    1        2.189  -0.385   0.981  0.00  0.00    +0.249 C 
ENDROOT
BRANCH   3   8
ATOM      8  N   LIG    1        3.806   2.441   0.765  0.00  0.00    -0.269 N 
ATOM      9  C   LIG    1        5.012   3.019   1.149  0.00  0.00    +0.352 A 
ATOM     10  O   LIG    1        6.066   2.407   0.962  0.00  0.00    -0.244 OA
ATOM     11  N   LIG    1        4.932   4.297   1.748  0.00  0.00    -0.178 NA
ATOM     12  C   LIG    1        3.812   4.886   1.990  0.00  0.00    +0.123 A 
ATOM     13  C   LIG    1        2.563   4.281   1.635  0.00  0.00    +0.061 A 
ATOM     14  C   LIG    1        2.621   3.084   1.035  0.00  0.00    +0.096 A 
BRANCH  12  15
ATOM     15  N   LIG    1        3.775   6.090   2.580  0.00  0.00    -0.343 N 
ATOM     16  H   LIG    1        4.632   6.551   2.847  0.00  0.00    +0.144 HD
ATOM     17  H   LIG    1        2.893   6.546   2.762  0.00  0.00    +0.144 HD
ENDBRANCH  12  15
ENDBRANCH   3   8
BRANCH   1  18
ATOM     18  C   LIG    1        0.421   0.291  -0.821  0.00  0.00    +0.267 C 
BRANCH  18  19
ATOM     19  O   LIG    1       -0.152   1.124   0.179  0.00  0.00    -0.462 OA
BRANCH  19  20
ATOM     20  C   LIG    1       -1.436   1.524   0.104  0.00  0.00    +0.310 C 
ATOM     21  O   LIG    1       -2.222   1.252  -0.807  0.00  0.00    -0.251 OA
BRANCH  20  23
ATOM     22  C   LIG    1       -1.925   1.544   2.595  0.00  0.00    +0.019 C 
ATOM     23  C   LIG    1       -1.833   2.395   1.311  0.00  0.00    +0.092 C 
ATOM     24  C   LIG    1       -3.133   3.194   1.078  0.00  0.00    +0.019 C 
ENDBRANCH  20  23
ENDBRANCH  19  20
ENDBRANCH  18  19
ENDBRANCH   1  18
BRANCH   7  25
ATOM     25  O   LIG    1        1.819  -1.717   1.342  0.00  0.00    -0.455 OA
BRANCH  25  26
ATOM     26  C   LIG    1        1.380  -2.018   2.588  0.00  0.00    +0.310 C 
ATOM     27  O   LIG    1        1.210  -1.211   3.505  0.00  0.00    -0.251 OA
BRANCH  26  28
ATOM     28  C   LIG    1        1.090  -3.522   2.750  0.00  0.00    +0.092 C 
ATOM     29  C   LIG    1        2.405  -4.320   2.854  0.00  0.00    +0.019 C 
ATOM     30  C   LIG    1        0.159  -3.829   3.944  0.00  0.00    +0.019 C 
ENDBRANCH  26  28
ENDBRANCH  25  26
ENDBRANCH   7  25
TORSDOF 9
