REMARK  Name = DB12351
REMARK                            x       y       z     vdW  Elec       q    Type
REMARK                         _______ _______ _______ _____ _____    ______ ____
ROOT
ATOM      1  C   LIG    1        7.281  -1.417  -0.507  0.00  0.00    +0.295 C 
ATOM      2  C   LIG    1        8.654  -1.431   0.180  0.00  0.00    +0.263 C 
ATOM      3  O   LIG    1        8.761  -0.369   1.124  0.00  0.00    -0.450 OA
ATOM      4  C   LIG    1        9.993   0.029   1.541  0.00  0.00    +0.368 C 
ATOM      5  O   LIG    1       10.038   0.732   2.550  0.00  0.00    -0.245 OA
ATOM      6  C   LIG    1       11.282  -0.358   0.657  0.00  0.00    +0.273 C 
ATOM      7  O   LIG    1       12.279  -0.722   1.598  0.00  0.00    -0.332 OA
ATOM      8  C   LIG    1       13.642  -0.896   1.149  0.00  0.00    +0.176 C 
ATOM      9  C   LIG    1       14.131   0.373   0.389  0.00  0.00    +0.133 C 
ATOM     10  C   LIG    1       13.139   0.724  -0.736  0.00  0.00    +0.143 C 
ATOM     11  C   LIG    1       11.724   0.887  -0.157  0.00  0.00    +0.110 C 
ATOM     12  O   LIG    1       11.002  -1.451  -0.205  0.00  0.00    -0.330 OA
ATOM     13  C   LIG    1        9.751  -1.379  -0.897  0.00  0.00    +0.199 C 
ATOM     14  C   LIG    1        9.568  -2.538  -1.896  0.00  0.00    +0.185 C 
ATOM     15  C   LIG    1        8.127  -2.484  -2.459  0.00  0.00    +0.178 C 
ATOM     16  O   LIG    1        7.191  -2.526  -1.370  0.00  0.00    -0.340 OA
ENDROOT
BRANCH   9  17
ATOM     17  N   LIG    1       14.338   1.510   1.300  0.00  0.00    -0.308 N 
ATOM     18  H   LIG    1       13.499   1.983   1.603  0.00  0.00    +0.149 HD
ATOM     19  C   LIG    1       15.515   1.978   1.752  0.00  0.00    +0.210 C 
ATOM     20  C   LIG    1       15.448   3.167   2.705  0.00  0.00    +0.109 C 
ATOM     21  O   LIG    1       16.610   1.512   1.439  0.00  0.00    -0.276 OA
ENDBRANCH   9  17
BRANCH  10  22
ATOM     22  O   LIG    1       13.181  -0.172  -1.831  0.00  0.00    -0.390 OA
ATOM     23  H   LIG    1       13.381   0.328  -2.627  0.00  0.00    +0.210 HD
ENDBRANCH  10  22
BRANCH   1  24
ATOM     24  O   LIG    1        6.311  -1.491   0.496  0.00  0.00    -0.339 OA
BRANCH  24  28
ATOM     25  C   LIG    1        2.171  -1.215   0.892  0.00  0.00    +0.282 C 
ATOM     26  C   LIG    1        2.683  -2.565   0.335  0.00  0.00    +0.201 C 
ATOM     27  C   LIG    1        4.211  -2.676   0.556  0.00  0.00    +0.179 C 
ATOM     28  C   LIG    1        4.947  -1.409   0.068  0.00  0.00    +0.184 C 
ATOM     29  C   LIG    1        4.267  -0.135   0.635  0.00  0.00    +0.178 C 
ATOM     30  O   LIG    1        2.874  -0.152   0.302  0.00  0.00    -0.341 OA
BRANCH  26  31
ATOM     31  O   LIG    1        1.986  -3.656   0.912  0.00  0.00    -0.384 OA
ATOM     32  H   LIG    1        2.418  -3.894   1.736  0.00  0.00    +0.210 HD
ENDBRANCH  26  31
BRANCH  27  33
ATOM     33  O   LIG    1        4.726  -3.835  -0.077  0.00  0.00    -0.386 OA
ATOM     34  H   LIG    1        5.680  -3.740  -0.153  0.00  0.00    +0.210 HD
ENDBRANCH  27  33
BRANCH  25  35
ATOM     35  O   LIG    1        0.790  -1.056   0.697  0.00  0.00    -0.347 OA
BRANCH  35  36
ATOM     36  C   LIG    1        0.277  -1.187  -0.629  0.00  0.00    +0.188 C 
BRANCH  36  37
ATOM     37  C   LIG    1       -1.137  -0.569  -0.737  0.00  0.00    +0.131 C 
BRANCH  37  38
ATOM     38  N   LIG    1       -1.795  -1.104  -1.934  0.00  0.00    -0.307 N 
ATOM     39  H   LIG    1       -1.182  -1.532  -2.613  0.00  0.00    +0.149 HD
ATOM     40  C   LIG    1       -3.119  -1.143  -2.174  0.00  0.00    +0.213 C 
ATOM     41  O   LIG    1       -3.955  -0.653  -1.415  0.00  0.00    -0.276 OA
BRANCH  40  42
ATOM     42  C   LIG    1       -3.587  -1.849  -3.461  0.00  0.00    +0.096 C 
BRANCH  42  43
ATOM     43  C   LIG    1       -2.640  -2.939  -4.028  0.00  0.00    +0.009 C 
BRANCH  43  44
ATOM     44  C   LIG    1       -2.406  -4.141  -3.086  0.00  0.00    +0.000 C 
BRANCH  44  45
ATOM     45  C   LIG    1       -1.337  -5.120  -3.603  0.00  0.00    +0.000 C 
BRANCH  45  46
ATOM     46  C   LIG    1       -1.016  -6.231  -2.588  0.00  0.00    +0.000 C 
BRANCH  46  47
ATOM     47  C   LIG    1        0.110  -7.171  -3.052  0.00  0.00    +0.000 C 
BRANCH  47  48
ATOM     48  C   LIG    1        0.469  -8.232  -1.997  0.00  0.00    -0.000 C 
BRANCH  48  49
ATOM     49  C   LIG    1        1.620  -9.154  -2.437  0.00  0.00    -0.000 C 
BRANCH  49  50
ATOM     50  C   LIG    1        1.999 -10.191  -1.364  0.00  0.00    -0.000 C 
BRANCH  50  51
ATOM     51  C   LIG    1        3.157 -11.106  -1.797  0.00  0.00    -0.000 C 
BRANCH  51  52
ATOM     52  C   LIG    1        3.540 -12.137  -0.718  0.00  0.00    -0.000 C 
BRANCH  52  53
ATOM     53  C   LIG    1        4.753 -13.015  -1.083  0.00  0.00    -0.000 C 
BRANCH  53  54
ATOM     54  C   LIG    1        4.513 -13.963  -2.277  0.00  0.00    -0.000 C 
BRANCH  54  55
ATOM     55  C   LIG    1        5.660 -14.960  -2.534  0.00  0.00    -0.000 C 
BRANCH  55  56
ATOM     56  C   LIG    1        6.984 -14.304  -2.974  0.00  0.00    -0.000 C 
BRANCH  56  57
ATOM     57  C   LIG    1        8.082 -15.332  -3.301  0.00  0.00    -0.003 C 
ATOM     58  C   LIG    1        9.401 -14.679  -3.736  0.00  0.00    +0.004 C 
ENDBRANCH  56  57
ENDBRANCH  55  56
ENDBRANCH  54  55
ENDBRANCH  53  54
ENDBRANCH  52  53
ENDBRANCH  51  52
ENDBRANCH  50  51
ENDBRANCH  49  50
ENDBRANCH  48  49
ENDBRANCH  47  48
ENDBRANCH  46  47
ENDBRANCH  45  46
ENDBRANCH  44  45
ENDBRANCH  43  44
ENDBRANCH  42  43
ENDBRANCH  40  42
ENDBRANCH  37  38
BRANCH  37  59
ATOM     59  C   LIG    1       -1.153   0.988  -0.676  0.00  0.00    +0.159 C 
BRANCH  59  61
ATOM     60  C   LIG    1        0.337   2.585   0.700  0.00  0.00    -0.028 C 
ATOM     61  C   LIG    1       -0.556   1.581   0.600  0.00  0.00    +0.002 C 
BRANCH  60  62
ATOM     62  C   LIG    1        0.881   3.122   2.009  0.00  0.00    +0.027 C 
BRANCH  62  63
ATOM     63  C   LIG    1        0.255   4.472   2.400  0.00  0.00    +0.004 C 
BRANCH  63  64
ATOM     64  C   LIG    1        0.804   5.041   3.722  0.00  0.00    +0.000 C 
BRANCH  64  65
ATOM     65  C   LIG    1        0.005   6.240   4.271  0.00  0.00    +0.000 C 
BRANCH  65  66
ATOM     66  C   LIG    1        0.026   7.492   3.372  0.00  0.00    +0.000 C 
BRANCH  66  67
ATOM     67  C   LIG    1       -0.797   8.657   3.953  0.00  0.00    +0.000 C 
BRANCH  67  68
ATOM     68  C   LIG    1       -0.793   9.904   3.048  0.00  0.00    -0.000 C 
BRANCH  68  69
ATOM     69  C   LIG    1       -1.575  11.105   3.616  0.00  0.00    -0.000 C 
BRANCH  69  70
ATOM     70  C   LIG    1       -3.098  10.886   3.706  0.00  0.00    -0.000 C 
BRANCH  70  71
ATOM     71  C   LIG    1       -3.858  12.137   4.183  0.00  0.00    -0.000 C 
BRANCH  71  72
ATOM     72  C   LIG    1       -5.382  11.918   4.267  0.00  0.00    -0.000 C 
BRANCH  72  73
ATOM     73  C   LIG    1       -6.184  13.173   4.662  0.00  0.00    -0.003 C 
ATOM     74  C   LIG    1       -5.916  13.672   6.091  0.00  0.00    +0.004 C 
ENDBRANCH  72  73
ENDBRANCH  71  72
ENDBRANCH  70  71
ENDBRANCH  69  70
ENDBRANCH  68  69
ENDBRANCH  67  68
ENDBRANCH  66  67
ENDBRANCH  65  66
ENDBRANCH  64  65
ENDBRANCH  63  64
ENDBRANCH  62  63
ENDBRANCH  60  62
ENDBRANCH  59  61
BRANCH  59  75
ATOM     75  O   LIG    1       -0.552   1.556  -1.832  0.00  0.00    -0.386 OA
ATOM     76  H   LIG    1       -0.684   2.506  -1.806  0.00  0.00    +0.210 HD
ENDBRANCH  59  75
ENDBRANCH  37  59
ENDBRANCH  36  37
ENDBRANCH  35  36
ENDBRANCH  25  35
BRANCH  29  77
ATOM     77  C   LIG    1        4.844   1.186   0.082  0.00  0.00    +0.190 C 
BRANCH  77  78
ATOM     78  O   LIG    1        6.112   1.480   0.633  0.00  0.00    -0.392 OA
ATOM     79  H   LIG    1        6.404   2.330   0.293  0.00  0.00    +0.210 HD
ENDBRANCH  77  78
ENDBRANCH  29  77
ENDBRANCH  24  28
ENDBRANCH   1  24
BRANCH   8  80
ATOM     80  C   LIG    1       13.887  -2.281   0.471  0.00  0.00    +0.176 C 
BRANCH  80  81
ATOM     81  O   LIG    1       13.498  -3.287   1.394  0.00  0.00    -0.387 OA
ATOM     82  H   LIG    1       14.052  -3.209   2.175  0.00  0.00    +0.210 HD
ENDBRANCH  80  81
BRANCH  80  83
ATOM     83  C   LIG    1       15.335  -2.577  -0.037  0.00  0.00    +0.171 C 
BRANCH  83  84
ATOM     84  O   LIG    1       15.304  -3.753  -0.829  0.00  0.00    -0.387 OA
ATOM     85  H   LIG    1       14.674  -3.624  -1.542  0.00  0.00    +0.210 HD
ENDBRANCH  83  84
BRANCH  83  86
ATOM     86  C   LIG    1       16.417  -2.778   1.054  0.00  0.00    +0.189 C 
BRANCH  86  87
ATOM     87  O   LIG    1       16.741  -1.573   1.712  0.00  0.00    -0.392 OA
ATOM     88  H   LIG    1       17.453  -1.744   2.334  0.00  0.00    +0.210 HD
ENDBRANCH  86  87
ENDBRANCH  83  86
ENDBRANCH  80  83
ENDBRANCH   8  80
BRANCH  14  89
ATOM     89  O   LIG    1        9.743  -3.794  -1.243  0.00  0.00    -0.341 OA
BRANCH  89  90
ATOM     90  C   LIG    1       10.969  -4.429  -1.421  0.00  0.00    +0.274 C 
ATOM     91  C   LIG    1       11.092  -5.489  -0.311  0.00  0.00    +0.160 C 
ATOM     92  C   LIG    1       12.418  -6.258  -0.525  0.00  0.00    +0.177 C 
ATOM     93  C   LIG    1       12.521  -6.815  -1.959  0.00  0.00    +0.176 C 
ATOM     94  C   LIG    1       12.265  -5.670  -2.975  0.00  0.00    +0.178 C 
ATOM     95  O   LIG    1       11.006  -5.049  -2.683  0.00  0.00    -0.341 OA
BRANCH  91  96
ATOM     96  N   LIG    1       10.949  -4.940   1.043  0.00  0.00    -0.305 N 
ATOM     97  H   LIG    1       11.792  -4.559   1.449  0.00  0.00    +0.149 HD
ATOM     98  C   LIG    1        9.813  -4.847   1.754  0.00  0.00    +0.210 C 
ATOM     99  C   LIG    1        9.930  -4.194   3.127  0.00  0.00    +0.109 C 
ATOM    100  O   LIG    1        8.715  -5.233   1.352  0.00  0.00    -0.276 OA
ENDBRANCH  91  96
BRANCH  93 101
ATOM    101  O   LIG    1       11.646  -7.912  -2.167  0.00  0.00    -0.387 OA
ATOM    102  H   LIG    1       10.753  -7.640  -1.940  0.00  0.00    +0.210 HD
ENDBRANCH  93 101
BRANCH  92 103
ATOM    103  O   LIG    1       12.596  -7.305   0.435  0.00  0.00    -0.341 OA
BRANCH 103 104
ATOM    104  C   LIG    1       13.494  -7.048   1.474  0.00  0.00    +0.282 C 
ATOM    105  C   LIG    1       13.343  -8.180   2.506  0.00  0.00    +0.201 C 
ATOM    106  C   LIG    1       14.410  -8.019   3.619  0.00  0.00    +0.179 C 
ATOM    107  C   LIG    1       15.824  -7.832   3.024  0.00  0.00    +0.177 C 
ATOM    108  C   LIG    1       15.794  -6.710   1.954  0.00  0.00    +0.178 C 
ATOM    109  O   LIG    1       14.807  -7.036   0.969  0.00  0.00    -0.341 OA
BRANCH 105 110
ATOM    110  O   LIG    1       12.030  -8.205   3.041  0.00  0.00    -0.384 OA
ATOM    111  H   LIG    1       11.981  -7.576   3.765  0.00  0.00    +0.210 HD
ENDBRANCH 105 110
BRANCH 106 112
ATOM    112  O   LIG    1       14.363  -9.063   4.577  0.00  0.00    -0.386 OA
ATOM    113  H   LIG    1       14.591  -9.888   4.143  0.00  0.00    +0.210 HD
ENDBRANCH 106 112
BRANCH 107 114
ATOM    114  O   LIG    1       16.352  -9.044   2.504  0.00  0.00    -0.386 OA
ATOM    115  H   LIG    1       15.774  -9.353   1.802  0.00  0.00    +0.210 HD
ENDBRANCH 107 114
BRANCH 108 116
ATOM    116  C   LIG    1       17.138  -6.456   1.240  0.00  0.00    +0.190 C 
BRANCH 116 117
ATOM    117  O   LIG    1       18.104  -5.944   2.136  0.00  0.00    -0.392 OA
ATOM    118  H   LIG    1       18.920  -5.797   1.653  0.00  0.00    +0.210 HD
ENDBRANCH 116 117
ENDBRANCH 108 116
ENDBRANCH 103 104
ENDBRANCH  92 103
BRANCH  94 119
ATOM    119  C   LIG    1       12.260  -6.105  -4.456  0.00  0.00    +0.190 C 
BRANCH 119 120
ATOM    120  O   LIG    1       13.514  -6.633  -4.842  0.00  0.00    -0.392 OA
ATOM    121  H   LIG    1       13.617  -7.498  -4.438  0.00  0.00    +0.210 HD
ENDBRANCH 119 120
ENDBRANCH  94 119
ENDBRANCH  89  90
ENDBRANCH  14  89
BRANCH  15 122
ATOM    122  C   LIG    1        7.831  -3.643  -3.433  0.00  0.00    +0.190 C 
BRANCH 122 123
ATOM    123  O   LIG    1        6.573  -3.465  -4.050  0.00  0.00    -0.392 OA
ATOM    124  H   LIG    1        5.889  -3.577  -3.385  0.00  0.00    +0.210 HD
ENDBRANCH 122 123
ENDBRANCH  15 122
TORSDOF 64
