REMARK  Name = DB12756
REMARK                            x       y       z     vdW  Elec       q    Type
REMARK                         _______ _______ _______ _____ _____    ______ ____
ROOT
ATOM      1  C   LIG    1        1.394   0.144  -0.231  0.00  0.00    -0.007 A 
ATOM      2  C   LIG    1        2.184  -0.153  -1.359  0.00  0.00    +0.017 A 
ATOM      3  C   LIG    1        1.889  -0.409  -2.721  0.00  0.00    +0.027 A 
ATOM      4  C   LIG    1        3.112  -0.674  -3.379  0.00  0.00    +0.139 A 
ATOM      5  N   LIG    1        4.123  -0.556  -2.455  0.00  0.00    -0.339 N 
ATOM      6  H   LIG    1        5.105  -0.683  -2.655  0.00  0.00    +0.167 HD
ATOM      7  N   LIG    1        3.260  -0.973  -4.674  0.00  0.00    -0.237 NA
ATOM      8  C   LIG    1        2.105  -1.007  -5.389  0.00  0.00    +0.116 A 
ATOM      9  C   LIG    1        0.836  -0.755  -4.860  0.00  0.00    -0.032 A 
ATOM     10  C   LIG    1       -0.392  -0.791  -5.751  0.00  0.00    +0.045 C 
ATOM     11  C   LIG    1        0.717  -0.442  -3.502  0.00  0.00    +0.017 A 
ATOM     12  C   LIG    1        3.602  -0.220  -1.217  0.00  0.00    +0.053 A 
ATOM     13  C   LIG    1        4.267   0.018  -0.003  0.00  0.00    -0.014 A 
ATOM     14  C   LIG    1        5.788  -0.081   0.123  0.00  0.00    +0.046 C 
ATOM     15  C   LIG    1        3.450   0.369   1.099  0.00  0.00    +0.042 A 
ATOM     16  C   LIG    1        2.056   0.416   0.965  0.00  0.00    +0.022 A 
ENDROOT
BRANCH   1  19
ATOM     17  C   LIG    1       -2.179   1.385   0.025  0.00  0.00    +0.089 A 
ATOM     18  C   LIG    1       -0.782   1.351   0.048  0.00  0.00    +0.035 A 
ATOM     19  C   LIG    1       -0.089   0.178  -0.273  0.00  0.00    -0.015 A 
ATOM     20  C   LIG    1       -0.821  -0.969  -0.603  0.00  0.00    +0.008 A 
ATOM     21  C   LIG    1       -2.215  -0.940  -0.632  0.00  0.00    +0.002 A 
ATOM     22  C   LIG    1       -2.895   0.236  -0.321  0.00  0.00    +0.027 A 
BRANCH  17  23
ATOM     23  S   LIG    1       -3.042   2.901   0.424  0.00  0.00    -0.003 S 
ATOM     24  O   LIG    1       -4.406   2.540   0.830  0.00  0.00    -0.169 OA
ATOM     25  O   LIG    1       -2.182   3.671   1.331  0.00  0.00    -0.169 OA
BRANCH  23  27
ATOM     26  C   LIG    1       -3.834   5.146  -1.078  0.00  0.00    +0.028 C 
ATOM     27  C   LIG    1       -3.123   3.797  -1.239  0.00  0.00    +0.168 C 
ENDBRANCH  23  27
ENDBRANCH  17  23
ENDBRANCH   1  19
BRANCH  15  28
ATOM     28  C   LIG    1        4.041   0.723   2.447  0.00  0.00    +0.245 C 
ATOM     29  N   LIG    1        3.446   0.150   3.512  0.00  0.00    -0.309 N 
ATOM     30  H   LIG    1        2.742  -0.553   3.334  0.00  0.00    +0.149 HD
ATOM     31  O   LIG    1        5.001   1.491   2.540  0.00  0.00    -0.270 OA
BRANCH  29  32
ATOM     32  C   LIG    1        3.847   0.318   4.910  0.00  0.00    +0.070 C 
ATOM     33  C   LIG    1        3.497   1.697   5.520  0.00  0.00    +0.003 C 
ATOM     34  C   LIG    1        3.890   1.837   7.001  0.00  0.00    -0.077 C 
ATOM     35  N   LIG    1        3.282   0.666   7.801  0.00  0.00    +0.378 N 
ATOM     36  H   LIG    1        2.279   0.684   7.680  0.00  0.00    -0.082 HD
ATOM     37  C   LIG    1        3.607   0.827   9.300  0.00  0.00    -0.096 C 
ATOM     38  C   LIG    1        3.813  -0.689   7.288  0.00  0.00    -0.077 C 
ATOM     39  C   LIG    1        3.413  -0.859   5.812  0.00  0.00    +0.003 C 
ENDBRANCH  29  32
ENDBRANCH  15  28
TORSDOF 5
