REMARK  Name = DB12276
REMARK                            x       y       z     vdW  Elec       q    Type
REMARK                         _______ _______ _______ _____ _____    ______ ____
ROOT
ATOM      1  C   LIG    1        1.301  -0.241   0.283  0.00  0.00    +0.221 C 
ENDROOT
BRANCH   1   2
ATOM      2  P   LIG    1       -0.484   0.196  -0.105  0.00  0.00    +0.348 P 
ATOM      3  O   LIG    1       -0.891   1.613   0.237  0.00  0.00    -0.258 OA
BRANCH   2   4
ATOM      4  O   LIG    1       -1.364  -1.037   0.736  0.00  0.00    -0.305 OA
BRANCH   4   6
ATOM      5  C   LIG    1       -2.496  -1.767   2.702  0.00  0.00    +0.038 C 
ATOM      6  C   LIG    1       -2.348  -0.635   1.676  0.00  0.00    +0.122 C 
ATOM      7  C   LIG    1       -3.663  -0.321   0.945  0.00  0.00    +0.038 C 
ENDBRANCH   4   6
ENDBRANCH   2   4
BRANCH   2   8
ATOM      8  O   LIG    1       -0.592  -0.163  -1.793  0.00  0.00    -0.305 OA
BRANCH   8   9
ATOM      9  C   LIG    1       -0.562  -1.527  -2.189  0.00  0.00    +0.122 C 
ATOM     10  C   LIG    1       -1.940  -1.886  -2.759  0.00  0.00    +0.038 C 
ATOM     11  C   LIG    1        0.574  -1.723  -3.201  0.00  0.00    +0.038 C 
ENDBRANCH   8   9
ENDBRANCH   2   8
ENDBRANCH   1   2
BRANCH   1  12
ATOM     12  P   LIG    1        2.688   0.797  -0.451  0.00  0.00    +0.348 P 
ATOM     13  O   LIG    1        4.101   0.280  -0.279  0.00  0.00    -0.258 OA
BRANCH  12  14
ATOM     14  O   LIG    1        2.393   2.336   0.276  0.00  0.00    -0.305 OA
BRANCH  14  15
ATOM     15  C   LIG    1        3.488   3.228   0.411  0.00  0.00    +0.122 C 
ATOM     16  C   LIG    1        2.947   4.653   0.239  0.00  0.00    +0.038 C 
ATOM     17  C   LIG    1        4.168   3.010   1.770  0.00  0.00    +0.038 C 
ENDBRANCH  14  15
ENDBRANCH  12  14
BRANCH  12  18
ATOM     18  O   LIG    1        2.186   0.942  -2.096  0.00  0.00    -0.305 OA
BRANCH  18  19
ATOM     19  C   LIG    1        3.141   1.404  -3.038  0.00  0.00    +0.122 C 
ATOM     20  C   LIG    1        3.815   0.204  -3.719  0.00  0.00    +0.038 C 
ATOM     21  C   LIG    1        2.403   2.312  -4.031  0.00  0.00    +0.038 C 
ENDBRANCH  18  19
ENDBRANCH  12  18
ENDBRANCH   1  12
BRANCH   1  22
ATOM     22  C   LIG    1        1.452  -0.338   1.825  0.00  0.00    +0.063 C 
BRANCH  22  23
ATOM     23  C   LIG    1        2.766  -0.935   2.325  0.00  0.00    -0.045 A 
ATOM     24  C   LIG    1        3.527  -0.254   3.269  0.00  0.00    +0.011 A 
ATOM     25  C   LIG    1        4.750  -0.757   3.739  0.00  0.00    -0.000 A 
ATOM     26  C   LIG    1        5.196  -1.995   3.211  0.00  0.00    +0.124 A 
ATOM     27  C   LIG    1        4.431  -2.721   2.264  0.00  0.00    -0.000 A 
ATOM     28  C   LIG    1        3.212  -2.164   1.851  0.00  0.00    +0.011 A 
BRANCH  25  29
ATOM     29  C   LIG    1        5.575   0.046   4.799  0.00  0.00    -0.009 C 
ATOM     30  C   LIG    1        5.801  -0.800   6.082  0.00  0.00    +0.015 C 
ATOM     31  C   LIG    1        6.934   0.494   4.201  0.00  0.00    +0.015 C 
ATOM     32  C   LIG    1        4.867   1.346   5.277  0.00  0.00    +0.015 C 
ENDBRANCH  25  29
BRANCH  27  33
ATOM     33  C   LIG    1        4.906  -4.092   1.677  0.00  0.00    -0.009 C 
ATOM     34  C   LIG    1        5.072  -5.145   2.805  0.00  0.00    +0.015 C 
ATOM     35  C   LIG    1        3.898  -4.711   0.664  0.00  0.00    +0.015 C 
ATOM     36  C   LIG    1        6.237  -3.921   0.899  0.00  0.00    +0.015 C 
ENDBRANCH  27  33
BRANCH  26  37
ATOM     37  O   LIG    1        6.402  -2.500   3.625  0.00  0.00    -0.506 OA
ATOM     38  H   LIG    1        6.842  -1.932   4.261  0.00  0.00    +0.292 HD
ENDBRANCH  26  37
ENDBRANCH  22  23
ENDBRANCH   1  22
TORSDOF 15
