REMARK  Name = DB12032
REMARK                            x       y       z     vdW  Elec       q    Type
REMARK                         _______ _______ _______ _____ _____    ______ ____
ROOT
ATOM      1  C   LIG    1       -1.928   2.917   1.741  0.00  0.00    +0.008 C 
ATOM      2  C   LIG    1       -1.593   1.556   1.106  0.00  0.00    -0.011 C 
ATOM      3  C   LIG    1       -1.281   0.453   2.138  0.00  0.00    -0.011 C 
ATOM      4  C   LIG    1       -2.498  -0.411   2.509  0.00  0.00    +0.008 C 
ATOM      5  C   LIG    1       -0.095  -0.351   1.564  0.00  0.00    +0.009 C 
ATOM      6  C   LIG    1        0.188   0.147   0.121  0.00  0.00    -0.034 C 
ATOM      7  C   LIG    1       -0.369   1.591   0.181  0.00  0.00    +0.009 C 
ENDROOT
BRANCH   6   8
ATOM      8  C   LIG    1       -0.647  -0.670  -0.929  0.00  0.00    -0.079 C 
BRANCH   8   9
ATOM      9  N   LIG    1       -0.187  -2.131  -1.074  0.00  0.00    +0.378 N 
ATOM     10  H   LIG    1        0.775  -2.156  -1.381  0.00  0.00    -0.090 HD
ATOM     11  H   LIG    1       -0.261  -2.609  -0.188  0.00  0.00    -0.090 HD
ATOM     12  H   LIG    1       -0.758  -2.610  -1.755  0.00  0.00    -0.090 HD
ENDBRANCH   8   9
ENDBRANCH   6   8
BRANCH   6  13
ATOM     13  C   LIG    1        1.737   0.118  -0.164  0.00  0.00    +0.125 C 
BRANCH  13  14
ATOM     14  C   LIG    1        2.172   0.451  -1.613  0.00  0.00    +0.305 C 
ATOM     15  O   LIG    1        2.914  -0.376  -2.191  0.00  0.00    -0.251 OA
BRANCH  14  16
ATOM     16  O   LIG    1        1.781   1.524  -2.125  0.00  0.00    -0.481 OA
ATOM     17  H   LIG    1        1.225   2.100  -1.637  0.00  0.00    +0.295 HD
ENDBRANCH  14  16
ENDBRANCH  13  14
ENDBRANCH   6  13
TORSDOF 5
