REMARK  Name = DB12986
REMARK                            x       y       z     vdW  Elec       q    Type
REMARK                         _______ _______ _______ _____ _____    ______ ____
ROOT
ATOM      1  C   LIG    1       -0.180   2.490   0.327  0.00  0.00    +0.086 C 
ATOM      2  C   LIG    1       -0.797   1.111   0.222  0.00  0.00    +0.109 A 
ATOM      3  N   LIG    1       -0.066  -0.068   0.276  0.00  0.00    -0.310 N 
ATOM      4  C   LIG    1       -1.000  -1.083   0.147  0.00  0.00    +0.166 A 
ATOM      5  N   LIG    1       -0.821  -2.408   0.129  0.00  0.00    -0.195 NA
ATOM      6  C   LIG    1       -1.970  -3.136  -0.008  0.00  0.00    +0.220 A 
ATOM      7  N   LIG    1       -3.220  -2.608  -0.168  0.00  0.00    -0.212 NA
ATOM      8  C   LIG    1       -3.380  -1.256  -0.137  0.00  0.00    +0.106 A 
ATOM      9  C   LIG    1       -2.247  -0.431   0.023  0.00  0.00    +0.134 A 
ATOM     10  N   LIG    1       -2.087   0.927   0.069  0.00  0.00    -0.229 NA
ENDROOT
BRANCH   6  11
ATOM     11  N   LIG    1       -1.840  -4.528  -0.111  0.00  0.00    -0.295 N 
ATOM     12  C   LIG    1       -0.620  -5.214   0.370  0.00  0.00    +0.136 C 
ATOM     13  C   LIG    1       -0.468  -6.662  -0.142  0.00  0.00    +0.179 C 
ATOM     14  O   LIG    1       -1.634  -7.411   0.159  0.00  0.00    -0.377 OA
ATOM     15  C   LIG    1       -2.781  -6.855  -0.463  0.00  0.00    +0.179 C 
ATOM     16  C   LIG    1       -3.012  -5.417   0.044  0.00  0.00    +0.136 C 
ENDBRANCH   6  11
BRANCH   8  17
ATOM     17  C   LIG    1       -4.771  -0.743  -0.310  0.00  0.00    +0.039 A 
ATOM     18  C   LIG    1       -5.224   0.434   0.308  0.00  0.00    +0.126 A 
ATOM     19  N   LIG    1       -6.487   0.914   0.161  0.00  0.00    -0.222 NA
ATOM     20  C   LIG    1       -7.318   0.190  -0.628  0.00  0.00    +0.213 A 
ATOM     21  N   LIG    1       -6.995  -0.960  -1.270  0.00  0.00    -0.222 NA
ATOM     22  C   LIG    1       -5.724  -1.410  -1.098  0.00  0.00    +0.126 A 
BRANCH  20  23
ATOM     23  N   LIG    1       -8.615   0.668  -0.793  0.00  0.00    -0.327 N 
ATOM     24  H   LIG    1       -9.261   0.157  -1.376  0.00  0.00    +0.145 HD
ATOM     25  H   LIG    1       -8.889   1.523  -0.330  0.00  0.00    +0.145 HD
ENDBRANCH  20  23
ENDBRANCH   8  17
BRANCH   3  26
ATOM     26  C   LIG    1        1.392  -0.200   0.428  0.00  0.00    +0.084 C 
ATOM     27  C   LIG    1        1.735  -0.947   1.731  0.00  0.00    +0.030 C 
ATOM     28  C   LIG    1        2.007  -0.858  -0.822  0.00  0.00    +0.030 C 
ENDBRANCH   3  26
TORSDOF 4
