REMARK  Name = DB12492
REMARK                            x       y       z     vdW  Elec       q    Type
REMARK                         _______ _______ _______ _____ _____    ______ ____
ROOT
ATOM      1  C   LIG    1       -2.420   3.533  -0.029  0.00  0.00    +0.101 C 
ATOM      2  C   LIG    1       -1.069   3.305   0.741  0.00  0.00    +0.047 C 
ATOM      3  C   LIG    1       -0.528   1.856   0.703  0.00  0.00    +0.086 C 
ATOM      4  N   LIG    1       -0.310   1.420  -0.686  0.00  0.00    -0.302 NA
ATOM      5  C   LIG    1       -1.514   1.558  -1.519  0.00  0.00    +0.086 C 
ATOM      6  C   LIG    1       -2.101   2.989  -1.462  0.00  0.00    +0.047 C 
ENDROOT
BRANCH   1   7
ATOM      7  N   LIG    1       -2.920   4.943  -0.029  0.00  0.00    -0.289 NA
ATOM      8  C   LIG    1       -1.904   6.015  -0.060  0.00  0.00    +0.085 C 
ATOM      9  C   LIG    1       -2.500   7.426   0.137  0.00  0.00    +0.015 C 
ATOM     10  C   LIG    1       -3.659   7.718  -0.822  0.00  0.00    +0.002 C 
ATOM     11  C   LIG    1       -4.689   6.588  -0.737  0.00  0.00    +0.015 C 
ATOM     12  C   LIG    1       -4.038   5.210  -0.962  0.00  0.00    +0.085 C 
ENDBRANCH   1   7
BRANCH   1  14
ATOM     13  O   LIG    1       -4.249   1.900   0.040  0.00  0.00    -0.274 OA
ATOM     14  C   LIG    1       -3.522   2.661   0.679  0.00  0.00    +0.231 C 
ATOM     15  N   LIG    1       -3.685   2.786   2.002  0.00  0.00    -0.328 N 
ATOM     16  H   LIG    1       -4.395   2.249   2.477  0.00  0.00    +0.145 HD
ATOM     17  H   LIG    1       -3.120   3.439   2.525  0.00  0.00    +0.145 HD
ENDBRANCH   1  14
BRANCH   4  18
ATOM     18  C   LIG    1        0.208   0.051  -0.771  0.00  0.00    +0.086 C 
BRANCH  18  19
ATOM     19  C   LIG    1        1.692  -0.078  -0.342  0.00  0.00    +0.046 C 
BRANCH  19  20
ATOM     20  C   LIG    1        2.184  -1.544  -0.111  0.00  0.00    +0.108 C 
BRANCH  20  21
ATOM     21  C   LIG    1        1.392  -2.154   1.070  0.00  0.00    -0.023 A 
ATOM     22  C   LIG    1        0.515  -3.238   0.900  0.00  0.00    +0.005 A 
ATOM     23  C   LIG    1       -0.189  -3.752   1.985  0.00  0.00    +0.000 A 
ATOM     24  C   LIG    1       -0.026  -3.188   3.246  0.00  0.00    +0.000 A 
ATOM     25  C   LIG    1        0.837  -2.112   3.433  0.00  0.00    +0.000 A 
ATOM     26  C   LIG    1        1.542  -1.599   2.349  0.00  0.00    +0.005 A 
ENDBRANCH  20  21
BRANCH  20  27
ATOM     27  C   LIG    1        3.703  -1.658   0.170  0.00  0.00    -0.023 A 
ATOM     28  C   LIG    1        4.535  -0.534   0.303  0.00  0.00    +0.005 A 
ATOM     29  C   LIG    1        5.895  -0.688   0.562  0.00  0.00    +0.000 A 
ATOM     30  C   LIG    1        6.436  -1.964   0.690  0.00  0.00    +0.000 A 
ATOM     31  C   LIG    1        5.627  -3.089   0.561  0.00  0.00    +0.000 A 
ATOM     32  C   LIG    1        4.269  -2.934   0.302  0.00  0.00    +0.005 A 
ENDBRANCH  20  27
BRANCH  20  33
ATOM     33  C   LIG    1        1.938  -2.283  -1.373  0.00  0.00    +0.079 C 
ATOM     34  N   LIG    1        1.747  -2.857  -2.360  0.00  0.00    -0.195 NA
ENDBRANCH  20  33
ENDBRANCH  19  20
ENDBRANCH  18  19
ENDBRANCH   4  18
TORSDOF 8
