REMARK  Name = DB12521
REMARK                            x       y       z     vdW  Elec       q    Type
REMARK                         _______ _______ _______ _____ _____    ______ ____
ROOT
ATOM      1  C   LIG    1       -0.011  -0.010   0.063  0.00  0.00    +0.132 C 
ATOM      2  N   LIG    1        1.445   0.013  -0.027  0.00  0.00    -0.305 N 
ATOM      3  C   LIG    1        2.166   1.154   0.059  0.00  0.00    +0.215 C 
ATOM      4  O   LIG    1        1.764   2.313   0.157  0.00  0.00    -0.276 OA
ATOM      5  C   LIG    1        3.634   0.727   0.031  0.00  0.00    +0.097 C 
ATOM      6  C   LIG    1        3.639  -0.738  -0.362  0.00  0.00    +0.028 C 
ATOM      7  C   LIG    1        2.227  -1.216  -0.084  0.00  0.00    +0.108 C 
ENDROOT
TORSDOF 0
