REMARK  Name = DB12610
REMARK                            x       y       z     vdW  Elec       q    Type
REMARK                         _______ _______ _______ _____ _____    ______ ____
ROOT
ATOM      1  N   LIG    1        1.417  -0.044   0.079  0.00  0.00    +0.000 N 
ATOM      2 SE   LIG    1        2.422   1.026  -1.084  0.00  0.00    +0.000 Se
ATOM      3  C   LIG    1        3.959   0.348  -0.352  0.00  0.00    +0.000 A 
ATOM      4  C   LIG    1        3.660  -0.556   0.666  0.00  0.00    +0.000 A 
ATOM      5  C   LIG    1        4.713  -1.171   1.354  0.00  0.00    +0.000 A 
ATOM      6  C   LIG    1        6.038  -0.883   1.017  0.00  0.00    +0.000 A 
ATOM      7  C   LIG    1        6.319   0.022  -0.007  0.00  0.00    +0.000 A 
ATOM      8  C   LIG    1        5.278   0.643  -0.696  0.00  0.00    +0.000 A 
ATOM      9  C   LIG    1        2.186  -0.779   0.930  0.00  0.00    +0.000 A 
ATOM     10  O   LIG    1        1.744  -1.525   1.806  0.00  0.00    +0.000 OA
ENDROOT
BRANCH   1  14
ATOM     11  C   LIG    1       -2.776   0.030  -0.060  0.00  0.00    +0.000 A 
ATOM     12  C   LIG    1       -2.059   1.224  -0.074  0.00  0.00    +0.000 A 
ATOM     13  C   LIG    1       -0.667   1.195  -0.025  0.00  0.00    +0.000 A 
ATOM     14  C   LIG    1        0.007  -0.031   0.042  0.00  0.00    +0.000 A 
ATOM     15  C   LIG    1       -0.725  -1.227   0.051  0.00  0.00    +0.000 A 
ATOM     16  C   LIG    1       -2.116  -1.194   0.001  0.00  0.00    +0.000 A 
ENDBRANCH   1  14
TORSDOF 1
