REMARK  Name = DB12017
REMARK                            x       y       z     vdW  Elec       q    Type
REMARK                         _______ _______ _______ _____ _____    ______ ____
ROOT
ATOM      1  C   LIG    1       -2.098   1.257  -0.011  0.00  0.00    +0.006 A 
ATOM      2  C   LIG    1       -2.783   0.041  -0.001  0.00  0.00    -0.028 A 
ATOM      3  C   LIG    1       -2.071  -1.159   0.022  0.00  0.00    +0.006 A 
ATOM      4  C   LIG    1       -0.679  -1.141   0.037  0.00  0.00    +0.008 A 
ATOM      5  C   LIG    1        0.017   0.072   0.029  0.00  0.00    -0.025 A 
ATOM      6  C   LIG    1       -0.706   1.273   0.005  0.00  0.00    +0.008 A 
ENDROOT
BRANCH   5   7
ATOM      7  C   LIG    1        1.497   0.031   0.043  0.00  0.00    +0.015 C 
ATOM      8  C   LIG    1        2.343   1.086  -0.014  0.00  0.00    +0.092 C 
BRANCH   8   9
ATOM      9  C   LIG    1        3.894   0.998   0.006  0.00  0.00    +0.330 C 
ATOM     10  O   LIG    1        4.458   2.114   0.048  0.00  0.00    -0.246 OA
BRANCH   9  11
ATOM     11  O   LIG    1        4.400  -0.148  -0.030  0.00  0.00    -0.478 OA
ATOM     12  H   LIG    1        3.848  -0.904  -0.059  0.00  0.00    +0.295 HD
ENDBRANCH   9  11
ENDBRANCH   8   9
ENDBRANCH   5   7
BRANCH   2  13
ATOM     13  C   LIG    1       -4.305   0.023  -0.030  0.00  0.00    +0.157 C 
BRANCH  13  14
ATOM     14  N   LIG    1       -4.850  -0.002  -1.379  0.00  0.00    -0.332 N 
ATOM     15  C   LIG    1       -5.407   1.039  -2.082  0.00  0.00    +0.199 A 
ATOM     16  N   LIG    1       -5.783   0.709  -3.295  0.00  0.00    -0.244 NA
ATOM     17  C   LIG    1       -5.460  -0.568  -3.409  0.00  0.00    +0.130 A 
ATOM     18  C   LIG    1       -4.871  -1.058  -2.253  0.00  0.00    +0.107 A 
ENDBRANCH  13  14
ENDBRANCH   2  13
TORSDOF 5
