REMARK  Name = DB12121
REMARK                            x       y       z     vdW  Elec       q    Type
REMARK                         _______ _______ _______ _____ _____    ______ ____
ROOT
ATOM      1  C   LIG    1       -0.827  -1.251  -0.171  0.00  0.00    +0.178 A 
ATOM      2  N   LIG    1       -0.350  -2.514  -0.349  0.00  0.00    -0.233 NA
ATOM      3  C   LIG    1       -1.326  -3.151  -0.961  0.00  0.00    +0.131 A 
ATOM      4  C   LIG    1       -2.443  -2.357  -1.202  0.00  0.00    +0.112 A 
ATOM      5  N   LIG    1       -2.127  -1.126  -0.692  0.00  0.00    -0.302 N 
ATOM      6  C   LIG    1       -2.822   0.053  -0.635  0.00  0.00    +0.121 A 
ATOM      7  C   LIG    1       -2.209   1.159  -0.039  0.00  0.00    +0.090 A 
ATOM      8  N   LIG    1       -0.950   1.073   0.468  0.00  0.00    -0.227 NA
ATOM      9  C   LIG    1       -0.261  -0.100   0.419  0.00  0.00    +0.167 A 
ENDROOT
BRANCH   7  10
ATOM     10  C   LIG    1       -2.886   2.489   0.063  0.00  0.00    +0.004 A 
ATOM     11  C   LIG    1       -4.282   2.551   0.209  0.00  0.00    +0.037 A 
ATOM     12  C   LIG    1       -4.875   3.815   0.302  0.00  0.00    +0.066 A 
ATOM     13  C   LIG    1       -4.121   5.010   0.253  0.00  0.00    +0.020 A 
ATOM     14  C   LIG    1       -2.731   4.936   0.109  0.00  0.00    +0.012 A 
ATOM     15  C   LIG    1       -5.093   6.047   0.378  0.00  0.00    +0.142 A 
ATOM     16  N   LIG    1       -6.302   5.559   0.493  0.00  0.00    -0.181 NA
ATOM     17  N   LIG    1       -6.187   4.218   0.450  0.00  0.00    -0.277 N 
ATOM     18  H   LIG    1       -7.008   3.635   0.523  0.00  0.00    +0.189 HD
ATOM     19  C   LIG    1       -2.139   3.677   0.017  0.00  0.00    +0.011 A 
ENDBRANCH   7  10
BRANCH   9  20
ATOM     20  N   LIG    1        1.045  -0.164   0.938  0.00  0.00    -0.296 N 
ATOM     21  H   LIG    1        1.526  -1.027   0.730  0.00  0.00    +0.154 HD
BRANCH  20  22
ATOM     22  C   LIG    1        1.815   0.770   1.651  0.00  0.00    +0.033 A 
ATOM     23  C   LIG    1        3.202   0.708   1.520  0.00  0.00    +0.025 A 
ATOM     24  C   LIG    1        4.013   1.603   2.212  0.00  0.00    +0.025 A 
ATOM     25  C   LIG    1        3.457   2.572   3.059  0.00  0.00    +0.030 A 
ATOM     26  C   LIG    1        2.061   2.616   3.194  0.00  0.00    +0.025 A 
ATOM     27  C   LIG    1        1.248   1.722   2.502  0.00  0.00    +0.025 A 
BRANCH  25  28
ATOM     28  N   LIG    1        4.292   3.459   3.739  0.00  0.00    -0.326 N 
ATOM     29  C   LIG    1        3.762   4.683   4.369  0.00  0.00    +0.133 C 
ATOM     30  C   LIG    1        4.863   5.701   4.735  0.00  0.00    +0.178 C 
ATOM     31  O   LIG    1        5.837   5.083   5.564  0.00  0.00    -0.377 OA
ATOM     32  C   LIG    1        6.455   3.980   4.919  0.00  0.00    +0.178 C 
ATOM     33  C   LIG    1        5.395   2.918   4.555  0.00  0.00    +0.133 C 
ENDBRANCH  25  28
ENDBRANCH  20  22
ENDBRANCH   9  20
TORSDOF 4
