REMARK  Name = DB12251
REMARK                            x       y       z     vdW  Elec       q    Type
REMARK                         _______ _______ _______ _____ _____    ______ ____
ROOT
ATOM      1  C   LIG    1        1.419   0.004  -0.148  0.00  0.00    +0.042 A 
ATOM      2  N   LIG    1        1.983   0.004   1.083  0.00  0.00    -0.256 NA
ATOM      3  C   LIG    1        3.337  -0.004   1.172  0.00  0.00    +0.054 A 
ATOM      4  C   LIG    1        4.202  -0.009   0.034  0.00  0.00    +0.007 A 
ATOM      5  C   LIG    1        3.579  -0.007  -1.250  0.00  0.00    -0.011 A 
ATOM      6  C   LIG    1        4.385  -0.011  -2.410  0.00  0.00    +0.058 A 
ATOM      7  C   LIG    1        5.785  -0.015  -2.321  0.00  0.00    +0.162 A 
ATOM      8  C   LIG    1        6.402  -0.015  -1.065  0.00  0.00    +0.162 A 
ATOM      9  C   LIG    1        5.620  -0.013   0.100  0.00  0.00    +0.059 A 
ATOM     10  C   LIG    1        2.163  -0.001  -1.328  0.00  0.00    +0.032 A 
ENDROOT
BRANCH   1  12
ATOM     11  C   LIG    1       -0.677   1.441  -0.042  0.00  0.00    +0.010 C 
ATOM     12  C   LIG    1       -0.102   0.025  -0.181  0.00  0.00    +0.052 C 
ENDBRANCH   1  12
BRANCH   7  13
ATOM     13  O   LIG    1        6.617  -0.016  -3.427  0.00  0.00    -0.491 OA
ATOM     14  C   LIG    1        6.052  -0.013  -4.734  0.00  0.00    +0.277 C 
ENDBRANCH   7  13
BRANCH   8  15
ATOM     15  O   LIG    1        7.787  -0.016  -1.052  0.00  0.00    -0.491 OA
ATOM     16  C   LIG    1        8.482  -0.007   0.191  0.00  0.00    +0.277 C 
ENDBRANCH   8  15
BRANCH   3  17
ATOM     17  C   LIG    1        3.941  -0.004   2.584  0.00  0.00    +0.091 C 
BRANCH  17  18
ATOM     18  C   LIG    1        2.967  -0.001   3.762  0.00  0.00    -0.042 A 
ATOM     19  C   LIG    1        2.534   1.211   4.307  0.00  0.00    +0.004 A 
ATOM     20  C   LIG    1        1.660   1.213   5.391  0.00  0.00    +0.000 A 
ATOM     21  C   LIG    1        1.228   0.003   5.931  0.00  0.00    +0.000 A 
ATOM     22  C   LIG    1        1.663  -1.209   5.398  0.00  0.00    +0.000 A 
ATOM     23  C   LIG    1        2.537  -1.211   4.314  0.00  0.00    +0.004 A 
ENDBRANCH  17  18
ENDBRANCH   3  17
TORSDOF 5
