REMARK  Name = DB12478
REMARK                            x       y       z     vdW  Elec       q    Type
REMARK                         _______ _______ _______ _____ _____    ______ ____
ROOT
ATOM      1  N   LIG    1        3.622  -0.957   1.649  0.00  0.00    -0.303 N 
ATOM      2  C   LIG    1        3.234   0.466   1.740  0.00  0.00    +0.089 C 
ATOM      3  C   LIG    1        1.718   0.679   1.530  0.00  0.00    -0.059 C 
ATOM      4  N   LIG    1        1.333   0.168   0.124  0.00  0.00    +0.384 N 
ATOM      5  H   LIG    1        1.856   0.695  -0.561  0.00  0.00    -0.081 HD
ATOM      6  C   LIG    1        1.750  -1.315   0.013  0.00  0.00    -0.059 C 
ATOM      7  C   LIG    1        3.265  -1.428   0.295  0.00  0.00    +0.089 C 
ENDROOT
BRANCH   1  11
ATOM      8  C   LIG    1        3.929  -3.451   4.924  0.00  0.00    +0.039 A 
ATOM      9  C   LIG    1        3.885  -3.953   3.623  0.00  0.00    +0.116 A 
ATOM     10  N   LIG    1        3.767  -3.147   2.535  0.00  0.00    -0.223 NA
ATOM     11  C   LIG    1        3.677  -1.804   2.760  0.00  0.00    +0.218 A 
ATOM     12  N   LIG    1        3.730  -1.232   3.998  0.00  0.00    -0.223 NA
ATOM     13  C   LIG    1        3.848  -2.066   5.064  0.00  0.00    +0.116 A 
ENDBRANCH   1  11
BRANCH   4  14
ATOM     14  C   LIG    1       -0.179   0.331  -0.155  0.00  0.00    -0.043 C 
BRANCH  14  15
ATOM     15  C   LIG    1       -0.646   1.777  -0.234  0.00  0.00    -0.060 A 
ATOM     16  C   LIG    1       -0.465   2.507  -1.421  0.00  0.00    +0.051 A 
ATOM     17  C   LIG    1       -0.917   3.822  -1.450  0.00  0.00    +0.166 A 
ATOM     18  O   LIG    1       -0.877   4.714  -2.473  0.00  0.00    -0.453 OA
ATOM     19  C   LIG    1       -1.297   5.936  -1.927  0.00  0.00    +0.466 C 
ATOM     20  O   LIG    1       -1.901   5.665  -0.690  0.00  0.00    -0.453 OA
ATOM     21  C   LIG    1       -1.535   4.395  -0.374  0.00  0.00    +0.166 A 
ATOM     22  C   LIG    1       -1.747   3.696   0.809  0.00  0.00    +0.050 A 
ATOM     23  C   LIG    1       -1.291   2.371   0.869  0.00  0.00    +0.005 A 
ENDBRANCH  14  15
ENDBRANCH   4  14
TORSDOF 3
