REMARK  Name = DB12239
REMARK                            x       y       z     vdW  Elec       q    Type
REMARK                         _______ _______ _______ _____ _____    ______ ____
ROOT
ATOM      1  C   LIG    1        1.645  -0.000  -0.146  0.00  0.00    +0.245 C 
ATOM      2  N   LIG    1        2.275  -1.198  -0.117  0.00  0.00    -0.297 N 
ATOM      3  H   LIG    1        1.664  -1.981   0.060  0.00  0.00    +0.150 HD
ATOM      4  O   LIG    1        2.235   1.080  -0.085  0.00  0.00    -0.270 OA
ENDROOT
BRANCH   1   8
ATOM      5  C   LIG    1       -2.687  -0.074  -0.562  0.00  0.00    +0.030 A 
ATOM      6  C   LIG    1       -1.955   1.114  -0.710  0.00  0.00    +0.024 A 
ATOM      7  C   LIG    1       -0.569   1.130  -0.580  0.00  0.00    +0.015 A 
ATOM      8  C   LIG    1        0.136  -0.042  -0.285  0.00  0.00    +0.037 A 
ATOM      9  C   LIG    1       -0.589  -1.229  -0.111  0.00  0.00    +0.015 A 
ATOM     10  C   LIG    1       -1.975  -1.240  -0.239  0.00  0.00    +0.024 A 
BRANCH   5  15
ATOM     11  N   LIG    1       -5.743  -1.101  -2.912  0.00  0.00    +0.382 N 
ATOM     12  H   LIG    1       -6.660  -0.890  -2.544  0.00  0.00    -0.082 HD
ATOM     13  C   LIG    1       -5.034  -2.034  -1.907  0.00  0.00    -0.060 C 
ATOM     14  C   LIG    1       -4.903  -1.295  -0.556  0.00  0.00    +0.086 C 
ATOM     15  N   LIG    1       -4.086  -0.070  -0.657  0.00  0.00    -0.333 N 
ATOM     16  C   LIG    1       -4.796   0.825  -1.595  0.00  0.00    +0.086 C 
ATOM     17  C   LIG    1       -4.936   0.214  -3.009  0.00  0.00    -0.060 C 
BRANCH  11  18
ATOM     18  C   LIG    1       -5.894  -1.807  -4.281  0.00  0.00    -0.079 C 
BRANCH  18  20
ATOM     19  C   LIG    1       -8.207  -0.740  -4.710  0.00  0.00    +0.002 C 
ATOM     20  C   LIG    1       -6.793  -1.010  -5.248  0.00  0.00    -0.022 C 
ENDBRANCH  18  20
ENDBRANCH  11  18
ENDBRANCH   5  15
ENDBRANCH   1   8
BRANCH   2  21
ATOM     21  C   LIG    1        3.712  -1.533   0.052  0.00  0.00    +0.111 C 
ATOM     22  C   LIG    1        4.702  -0.460  -0.531  0.00  0.00    +0.035 C 
ATOM     23  C   LIG    1        6.138  -0.922  -0.852  0.00  0.00    +0.003 C 
ATOM     24  C   LIG    1        6.153  -2.194  -1.707  0.00  0.00    +0.000 C 
ATOM     25  C   LIG    1        5.398  -3.330  -1.008  0.00  0.00    +0.003 C 
ATOM     26  C   LIG    1        3.954  -2.935  -0.619  0.00  0.00    +0.035 C 
BRANCH  21  27
ATOM     27  C   LIG    1        4.008  -1.613   1.592  0.00  0.00    +0.237 C 
ATOM     28  N   LIG    1        5.012  -2.407   2.012  0.00  0.00    -0.301 N 
ATOM     29  H   LIG    1        5.495  -2.974   1.331  0.00  0.00    +0.150 HD
ATOM     30  O   LIG    1        3.374  -0.921   2.394  0.00  0.00    -0.273 OA
BRANCH  28  31
ATOM     31  C   LIG    1        5.404  -2.594   3.407  0.00  0.00    +0.223 C 
BRANCH  31  32
ATOM     32  C   LIG    1        4.365  -3.268   4.206  0.00  0.00    +0.081 C 
ATOM     33  N   LIG    1        3.549  -3.798   4.833  0.00  0.00    -0.195 NA
ENDBRANCH  31  32
ENDBRANCH  28  31
ENDBRANCH  21  27
ENDBRANCH   2  21
TORSDOF 8
