REMARK  Name = DB12278
REMARK                            x       y       z     vdW  Elec       q    Type
REMARK                         _______ _______ _______ _____ _____    ______ ____
ROOT
ATOM      1  C   LIG    1        0.086  -0.058   0.306  0.00  0.00    +0.216 C 
ENDROOT
BRANCH   1   2
ATOM      2  C   LIG    1       -0.616  -0.572  -0.981  0.00  0.00    -0.001 A 
ATOM      3  C   LIG    1        0.097  -0.700  -2.184  0.00  0.00    +0.007 A 
ATOM      4  C   LIG    1       -0.533  -1.166  -3.335  0.00  0.00    +0.000 A 
ATOM      5  C   LIG    1       -1.881  -1.507  -3.295  0.00  0.00    +0.000 A 
ATOM      6  C   LIG    1       -2.607  -1.384  -2.114  0.00  0.00    +0.000 A 
ATOM      7  C   LIG    1       -1.977  -0.918  -0.964  0.00  0.00    +0.007 A 
ENDBRANCH   1   2
BRANCH   1   8
ATOM      8  C   LIG    1       -0.404  -0.784   1.600  0.00  0.00    -0.001 A 
ATOM      9  C   LIG    1       -0.450  -2.187   1.593  0.00  0.00    +0.007 A 
ATOM     10  C   LIG    1       -0.859  -2.896   2.719  0.00  0.00    +0.000 A 
ATOM     11  C   LIG    1       -1.216  -2.207   3.874  0.00  0.00    +0.000 A 
ATOM     12  C   LIG    1       -1.157  -0.818   3.914  0.00  0.00    +0.000 A 
ATOM     13  C   LIG    1       -0.746  -0.111   2.787  0.00  0.00    +0.007 A 
ENDBRANCH   1   8
BRANCH   1  14
ATOM     14  C   LIG    1       -0.186   1.482   0.308  0.00  0.00    +0.349 C 
ATOM     15  O   LIG    1        0.715   2.302   0.113  0.00  0.00    -0.247 OA
BRANCH  14  16
ATOM     16  O   LIG    1       -1.492   1.799   0.521  0.00  0.00    -0.459 OA
BRANCH  16  17
ATOM     17  C   LIG    1       -1.938   3.151   0.590  0.00  0.00    +0.179 C 
ATOM     18  C   LIG    1       -3.450   3.214   0.322  0.00  0.00    +0.060 C 
ATOM     19  C   LIG    1       -3.956   4.671   0.393  0.00  0.00    +0.087 C 
ATOM     20  N   LIG    1       -3.620   5.304   1.677  0.00  0.00    -0.305 NA
ATOM     21  C   LIG    1       -2.187   5.244   2.000  0.00  0.00    +0.087 C 
ATOM     22  C   LIG    1       -4.102   6.680   1.717  0.00  0.00    +0.104 C 
ATOM     23  C   LIG    1       -1.651   3.798   1.959  0.00  0.00    +0.060 C 
ENDBRANCH  16  17
ENDBRANCH  14  16
ENDBRANCH   1  14
BRANCH   1  24
ATOM     24  O   LIG    1        1.504  -0.293   0.152  0.00  0.00    -0.353 OA
BRANCH  24  25
ATOM     25  C   LIG    1        2.382  -0.120   1.269  0.00  0.00    +0.162 C 
BRANCH  25  27
ATOM     26  C   LIG    1        4.862   0.044   1.876  0.00  0.00    +0.006 C 
ATOM     27  C   LIG    1        3.829  -0.154   0.758  0.00  0.00    +0.025 C 
ENDBRANCH  25  27
ENDBRANCH  24  25
ENDBRANCH   1  24
TORSDOF 8
