REMARK  Name = DB12078
REMARK                            x       y       z     vdW  Elec       q    Type
REMARK                         _______ _______ _______ _____ _____    ______ ____
ROOT
ATOM      1  C   LIG    1        1.927   0.721   1.250  0.00  0.00    +0.252 C 
ATOM      2  O   LIG    1        1.766   0.144   2.326  0.00  0.00    -0.272 OA
ATOM      3  N   LIG    1        2.391   1.988   1.129  0.00  0.00    -0.283 N 
ATOM      4  H   LIG    1        2.478   2.328   0.182  0.00  0.00    +0.155 HD
ENDROOT
BRANCH   3   5
ATOM      5  C   LIG    1        2.776   2.920   2.114  0.00  0.00    +0.034 A 
ATOM      6  C   LIG    1        3.252   4.140   1.637  0.00  0.00    +0.024 A 
ATOM      7  C   LIG    1        3.654   5.138   2.520  0.00  0.00    +0.021 A 
ATOM      8  C   LIG    1        3.585   4.936   3.901  0.00  0.00    +0.064 A 
ATOM      9  C   LIG    1        3.102   3.709   4.409  0.00  0.00    +0.074 A 
ATOM     10  C   LIG    1        2.703   2.714   3.501  0.00  0.00    +0.037 A 
BRANCH   9  11
ATOM     11  C   LIG    1        2.997   3.432   5.921  0.00  0.00    +0.419 C 
ATOM     12  F   LIG    1        2.527   2.213   6.196  0.00  0.00    -0.166 F 
ATOM     13  F   LIG    1        2.175   4.317   6.487  0.00  0.00    -0.166 F 
ATOM     14  F   LIG    1        4.199   3.537   6.488  0.00  0.00    -0.166 F 
ENDBRANCH   9  11
BRANCH   8  15
ATOM     15  C   LIG    1        4.024   6.029   4.765  0.00  0.00    +0.100 C 
ATOM     16  N   LIG    1        4.372   6.895   5.449  0.00  0.00    -0.191 NA
ENDBRANCH   8  15
ENDBRANCH   3   5
BRANCH   1  17
ATOM     17  C   LIG    1        1.525  -0.035  -0.053  0.00  0.00    +0.173 C 
ATOM     18  C   LIG    1        2.139  -1.454  -0.099  0.00  0.00    +0.055 C 
BRANCH  17  19
ATOM     19  O   LIG    1        2.002   0.649  -1.209  0.00  0.00    -0.376 OA
ATOM     20  H   LIG    1        1.724   0.162  -1.988  0.00  0.00    +0.211 HD
ENDBRANCH  17  19
BRANCH  17  21
ATOM     21  C   LIG    1       -0.020  -0.110  -0.198  0.00  0.00    +0.273 C 
BRANCH  21  22
ATOM     22  O   LIG    1       -0.618   1.182  -0.059  0.00  0.00    -0.489 OA
BRANCH  22  23
ATOM     23  C   LIG    1       -1.993   1.302  -0.044  0.00  0.00    +0.121 A 
ATOM     24  C   LIG    1       -2.884   0.229  -0.205  0.00  0.00    +0.047 A 
ATOM     25  C   LIG    1       -4.259   0.448  -0.171  0.00  0.00    +0.022 A 
ATOM     26  C   LIG    1       -4.753   1.738   0.023  0.00  0.00    +0.052 A 
ATOM     27  C   LIG    1       -3.874   2.811   0.180  0.00  0.00    +0.022 A 
ATOM     28  C   LIG    1       -2.500   2.588   0.146  0.00  0.00    +0.047 A 
BRANCH  26  29
ATOM     29  C   LIG    1       -6.190   1.967   0.061  0.00  0.00    +0.099 C 
ATOM     30  N   LIG    1       -7.332   2.149   0.092  0.00  0.00    -0.191 NA
ENDBRANCH  26  29
ENDBRANCH  22  23
ENDBRANCH  21  22
ENDBRANCH  17  21
ENDBRANCH   1  17
TORSDOF 9
