REMARK  Name = DB12693
REMARK                            x       y       z     vdW  Elec       q    Type
REMARK                         _______ _______ _______ _____ _____    ______ ____
ROOT
ATOM      1  N   LIG    1        1.905  -1.322   0.275  0.00  0.00    +0.380 N 
ATOM      2  H   LIG    1        1.591  -1.713  -0.603  0.00  0.00    -0.082 HD
ATOM      3  C   LIG    1        3.451  -1.294   0.240  0.00  0.00    -0.074 C 
ATOM      4  C   LIG    1        4.013  -2.727   0.101  0.00  0.00    +0.013 C 
ATOM      5  C   LIG    1        3.515  -3.605   1.257  0.00  0.00    -0.065 C 
ATOM      6  C   LIG    1        4.314  -4.246   2.158  0.00  0.00    -0.012 C 
ATOM      7  C   LIG    1        1.982  -3.651   1.250  0.00  0.00    +0.013 C 
ATOM      8  C   LIG    1        1.397  -2.233   1.418  0.00  0.00    -0.074 C 
ENDROOT
BRANCH   6   9
ATOM      9  C   LIG    1        5.799  -4.273   2.052  0.00  0.00    -0.017 A 
ATOM     10  C   LIG    1        6.588  -3.877   3.140  0.00  0.00    +0.011 A 
ATOM     11  C   LIG    1        7.978  -3.917   3.055  0.00  0.00    +0.039 A 
ATOM     12  C   LIG    1        8.586  -4.358   1.883  0.00  0.00    +0.123 A 
ATOM     13  F   LIG    1        9.935  -4.398   1.800  0.00  0.00    -0.205 F 
ATOM     14  C   LIG    1        7.814  -4.762   0.796  0.00  0.00    +0.039 A 
ATOM     15  C   LIG    1        6.426  -4.723   0.882  0.00  0.00    +0.011 A 
ENDBRANCH   6   9
BRANCH   6  16
ATOM     16  C   LIG    1        3.779  -4.980   3.337  0.00  0.00    -0.017 A 
ATOM     17  C   LIG    1        4.155  -6.310   3.565  0.00  0.00    +0.011 A 
ATOM     18  C   LIG    1        3.672  -6.999   4.675  0.00  0.00    +0.039 A 
ATOM     19  C   LIG    1        2.815  -6.360   5.566  0.00  0.00    +0.123 A 
ATOM     20  F   LIG    1        2.347  -7.028   6.644  0.00  0.00    -0.205 F 
ATOM     21  C   LIG    1        2.438  -5.035   5.357  0.00  0.00    +0.039 A 
ATOM     22  C   LIG    1        2.923  -4.347   4.248  0.00  0.00    +0.011 A 
ENDBRANCH   6  16
BRANCH   1  23
ATOM     23  C   LIG    1        1.362   0.124   0.395  0.00  0.00    -0.074 C 
BRANCH  23  24
ATOM     24  C   LIG    1       -0.165   0.184   0.171  0.00  0.00    +0.024 C 
BRANCH  24  35
ATOM     25  C   LIG    1       -1.534   1.834   2.465  0.00  0.00    +0.066 C 
ATOM     26  C   LIG    1       -1.330   2.311   1.032  0.00  0.00    +0.049 A 
ATOM     27  N   LIG    1       -1.824   3.580   0.868  0.00  0.00    -0.228 NA
ATOM     28  C   LIG    1       -1.700   4.133  -0.287  0.00  0.00    +0.180 A 
ATOM     29  S   LIG    1       -2.268   5.758  -0.721  0.00  0.00    -0.058 S 
ATOM     30  C   LIG    1       -1.643   5.494  -2.349  0.00  0.00    +0.067 A 
ATOM     31  C   LIG    1       -1.074   4.284  -2.490  0.00  0.00    +0.104 A 
ATOM     32  N   LIG    1       -1.097   3.518  -1.357  0.00  0.00    -0.262 N 
ATOM     33  C   LIG    1       -0.561   2.248  -1.293  0.00  0.00    +0.262 A 
ATOM     34  O   LIG    1       -0.009   1.688  -2.245  0.00  0.00    -0.267 OA
ATOM     35  C   LIG    1       -0.702   1.613   0.033  0.00  0.00    +0.037 A 
ENDBRANCH  24  35
ENDBRANCH  23  24
ENDBRANCH   1  23
TORSDOF 5
