REMARK  Name = DB12555
REMARK                            x       y       z     vdW  Elec       q    Type
REMARK                         _______ _______ _______ _____ _____    ______ ____
ROOT
ATOM      1  C   LIG    1        1.430   0.093  -0.025  0.00  0.00    +0.044 A 
ATOM      2  C   LIG    1        2.252   0.906   0.773  0.00  0.00    +0.129 A 
ATOM      3  C   LIG    1        3.646   0.829   0.607  0.00  0.00    +0.048 A 
ATOM      4  C   LIG    1        4.207  -0.045  -0.322  0.00  0.00    +0.027 A 
ATOM      5  C   LIG    1        3.393  -0.868  -1.100  0.00  0.00    +0.036 A 
ATOM      6  C   LIG    1        2.001  -0.779  -0.958  0.00  0.00    +0.037 A 
ENDROOT
BRANCH   1  13
ATOM      7  C   LIG    1       -0.492  -2.343   0.471  0.00  0.00    +0.173 C 
ATOM      8  N   LIG    1       -0.874  -0.946   0.309  0.00  0.00    -0.266 N 
ATOM      9  N   LIG    1       -2.178  -0.639   0.326  0.00  0.00    -0.178 NA
ATOM     10  C   LIG    1       -2.213   0.657   0.142  0.00  0.00    +0.150 A 
ATOM     11  C   LIG    1       -0.943   1.216  -0.021  0.00  0.00    +0.063 A 
ATOM     12 BR   LIG    1       -0.533   3.047  -0.343  0.00  0.00    -0.046 Br
ATOM     13  C   LIG    1       -0.060   0.145   0.080  0.00  0.00    +0.086 A 
ENDBRANCH   1  13
BRANCH   5  14
ATOM     14  N   LIG    1        4.035  -1.717  -2.019  0.00  0.00    -0.269 N 
ATOM     15  H   LIG    1        4.983  -1.454  -2.249  0.00  0.00    +0.156 HD
ATOM     16  C   LIG    1        3.584  -2.878  -2.537  0.00  0.00    +0.308 C 
ATOM     17  N   LIG    1        4.476  -3.358  -3.429  0.00  0.00    -0.267 N 
ATOM     18  H   LIG    1        5.313  -2.808  -3.558  0.00  0.00    +0.156 HD
ATOM     19  O   LIG    1        2.520  -3.417  -2.229  0.00  0.00    -0.252 OA
BRANCH  17  20
ATOM     20  C   LIG    1        4.436  -4.528  -4.216  0.00  0.00    +0.070 A 
ATOM     21  C   LIG    1        5.555  -4.779  -5.025  0.00  0.00    +0.147 A 
ATOM     22  F   LIG    1        6.609  -3.927  -5.031  0.00  0.00    -0.203 F 
ATOM     23  C   LIG    1        5.602  -5.912  -5.838  0.00  0.00    +0.078 A 
ATOM     24  C   LIG    1        4.535  -6.807  -5.854  0.00  0.00    +0.126 A 
ATOM     25  F   LIG    1        4.583  -7.904  -6.644  0.00  0.00    -0.205 F 
ATOM     26  C   LIG    1        3.417  -6.570  -5.057  0.00  0.00    +0.040 A 
ATOM     27  C   LIG    1        3.363  -5.439  -4.242  0.00  0.00    +0.029 A 
ENDBRANCH  17  20
ENDBRANCH   5  14
BRANCH   2  28
ATOM     28  O   LIG    1        1.639   1.736   1.696  0.00  0.00    -0.494 OA
ATOM     29  C   LIG    1        2.430   2.617   2.485  0.00  0.00    +0.277 C 
ENDBRANCH   2  28
TORSDOF 4
