REMARK  Name = DB12930
REMARK                            x       y       z     vdW  Elec       q    Type
REMARK                         _______ _______ _______ _____ _____    ______ ____
ROOT
ATOM      1  C   LIG    1       -6.256   3.044  -1.946  0.00  0.00    +0.001 A 
ATOM      2  C   LIG    1       -5.381   4.104  -1.736  0.00  0.00    +0.010 A 
ATOM      3  C   LIG    1       -4.236   3.951  -0.942  0.00  0.00    -0.004 A 
ATOM      4  C   LIG    1       -3.945   2.698  -0.353  0.00  0.00    +0.041 A 
ATOM      5  N   LIG    1       -2.804   2.470   0.450  0.00  0.00    -0.299 N 
ATOM      6  C   LIG    1       -2.361   3.276   1.525  0.00  0.00    +0.041 A 
ATOM      7  C   LIG    1       -2.238   4.683   1.432  0.00  0.00    -0.004 A 
ATOM      8  C   LIG    1       -2.551   5.450   0.217  0.00  0.00    +0.010 C 
ATOM      9  C   LIG    1       -1.781   5.421   2.532  0.00  0.00    +0.010 A 
ATOM     10  C   LIG    1       -1.451   4.797   3.730  0.00  0.00    +0.001 A 
ATOM     11  C   LIG    1       -1.576   3.419   3.842  0.00  0.00    +0.002 A 
ATOM     12  C   LIG    1       -2.026   2.675   2.755  0.00  0.00    +0.024 A 
ATOM     13  C   LIG    1       -4.860   1.649  -0.573  0.00  0.00    +0.024 A 
ATOM     14  C   LIG    1       -3.390   5.143  -0.781  0.00  0.00    +0.010 C 
ATOM     15  C   LIG    1       -5.997   1.813  -1.358  0.00  0.00    +0.002 A 
ENDROOT
BRANCH   5  16
ATOM     16  C   LIG    1       -2.118   1.175   0.249  0.00  0.00    +0.109 C 
BRANCH  16  17
ATOM     17  C   LIG    1       -0.603   1.339   0.003  0.00  0.00    +0.001 C 
BRANCH  17  18
ATOM     18  C   LIG    1        0.079  -0.010  -0.284  0.00  0.00    -0.077 C 
BRANCH  18  19
ATOM     19  N   LIG    1        1.618   0.138  -0.339  0.00  0.00    +0.381 N 
ATOM     20  H   LIG    1        1.934   0.613   0.495  0.00  0.00    -0.082 HD
ATOM     21  C   LIG    1        2.282  -1.261  -0.359  0.00  0.00    -0.063 C 
ATOM     22  C   LIG    1        3.818  -1.083  -0.414  0.00  0.00    +0.066 C 
ATOM     23  N   LIG    1        4.250  -0.333  -1.603  0.00  0.00    -0.304 NA
ATOM     24  C   LIG    1        3.639   1.003  -1.583  0.00  0.00    +0.066 C 
ATOM     25  C   LIG    1        2.090   0.951  -1.571  0.00  0.00    -0.063 C 
BRANCH  23  26
ATOM     26  C   LIG    1        4.114  -1.012  -2.902  0.00  0.00    +0.112 C 
BRANCH  26  27
ATOM     27  C   LIG    1        4.959  -2.299  -2.979  0.00  0.00    +0.171 C 
BRANCH  27  28
ATOM     28  O   LIG    1        4.853  -2.850  -4.274  0.00  0.00    -0.394 OA
ATOM     29  H   LIG    1        5.401  -3.638  -4.318  0.00  0.00    +0.209 HD
ENDBRANCH  27  28
ENDBRANCH  26  27
ENDBRANCH  23  26
ENDBRANCH  18  19
ENDBRANCH  17  18
ENDBRANCH  16  17
ENDBRANCH   5  16
TORSDOF 7
