REMARK  Name = DB12868
REMARK                            x       y       z     vdW  Elec       q    Type
REMARK                         _______ _______ _______ _____ _____    ______ ____
ROOT
ATOM      1  C   LIG    1       -6.272   2.160  -0.059  0.00  0.00    +0.015 C 
ATOM      2  C   LIG    1       -4.757   2.069  -0.106  0.00  0.00    +0.014 C 
ATOM      3  C   LIG    1       -3.872   3.150   0.035  0.00  0.00    +0.057 C 
ATOM      4  N   LIG    1       -4.150   4.471   0.308  0.00  0.00    -0.300 NA
ATOM      5  H   LIG    1       -5.076   4.843   0.465  0.00  0.00    +0.123 HD
ATOM      6  C   LIG    1       -2.992   5.209   0.369  0.00  0.00    +0.050 C 
ATOM      7  C   LIG    1       -2.814   6.557   0.685  0.00  0.00    +0.021 C 
ATOM      8  C   LIG    1       -1.524   7.070   0.630  0.00  0.00    +0.006 C 
ATOM      9  C   LIG    1       -0.426   6.304   0.182  0.00  0.00    -0.006 C 
ATOM     10  C   LIG    1        0.861   6.886   0.060  0.00  0.00    +0.038 C 
ATOM     11  C   LIG    1        1.918   6.152  -0.466  0.00  0.00    +0.102 C 
ATOM     12  C   LIG    1        1.716   4.848  -0.897  0.00  0.00    +0.034 C 
ATOM     13  C   LIG    1        0.467   4.246  -0.772  0.00  0.00    +0.007 C 
ATOM     14  C   LIG    1       -0.627   4.935  -0.179  0.00  0.00    -0.003 C 
ATOM     15  C   LIG    1       -1.922   4.346   0.013  0.00  0.00    +0.018 C 
ATOM     16  C   LIG    1       -2.447   3.009  -0.046  0.00  0.00    +0.045 C 
ATOM     17  C   LIG    1       -1.934   1.683  -0.132  0.00  0.00    +0.112 C 
ATOM     18  N   LIG    1       -2.826   0.679  -0.271  0.00  0.00    -0.291 NA
ATOM     19  H   LIG    1       -2.458  -0.258  -0.345  0.00  0.00    +0.124 HD
ATOM     20  C   LIG    1       -4.159   0.822  -0.287  0.00  0.00    +0.081 C 
ENDROOT
BRANCH  11  21
ATOM     21  O   LIG    1        3.153   6.732  -0.591  0.00  0.00    -0.385 OA
ATOM     22  H   LIG    1        3.804   6.152  -0.990  0.00  0.00    +0.210 HD
ENDBRANCH  11  21
BRANCH  17  23
ATOM     23  N   LIG    1       -0.563   1.333   0.013  0.00  0.00    -0.296 NA
ATOM     24  H   LIG    1        0.104   2.075   0.175  0.00  0.00    +0.124 HD
BRANCH  23  25
ATOM     25  C   LIG    1       -0.047  -0.039  -0.089  0.00  0.00    +0.081 C 
BRANCH  25  26
ATOM     26  C   LIG    1        1.485  -0.112   0.040  0.00  0.00    -0.003 C 
BRANCH  26  27
ATOM     27  C   LIG    1        1.998  -1.560  -0.072  0.00  0.00    -0.078 C 
BRANCH  27  28
ATOM     28  N   LIG    1        3.517  -1.648   0.208  0.00  0.00    +0.376 N 
ATOM     29  H   LIG    1        3.684  -1.190   1.093  0.00  0.00    -0.083 HD
ATOM     30  C   LIG    1        4.381  -0.934  -0.853  0.00  0.00    -0.097 C 
ATOM     31  C   LIG    1        3.966  -3.113   0.375  0.00  0.00    -0.097 C 
ENDBRANCH  27  28
ENDBRANCH  26  27
ENDBRANCH  25  26
ENDBRANCH  23  25
ENDBRANCH  17  23
TORSDOF 6
