REMARK  Name = DB12398
REMARK                            x       y       z     vdW  Elec       q    Type
REMARK                         _______ _______ _______ _____ _____    ______ ____
ROOT
ATOM      1  C   LIG    1       -0.587  -0.310  -1.092  0.00  0.00    -0.033 A 
ATOM      2  C   LIG    1       -0.129  -0.024  -2.385  0.00  0.00    +0.013 A 
ATOM      3  C   LIG    1       -0.493  -0.843  -3.482  0.00  0.00    -0.017 A 
ATOM      4  C   LIG    1       -0.037  -0.578  -4.794  0.00  0.00    +0.012 A 
ATOM      5  C   LIG    1       -0.412  -1.405  -5.849  0.00  0.00    +0.046 A 
ATOM      6  C   LIG    1       -1.238  -2.509  -5.649  0.00  0.00    +0.121 A 
ATOM      7  C   LIG    1       -1.704  -2.789  -4.355  0.00  0.00    +0.054 A 
ATOM      8  C   LIG    1       -1.342  -1.967  -3.258  0.00  0.00    -0.014 A 
ATOM      9  C   LIG    1       -1.804  -2.229  -1.946  0.00  0.00    +0.009 A 
ATOM     10  C   LIG    1       -1.428  -1.404  -0.889  0.00  0.00    +0.005 A 
ENDROOT
BRANCH   1  12
ATOM     11  C   LIG    1       -0.900   1.957   0.022  0.00  0.00    +0.024 C 
ATOM     12  C   LIG    1       -0.215   0.575   0.103  0.00  0.00    +0.125 C 
BRANCH  12  13
ATOM     13  C   LIG    1        1.320   0.662   0.239  0.00  0.00    +0.314 C 
ATOM     14  O   LIG    1        1.957   1.658  -0.113  0.00  0.00    -0.250 OA
BRANCH  13  15
ATOM     15  O   LIG    1        1.844  -0.454   0.790  0.00  0.00    -0.463 OA
BRANCH  15  16
ATOM     16  C   LIG    1        3.244  -0.570   1.000  0.00  0.00    +0.254 C 
BRANCH  16  17
ATOM     17  C   LIG    1        3.548  -1.947   1.604  0.00  0.00    +0.206 C 
BRANCH  17  18
ATOM     18  S   LIG    1        5.400  -2.131   1.931  0.00  0.00    -0.031 S 
ATOM     19  C   LIG    1        6.174  -2.146   0.210  0.00  0.00    +0.194 C 
ATOM     20  O   LIG    1        5.620  -3.451   2.529  0.00  0.00    -0.175 OA
ATOM     21  O   LIG    1        5.868  -0.929   2.629  0.00  0.00    -0.175 OA
ENDBRANCH  17  18
ENDBRANCH  16  17
ENDBRANCH  15  16
ENDBRANCH  13  15
ENDBRANCH  12  13
ENDBRANCH   1  12
BRANCH   6  22
ATOM     22  O   LIG    1       -1.544  -3.261  -6.767  0.00  0.00    -0.495 OA
ATOM     23  C   LIG    1       -2.379  -4.405  -6.628  0.00  0.00    +0.277 C 
ENDBRANCH   6  22
TORSDOF 7
