REMARK  Name = DB12832
REMARK                            x       y       z     vdW  Elec       q    Type
REMARK                         _______ _______ _______ _____ _____    ______ ____
ROOT
ATOM      1  C   LIG    1       -0.445   9.825   4.226  0.00  0.00    +0.020 C 
ATOM      2  C   LIG    1        0.314   9.172   5.414  0.00  0.00    +0.013 C 
ATOM      3  C   LIG    1        1.288   7.992   5.017  0.00  0.00    +0.035 C 
ATOM      4  C   LIG    1        0.599   6.702   4.433  0.00  0.00    +0.120 C 
ATOM      5  C   LIG    1        1.639   5.604   4.070  0.00  0.00    +0.041 C 
ATOM      6  C   LIG    1        2.787   6.105   3.138  0.00  0.00    +0.009 C 
ATOM      7  C   LIG    1        4.037   5.150   3.010  0.00  0.00    +0.133 C 
ATOM      8  C   LIG    1        5.182   6.126   2.592  0.00  0.00    +0.043 C 
ATOM      9  C   LIG    1        4.791   7.516   3.140  0.00  0.00    +0.008 C 
ATOM     10  C   LIG    1        3.462   7.288   3.877  0.00  0.00    +0.002 C 
ATOM     11  C   LIG    1        2.230   6.518   1.729  0.00  0.00    +0.015 C 
ATOM     12  C   LIG    1        2.504   8.482   4.151  0.00  0.00    -0.000 C 
ATOM     13  C   LIG    1        3.249   9.624   4.881  0.00  0.00    +0.008 C 
ATOM     14  C   LIG    1        2.327  10.799   5.240  0.00  0.00    +0.032 C 
ATOM     15  C   LIG    1        1.177  10.272   6.096  0.00  0.00    -0.056 C 
ATOM     16  C   LIG    1        0.961  10.715   7.359  0.00  0.00    +0.051 C 
ATOM     17  C   LIG    1       -0.092  10.234   8.252  0.00  0.00    +0.179 C 
ATOM     18  O   LIG    1       -0.261  10.668   9.390  0.00  0.00    -0.288 OA
ATOM     19  C   LIG    1       -0.919   9.183   7.666  0.00  0.00    +0.047 C 
ATOM     20  C   LIG    1       -0.752   8.704   6.418  0.00  0.00    -0.012 C 
ENDROOT
BRANCH   4  21
ATOM     21  O   LIG    1       -0.275   6.938   3.348  0.00  0.00    -0.391 OA
ATOM     22  H   LIG    1       -0.953   7.556   3.632  0.00  0.00    +0.210 HD
ENDBRANCH   4  21
BRANCH   7  23
ATOM     23  O   LIG    1        4.391   4.510   4.234  0.00  0.00    -0.380 OA
ATOM     24  H   LIG    1        4.579   5.188   4.888  0.00  0.00    +0.211 HD
ENDBRANCH   7  23
BRANCH   7  25
ATOM     25  C   LIG    1        3.812   3.996   1.983  0.00  0.00    +0.202 C 
ATOM     26  O   LIG    1        4.133   4.120   0.798  0.00  0.00    -0.291 OA
BRANCH  25  27
ATOM     27  C   LIG    1        3.186   2.681   2.484  0.00  0.00    +0.309 C 
BRANCH  27  28
ATOM     28  O   LIG    1        2.653   1.922   1.403  0.00  0.00    -0.457 OA
BRANCH  28  29
ATOM     29  C   LIG    1        1.921   0.815   1.639  0.00  0.00    +0.307 C 
ATOM     30  O   LIG    1        1.657   0.340   2.745  0.00  0.00    -0.251 OA
BRANCH  29  31
ATOM     31  C   LIG    1        1.383   0.183   0.351  0.00  0.00    +0.121 C 
BRANCH  31  32
ATOM     32  C   LIG    1       -0.159   0.170   0.266  0.00  0.00    +0.016 C 
BRANCH  32  33
ATOM     33  C   LIG    1       -0.799   1.571   0.174  0.00  0.00    +0.035 C 
BRANCH  33  34
ATOM     34  C   LIG    1       -2.317   1.519   0.091  0.00  0.00    -0.047 A 
ATOM     35  C   LIG    1       -3.078   1.495   1.258  0.00  0.00    +0.005 A 
ATOM     36  C   LIG    1       -4.467   1.450   1.184  0.00  0.00    +0.023 A 
ATOM     37  C   LIG    1       -5.131   1.428  -0.055  0.00  0.00    +0.030 A 
ATOM     38  C   LIG    1       -4.342   1.448  -1.218  0.00  0.00    +0.023 A 
ATOM     39  C   LIG    1       -2.952   1.493  -1.149  0.00  0.00    +0.005 A 
BRANCH  37  40
ATOM     40  N   LIG    1       -6.555   1.383  -0.131  0.00  0.00    -0.328 N 
BRANCH  40  41
ATOM     41  C   LIG    1       -7.407   1.785   1.001  0.00  0.00    +0.121 C 
BRANCH  41  42
ATOM     42  C   LIG    1       -7.660   3.304   1.122  0.00  0.00    +0.127 C 
ATOM     43 CL   LIG    1       -6.203   4.216   1.599  0.00  0.00    -0.124 Cl
ENDBRANCH  41  42
ENDBRANCH  40  41
BRANCH  40  44
ATOM     44  C   LIG    1       -7.234   0.926  -1.355  0.00  0.00    +0.121 C 
BRANCH  44  45
ATOM     45  C   LIG    1       -7.970   2.023  -2.151  0.00  0.00    +0.127 C 
ATOM     46 CL   LIG    1       -6.875   3.319  -2.703  0.00  0.00    -0.124 Cl
ENDBRANCH  44  45
ENDBRANCH  40  44
ENDBRANCH  37  40
ENDBRANCH  33  34
ENDBRANCH  32  33
ENDBRANCH  31  32
ENDBRANCH  29  31
ENDBRANCH  28  29
ENDBRANCH  27  28
ENDBRANCH  25  27
ENDBRANCH   7  25
TORSDOF 15
