REMARK  Name = DB12852
REMARK                            x       y       z     vdW  Elec       q    Type
REMARK                         _______ _______ _______ _____ _____    ______ ____
ROOT
ATOM      1  C   LIG    1       -2.549  -1.632   0.010  0.00  0.00    +0.120 C 
ATOM      2  C   LIG    1       -1.848  -0.938  -1.217  0.00  0.00    +0.035 C 
ATOM      3  C   LIG    1       -0.312  -0.819  -1.144  0.00  0.00    +0.006 C 
ATOM      4  C   LIG    1        0.128  -0.121   0.155  0.00  0.00    -0.010 C 
ATOM      5  C   LIG    1       -0.360  -0.992   1.328  0.00  0.00    +0.006 C 
ATOM      6  C   LIG    1       -1.899  -1.117   1.343  0.00  0.00    +0.035 C 
ENDROOT
BRANCH   1   7
ATOM      7  C   LIG    1       -4.098  -1.433  -0.002  0.00  0.00    +0.018 A 
ATOM      8  C   LIG    1       -4.760  -1.010  -1.173  0.00  0.00    +0.047 A 
ATOM      9  C   LIG    1       -6.143  -0.843  -1.213  0.00  0.00    +0.124 A 
ATOM     10  F   LIG    1       -6.742  -0.437  -2.354  0.00  0.00    -0.205 F 
ATOM     11  C   LIG    1       -6.907  -1.100  -0.080  0.00  0.00    +0.041 A 
ATOM     12  C   LIG    1       -6.285  -1.528   1.087  0.00  0.00    +0.041 A 
ATOM     13  C   LIG    1       -4.901  -1.698   1.130  0.00  0.00    +0.129 A 
ATOM     14  F   LIG    1       -4.369  -2.139   2.292  0.00  0.00    -0.205 F 
ENDBRANCH   1   7
BRANCH   1  15
ATOM     15  S   LIG    1       -2.255  -3.539  -0.095  0.00  0.00    +0.007 S 
ATOM     16  O   LIG    1       -0.823  -3.815  -0.252  0.00  0.00    -0.169 OA
ATOM     17  O   LIG    1       -2.989  -4.197   0.993  0.00  0.00    -0.169 OA
BRANCH  15  24
ATOM     18  C   LIG    1       -2.307  -4.105  -2.809  0.00  0.00    +0.028 A 
ATOM     19  C   LIG    1       -2.926  -4.491  -3.994  0.00  0.00    +0.022 A 
ATOM     20  C   LIG    1       -4.279  -4.825  -3.992  0.00  0.00    +0.041 A 
ATOM     21 CL   LIG    1       -5.047  -5.299  -5.463  0.00  0.00    -0.084 Cl
ATOM     22  C   LIG    1       -5.019  -4.780  -2.811  0.00  0.00    +0.022 A 
ATOM     23  C   LIG    1       -4.401  -4.395  -1.624  0.00  0.00    +0.028 A 
ATOM     24  C   LIG    1       -3.047  -4.050  -1.624  0.00  0.00    +0.089 A 
ENDBRANCH  15  24
ENDBRANCH   1  15
BRANCH   4  25
ATOM     25  C   LIG    1        1.656   0.121   0.170  0.00  0.00    +0.014 C 
BRANCH  25  26
ATOM     26  C   LIG    1        2.161   0.937   1.391  0.00  0.00    +0.121 C 
BRANCH  26  27
ATOM     27  C   LIG    1        3.625   1.429   1.282  0.00  0.00    +0.305 C 
ATOM     28  O   LIG    1        3.954   2.360   2.051  0.00  0.00    -0.251 OA
BRANCH  27  29
ATOM     29  O   LIG    1        4.411   0.874   0.479  0.00  0.00    -0.481 OA
ATOM     30  H   LIG    1        4.106   0.180  -0.072  0.00  0.00    +0.295 HD
ENDBRANCH  27  29
ENDBRANCH  26  27
ENDBRANCH  25  26
ENDBRANCH   4  25
TORSDOF 7
