REMARK  Name = DB12021
REMARK                            x       y       z     vdW  Elec       q    Type
REMARK                         _______ _______ _______ _____ _____    ______ ____
ROOT
ATOM      1  C   LIG    1       -3.032  -2.278   0.164  0.00  0.00    +0.016 A 
ATOM      2  C   LIG    1       -2.051  -1.260   0.042  0.00  0.00    +0.163 A 
ATOM      3  N   LIG    1       -0.719  -1.263   0.148  0.00  0.00    -0.213 NA
ATOM      4  C   LIG    1       -0.044  -0.086  -0.009  0.00  0.00    +0.127 A 
ATOM      5  C   LIG    1       -0.712   1.113  -0.304  0.00  0.00    +0.087 A 
ATOM      6  C   LIG    1       -2.106   1.121  -0.423  0.00  0.00    +0.126 A 
ATOM      7  N   LIG    1       -2.751  -0.080  -0.242  0.00  0.00    -0.200 N 
ATOM      8  N   LIG    1       -4.087  -0.304  -0.305  0.00  0.00    -0.171 NA
ATOM      9  C   LIG    1       -4.227  -1.591  -0.066  0.00  0.00    +0.140 A 
ENDROOT
BRANCH   4  10
ATOM     10  N   LIG    1        1.353  -0.121   0.092  0.00  0.00    -0.312 N 
ATOM     11  C   LIG    1        2.064  -1.255   0.761  0.00  0.00    +0.077 C 
ATOM     12  C   LIG    1        3.624  -1.215   0.738  0.00  0.00    +0.022 C 
ATOM     13  C   LIG    1        4.236  -0.693  -0.560  0.00  0.00    +0.003 C 
ATOM     14  C   LIG    1        3.575   0.627  -0.919  0.00  0.00    +0.019 C 
ATOM     15  C   LIG    1        2.064   0.436  -1.081  0.00  0.00    +0.107 C 
BRANCH  11  16
ATOM     16  C   LIG    1        1.589  -1.615   2.201  0.00  0.00    +0.050 C 
BRANCH  16  17
ATOM     17  C   LIG    1        1.879  -3.069   2.617  0.00  0.00    +0.157 C 
BRANCH  17  18
ATOM     18  O   LIG    1        1.347  -3.344   3.896  0.00  0.00    -0.395 OA
ATOM     19  H   LIG    1        1.533  -4.260   4.115  0.00  0.00    +0.209 HD
ENDBRANCH  17  18
ENDBRANCH  16  17
ENDBRANCH  11  16
ENDBRANCH   4  10
BRANCH   1  21
ATOM     20  C   LIG    1       -2.294  -3.975   1.893  0.00  0.00    +0.009 C 
ATOM     21  C   LIG    1       -2.821  -3.746   0.469  0.00  0.00    +0.037 C 
ENDBRANCH   1  21
BRANCH   6  22
ATOM     22  N   LIG    1       -2.846   2.284  -0.707  0.00  0.00    -0.328 N 
ATOM     23  H   LIG    1       -3.852   2.221  -0.780  0.00  0.00    +0.147 HD
BRANCH  22  24
ATOM     24  C   LIG    1       -2.210   3.578  -0.916  0.00  0.00    +0.112 C 
BRANCH  24  25
ATOM     25  C   LIG    1       -3.264   4.633  -1.196  0.00  0.00    +0.018 C 
ATOM     26  C   LIG    1       -3.524   5.044  -2.508  0.00  0.00    +0.113 C 
ATOM     27  N   LIG    1       -4.461   5.988  -2.741  0.00  0.00    -0.181 NA
ATOM     28  C   LIG    1       -5.172   6.571  -1.751  0.00  0.00    +0.108 C 
ATOM     29  C   LIG    1       -4.944   6.197  -0.426  0.00  0.00    +0.019 C 
ATOM     30  C   LIG    1       -3.982   5.223  -0.149  0.00  0.00    +0.008 C 
BRANCH  27  31
ATOM     31  O   LIG    1       -4.681   6.339  -3.931  0.00  0.00    -0.312 OA
ATOM     32  H   LIG    1       -5.373   7.019  -3.945  0.00  0.00    +0.237 HD
ENDBRANCH  27  31
ENDBRANCH  24  25
ENDBRANCH  22  24
ENDBRANCH   6  22
TORSDOF 9
