REMARK  Name = DB12988
REMARK                            x       y       z     vdW  Elec       q    Type
REMARK                         _______ _______ _______ _____ _____    ______ ____
ROOT
ATOM      1  C   LIG    1       -0.608   1.417  -0.396  0.00  0.00    +0.076 C 
ENDROOT
BRANCH   1   4
ATOM      2  N   LIG    1       -4.112   0.967   0.062  0.00  0.00    -0.209 N 
ATOM      3  N   LIG    1       -2.920   0.445  -0.232  0.00  0.00    -0.154 NA
ATOM      4  C   LIG    1       -2.112   1.406  -0.142  0.00  0.00    +0.132 A 
ATOM      5  N   LIG    1       -2.752   2.521   0.239  0.00  0.00    -0.293 N 
ATOM      6  H   LIG    1       -2.324   3.417   0.422  0.00  0.00    +0.172 HD
ATOM      7  C   LIG    1       -4.052   2.261   0.424  0.00  0.00    +0.344 A 
ATOM      8  O   LIG    1       -4.940   3.018   0.817  0.00  0.00    -0.245 OA
BRANCH   2   9
ATOM      9  C   LIG    1       -5.323   0.140   0.106  0.00  0.00    +0.184 C 
BRANCH   9  14
ATOM     10  C   LIG    1       -5.565  -3.375   4.747  0.00  0.00    +0.044 C 
ATOM     11  C   LIG    1       -5.511  -2.465   3.534  0.00  0.00    -0.050 A 
ATOM     12  C   LIG    1       -5.101  -2.970   2.298  0.00  0.00    +0.004 A 
ATOM     13  C   LIG    1       -5.041  -2.129   1.190  0.00  0.00    +0.006 A 
ATOM     14  C   LIG    1       -5.378  -0.780   1.319  0.00  0.00    -0.026 A 
ATOM     15  C   LIG    1       -5.792  -0.277   2.555  0.00  0.00    +0.006 A 
ATOM     16  C   LIG    1       -5.854  -1.118   3.662  0.00  0.00    +0.004 A 
ENDBRANCH   9  14
ENDBRANCH   2   9
ENDBRANCH   1   4
BRANCH   1  17
ATOM     17  C   LIG    1        0.041   0.029  -0.204  0.00  0.00    +0.012 C 
BRANCH  17  18
ATOM     18  C   LIG    1        1.567   0.045  -0.406  0.00  0.00    +0.035 C 
BRANCH  18  19
ATOM     19  C   LIG    1        2.190  -1.331  -0.216  0.00  0.00    -0.047 A 
ATOM     20  C   LIG    1        2.442  -1.809   1.071  0.00  0.00    +0.007 A 
ATOM     21  C   LIG    1        2.992  -3.075   1.251  0.00  0.00    +0.046 A 
ATOM     22  C   LIG    1        3.297  -3.882   0.143  0.00  0.00    +0.122 A 
ATOM     23  C   LIG    1        3.052  -3.384  -1.139  0.00  0.00    +0.046 A 
ATOM     24  C   LIG    1        2.498  -2.121  -1.323  0.00  0.00    +0.007 A 
BRANCH  22  25
ATOM     25  O   LIG    1        3.849  -5.152   0.181  0.00  0.00    -0.475 OA
BRANCH  25  26
ATOM     26  C   LIG    1        3.969  -5.994   1.353  0.00  0.00    +0.200 C 
ATOM     27  C   LIG    1        2.610  -6.163   2.100  0.00  0.00    +0.067 C 
ATOM     28  C   LIG    1        5.094  -5.444   2.281  0.00  0.00    +0.067 C 
BRANCH  26  29
ATOM     29  C   LIG    1        4.414  -7.417   0.840  0.00  0.00    +0.348 C 
ATOM     30  O   LIG    1        4.682  -8.300   1.691  0.00  0.00    -0.247 OA
BRANCH  29  31
ATOM     31  O   LIG    1        4.477  -7.640  -0.394  0.00  0.00    -0.478 OA
ATOM     32  H   LIG    1        4.271  -6.960  -1.004  0.00  0.00    +0.295 HD
ENDBRANCH  29  31
ENDBRANCH  26  29
ENDBRANCH  25  26
ENDBRANCH  22  25
ENDBRANCH  18  19
ENDBRANCH  17  18
ENDBRANCH   1  17
TORSDOF 10
