REMARK  Name = DB12623
REMARK                            x       y       z     vdW  Elec       q    Type
REMARK                         _______ _______ _______ _____ _____    ______ ____
ROOT
ATOM      1  N   LIG    1        0.870  -1.029   0.257  0.00  0.00    -0.168 NA
ENDROOT
BRANCH   1   2
ATOM      2  S   LIG    1        2.120  -1.271   1.495  0.00  0.00    +0.063 S 
ATOM      3  O   LIG    1        2.499  -2.688   1.472  0.00  0.00    -0.153 OA
ATOM      4  O   LIG    1        1.677  -0.640   2.744  0.00  0.00    -0.153 OA
BRANCH   2   5
ATOM      5  C   LIG    1        3.543  -0.352   0.913  0.00  0.00    +0.123 A 
ATOM      6  C   LIG    1        4.424  -0.915  -0.017  0.00  0.00    +0.139 A 
ATOM      7  N   LIG    1        5.503  -0.254  -0.508  0.00  0.00    -0.261 NA
ATOM      8  C   LIG    1        5.727   1.009  -0.063  0.00  0.00    +0.111 A 
ATOM      9  C   LIG    1        4.903   1.644   0.867  0.00  0.00    +0.022 A 
ATOM     10  C   LIG    1        3.796   0.950   1.360  0.00  0.00    +0.031 A 
ENDBRANCH   2   5
ENDBRANCH   1   2
BRANCH   1  11
ATOM     11  C   LIG    1       -0.421  -0.364   0.599  0.00  0.00    +0.145 C 
BRANCH  11  16
ATOM     12  C   LIG    1        0.317   3.360   0.231  0.00  0.00    +0.004 A 
ATOM     13  C   LIG    1       -0.513   3.705  -0.834  0.00  0.00    +0.045 A 
ATOM     14  C   LIG    1       -1.344   2.755  -1.431  0.00  0.00    +0.122 A 
ATOM     15  C   LIG    1       -1.338   1.440  -0.930  0.00  0.00    +0.050 A 
ATOM     16  C   LIG    1       -0.485   1.080   0.119  0.00  0.00    -0.028 A 
ATOM     17  C   LIG    1        0.333   2.050   0.704  0.00  0.00    +0.005 A 
BRANCH  14  18
ATOM     18  O   LIG    1       -2.106   3.186  -2.498  0.00  0.00    -0.481 OA
BRANCH  18  19
ATOM     19  C   LIG    1       -2.936   2.253  -3.198  0.00  0.00    +0.349 C 
BRANCH  19  20
ATOM     20  C   LIG    1       -3.506   2.905  -4.478  0.00  0.00    +0.343 C 
ATOM     21  O   LIG    1       -4.254   2.182  -5.174  0.00  0.00    -0.247 OA
BRANCH  20  22
ATOM     22  O   LIG    1       -3.205   4.087  -4.769  0.00  0.00    -0.478 OA
ATOM     23  H   LIG    1       -2.638   4.577  -4.206  0.00  0.00    +0.295 HD
ENDBRANCH  20  22
ENDBRANCH  19  20
ENDBRANCH  18  19
ENDBRANCH  14  18
ENDBRANCH  11  16
ENDBRANCH   1  11
BRANCH   1  24
ATOM     24  C   LIG    1        1.074  -1.609  -1.101  0.00  0.00    +0.145 C 
BRANCH  24  25
ATOM     25  C   LIG    1        0.980  -0.594  -2.234  0.00  0.00    -0.032 A 
ATOM     26  C   LIG    1        0.092  -0.828  -3.285  0.00  0.00    +0.007 A 
ATOM     27  C   LIG    1       -0.065   0.121  -4.289  0.00  0.00    +0.028 A 
ATOM     28  C   LIG    1        0.662   1.318  -4.244  0.00  0.00    +0.065 A 
ATOM     29  C   LIG    1        1.590   1.527  -3.216  0.00  0.00    +0.028 A 
ATOM     30  C   LIG    1        1.755   0.568  -2.221  0.00  0.00    +0.007 A 
BRANCH  28  31
ATOM     31  N   LIG    1        0.443   2.331  -5.209  0.00  0.00    -0.240 N 
ATOM     32  N   LIG    1        0.009   2.033  -6.450  0.00  0.00    -0.175 NA
ATOM     33  C   LIG    1       -0.115   3.186  -7.067  0.00  0.00    +0.135 A 
ATOM     34  C   LIG    1        0.226   4.265  -6.251  0.00  0.00    +0.041 A 
ATOM     35  C   LIG    1        0.580   3.692  -5.045  0.00  0.00    +0.114 A 
ENDBRANCH  28  31
ENDBRANCH  24  25
ENDBRANCH   1  24
TORSDOF 11
