REMARK  Name = DB12475
REMARK                            x       y       z     vdW  Elec       q    Type
REMARK                         _______ _______ _______ _____ _____    ______ ____
ROOT
ATOM      1  C   LIG    1       -2.816   0.019  -0.002  0.00  0.00    +0.059 A 
ATOM      2  C   LIG    1       -2.101   1.218  -0.116  0.00  0.00    +0.015 A 
ATOM      3  C   LIG    1       -0.709   1.215  -0.114  0.00  0.00    +0.009 A 
ATOM      4  C   LIG    1        0.004   0.017   0.004  0.00  0.00    -0.018 A 
ATOM      5  C   LIG    1       -0.711  -1.180   0.120  0.00  0.00    +0.009 A 
ATOM      6  C   LIG    1       -2.103  -1.183   0.117  0.00  0.00    +0.015 A 
ENDROOT
BRANCH   4   7
ATOM      7  C   LIG    1        1.496   0.016   0.005  0.00  0.00    -0.018 A 
ATOM      8  C   LIG    1        2.209   0.995   0.706  0.00  0.00    +0.009 A 
ATOM      9  C   LIG    1        3.601   0.997   0.710  0.00  0.00    +0.015 A 
ATOM     10  C   LIG    1        4.316   0.015   0.011  0.00  0.00    +0.059 A 
ATOM     11  C   LIG    1        3.603  -0.966  -0.693  0.00  0.00    +0.015 A 
ATOM     12  C   LIG    1        2.211  -0.962  -0.694  0.00  0.00    +0.009 A 
BRANCH  10  13
ATOM     13  C   LIG    1        5.817   0.045   0.034  0.00  0.00    +0.339 C 
ATOM     14  O   LIG    1        6.469   0.931   0.594  0.00  0.00    -0.245 OA
BRANCH  13  15
ATOM     15  O   LIG    1        6.384  -1.010  -0.606  0.00  0.00    -0.464 OA
ATOM     16  C   LIG    1        7.796  -1.152  -0.673  0.00  0.00    +0.280 C 
ENDBRANCH  13  15
ENDBRANCH  10  13
ENDBRANCH   4   7
BRANCH   1  17
ATOM     17  C   LIG    1       -4.317   0.056  -0.007  0.00  0.00    +0.339 C 
ATOM     18  O   LIG    1       -4.969   1.103  -0.049  0.00  0.00    -0.245 OA
BRANCH  17  20
ATOM     19  C   LIG    1       -6.296  -1.335   0.007  0.00  0.00    +0.280 C 
ATOM     20  O   LIG    1       -4.884  -1.178   0.020  0.00  0.00    -0.464 OA
ENDBRANCH  17  20
ENDBRANCH   1  17
TORSDOF 5
