REMARK  Name = DB12792
REMARK                            x       y       z     vdW  Elec       q    Type
REMARK                         _______ _______ _______ _____ _____    ______ ____
ROOT
ATOM      1  C   LIG    1        1.468   0.078  -0.018  0.00  0.00    +0.041 A 
ATOM      2  C   LIG    1        2.233   1.182   0.402  0.00  0.00    +0.024 A 
ATOM      3  C   LIG    1        3.623   1.115   0.429  0.00  0.00    +0.002 A 
ATOM      4  C   LIG    1        4.271  -0.053   0.046  0.00  0.00    +0.001 A 
ATOM      5  C   LIG    1        3.527  -1.154  -0.368  0.00  0.00    +0.010 A 
ATOM      6  C   LIG    1        2.126  -1.111  -0.414  0.00  0.00    +0.003 A 
ENDROOT
BRANCH   6   7
ATOM      7  C   LIG    1        1.397  -2.325  -0.893  0.00  0.00    -0.016 A 
ATOM      8  C   LIG    1        0.481  -2.239  -1.949  0.00  0.00    +0.010 A 
ATOM      9  C   LIG    1       -0.201  -3.369  -2.392  0.00  0.00    +0.020 A 
ATOM     10  C   LIG    1        0.037  -4.599  -1.784  0.00  0.00    +0.041 A 
ATOM     11 CL   LIG    1       -0.808  -6.002  -2.329  0.00  0.00    -0.084 Cl
ATOM     12  C   LIG    1        0.955  -4.705  -0.741  0.00  0.00    +0.020 A 
ATOM     13  C   LIG    1        1.634  -3.571  -0.301  0.00  0.00    +0.010 A 
ENDBRANCH   6   7
BRANCH   1  16
ATOM     14  O   LIG    1       -0.515   2.316   0.125  0.00  0.00    -0.270 OA
ATOM     15  C   LIG    1       -0.808   1.122   0.057  0.00  0.00    +0.251 C 
ATOM     16  N   LIG    1        0.055   0.086  -0.017  0.00  0.00    -0.281 N 
ATOM     17  H   LIG    1       -0.361  -0.826  -0.136  0.00  0.00    +0.155 HD
BRANCH  15  18
ATOM     18  C   LIG    1       -2.249   0.705   0.044  0.00  0.00    +0.074 A 
ATOM     19  C   LIG    1       -2.977   0.717   1.242  0.00  0.00    +0.017 A 
ATOM     20  C   LIG    1       -4.319   0.338   1.244  0.00  0.00    +0.021 A 
ATOM     21  C   LIG    1       -4.904  -0.039   0.036  0.00  0.00    +0.112 A 
ATOM     22  N   LIG    1       -4.225  -0.049  -1.138  0.00  0.00    -0.243 NA
ATOM     23  C   LIG    1       -2.918   0.322  -1.137  0.00  0.00    +0.141 A 
ATOM     24 CL   LIG    1       -2.119   0.309  -2.674  0.00  0.00    -0.061 Cl
ENDBRANCH  15  18
ENDBRANCH   1  16
TORSDOF 3
