REMARK  Name = DB12019
REMARK                            x       y       z     vdW  Elec       q    Type
REMARK                         _______ _______ _______ _____ _____    ______ ____
ROOT
ATOM      1  C   LIG    1       -0.879  -1.909  -1.167  0.00  0.00    +0.043 C 
ATOM      2  C   LIG    1       -1.767  -0.858  -0.486  0.00  0.00    -0.030 C 
ATOM      3  C   LIG    1       -1.083  -0.094   0.667  0.00  0.00    +0.205 C 
ATOM      4  C   LIG    1       -1.603   1.372   0.831  0.00  0.00    +0.088 C 
ATOM      5  C   LIG    1       -2.943   1.729   0.113  0.00  0.00    +0.116 C 
ATOM      6  C   LIG    1       -3.866   0.470  -0.068  0.00  0.00    +0.021 C 
ATOM      7  C   LIG    1       -4.181  -0.212   1.302  0.00  0.00    +0.018 C 
ATOM      8  C   LIG    1       -5.257   0.871  -0.647  0.00  0.00    +0.018 C 
ATOM      9  C   LIG    1       -2.658   2.495  -1.278  0.00  0.00    +0.217 C 
ATOM     10  C   LIG    1       -1.711   1.839  -2.407  0.00  0.00    +0.090 C 
ATOM     11  C   LIG    1       -0.362   2.622  -2.730  0.00  0.00    +0.169 C 
ATOM     12  C   LIG    1       -0.488   3.920  -3.565  0.00  0.00    +0.211 C 
ATOM     13  O   LIG    1        0.474   3.387  -4.576  0.00  0.00    -0.368 OA
ATOM     14  C   LIG    1        0.527   2.071  -3.866  0.00  0.00    +0.165 C 
ATOM     15  C   LIG    1       -0.088   0.979  -4.739  0.00  0.00    +0.036 C 
ATOM     16  C   LIG    1       -1.585   1.214  -4.972  0.00  0.00    +0.012 C 
ATOM     17  C   LIG    1       -2.476   1.187  -3.677  0.00  0.00    +0.007 C 
ATOM     18  C   LIG    1       -3.697   2.070  -4.080  0.00  0.00    +0.014 C 
ATOM     19  C   LIG    1       -2.810  -0.368  -3.511  0.00  0.00    +0.161 C 
ATOM     20  O   LIG    1       -3.737  -0.711  -4.540  0.00  0.00    -0.347 OA
ATOM     21  C   LIG    1       -4.904  -1.229  -3.986  0.00  0.00    +0.235 C 
ATOM     22  O   LIG    1       -4.853  -0.881  -2.643  0.00  0.00    -0.343 OA
ATOM     23  C   LIG    1       -3.501  -1.024  -2.288  0.00  0.00    +0.177 C 
ATOM     24  C   LIG    1       -3.027  -0.528  -0.912  0.00  0.00    -0.028 C 
ENDROOT
BRANCH   5  25
ATOM     25  O   LIG    1       -3.586   2.728   0.903  0.00  0.00    -0.384 OA
ATOM     26  H   LIG    1       -3.733   2.374   1.783  0.00  0.00    +0.210 HD
ENDBRANCH   5  25
BRANCH   3  27
ATOM     27  O   LIG    1        0.336  -0.056   0.473  0.00  0.00    -0.455 OA
BRANCH  27  28
ATOM     28  C   LIG    1        1.211  -0.132   1.508  0.00  0.00    +0.339 C 
ATOM     29  O   LIG    1        0.898  -0.183   2.699  0.00  0.00    -0.248 OA
BRANCH  28  30
ATOM     30  C   LIG    1        2.684  -0.130   1.038  0.00  0.00    +0.249 C 
BRANCH  30  31
ATOM     31  O   LIG    1        2.833  -1.186   0.098  0.00  0.00    -0.379 OA
ATOM     32  H   LIG    1        2.797  -2.022   0.570  0.00  0.00    +0.211 HD
ENDBRANCH  30  31
BRANCH  30  33
ATOM     33  C   LIG    1        3.765  -0.224   2.166  0.00  0.00    +0.167 C 
BRANCH  33  34
ATOM     34  C   LIG    1        3.708   0.964   3.142  0.00  0.00    +0.100 A 
ATOM     35  N   LIG    1        3.961   2.191   2.607  0.00  0.00    -0.255 NA
ATOM     36  C   LIG    1        3.932   3.269   3.432  0.00  0.00    +0.111 A 
ATOM     37  C   LIG    1        3.659   3.171   4.797  0.00  0.00    +0.022 A 
ATOM     38  C   LIG    1        3.406   1.908   5.336  0.00  0.00    +0.042 A 
ATOM     39  C   LIG    1        3.430   0.786   4.505  0.00  0.00    +0.147 A 
ATOM     40  F   LIG    1        3.188  -0.441   5.019  0.00  0.00    -0.204 F 
ENDBRANCH  33  34
BRANCH  33  41
ATOM     41  N   LIG    1        5.109  -0.409   1.596  0.00  0.00    -0.270 N 
ATOM     42  H   LIG    1        5.218  -0.306   0.598  0.00  0.00    +0.153 HD
ATOM     43  C   LIG    1        6.231  -0.720   2.352  0.00  0.00    +0.401 C 
ATOM     44  O   LIG    1        6.256  -0.896   3.571  0.00  0.00    -0.226 OA
BRANCH  43  45
ATOM     45  O   LIG    1        7.304  -0.804   1.522  0.00  0.00    -0.445 OA
BRANCH  45  46
ATOM     46  C   LIG    1        8.652  -1.105   1.929  0.00  0.00    +0.107 C 
ATOM     47  C   LIG    1        9.464  -1.074   0.618  0.00  0.00    +0.055 C 
ATOM     48  C   LIG    1        9.203  -0.028   2.897  0.00  0.00    +0.055 C 
ATOM     49  C   LIG    1        8.749  -2.517   2.557  0.00  0.00    +0.055 C 
ENDBRANCH  45  46
ENDBRANCH  43  45
ENDBRANCH  33  41
ENDBRANCH  30  33
ENDBRANCH  28  30
ENDBRANCH  27  28
ENDBRANCH   3  27
BRANCH   9  50
ATOM     50  O   LIG    1       -2.160   3.818  -1.000  0.00  0.00    -0.454 OA
BRANCH  50  51
ATOM     51  C   LIG    1       -2.784   4.962  -1.402  0.00  0.00    +0.340 C 
ATOM     52  O   LIG    1       -3.840   4.981  -2.039  0.00  0.00    -0.245 OA
BRANCH  51  53
ATOM     53  C   LIG    1       -2.010   6.196  -1.046  0.00  0.00    +0.059 A 
ATOM     54  C   LIG    1       -2.397   7.430  -1.589  0.00  0.00    +0.015 A 
ATOM     55  C   LIG    1       -1.687   8.588  -1.284  0.00  0.00    +0.001 A 
ATOM     56  C   LIG    1       -0.587   8.522  -0.433  0.00  0.00    +0.000 A 
ATOM     57  C   LIG    1       -0.193   7.307   0.119  0.00  0.00    +0.001 A 
ATOM     58  C   LIG    1       -0.902   6.149  -0.184  0.00  0.00    +0.015 A 
ENDBRANCH  51  53
ENDBRANCH  50  51
ENDBRANCH   9  50
BRANCH  11  59
ATOM     59  O   LIG    1        0.367   2.775  -1.487  0.00  0.00    -0.453 OA
BRANCH  59  60
ATOM     60  C   LIG    1        1.547   3.439  -1.307  0.00  0.00    +0.305 C 
ATOM     61  C   LIG    1        1.970   3.483   0.156  0.00  0.00    +0.136 C 
ATOM     62  O   LIG    1        2.235   3.975  -2.175  0.00  0.00    -0.251 OA
ENDBRANCH  59  60
ENDBRANCH  11  59
BRANCH  21  63
ATOM     63  C   LIG    1       -6.146  -0.617  -4.628  0.00  0.00    -0.017 C 
BRANCH  63  64
ATOM     64  N   LIG    1       -6.298  -0.908  -6.141  0.00  0.00    +0.379 N 
ATOM     65  H   LIG    1       -5.990  -1.859  -6.292  0.00  0.00    -0.082 HD
ATOM     66  C   LIG    1       -5.434   0.005  -7.037  0.00  0.00    -0.096 C 
ATOM     67  C   LIG    1       -7.774  -0.845  -6.580  0.00  0.00    -0.096 C 
ENDBRANCH  63  64
ENDBRANCH  21  63
TORSDOF 17
