REMARK  Name = DB12938
REMARK                            x       y       z     vdW  Elec       q    Type
REMARK                         _______ _______ _______ _____ _____    ______ ____
ROOT
ATOM      1  C   LIG    1        2.174   0.085   1.355  0.00  0.00    +0.099 A 
ATOM      2  C   LIG    1        3.569   0.211   1.307  0.00  0.00    +0.040 A 
ATOM      3  C   LIG    1        4.289  -0.052   0.139  0.00  0.00    +0.057 A 
ATOM      4  C   LIG    1        3.596  -0.445  -1.007  0.00  0.00    +0.013 A 
ATOM      5  C   LIG    1        2.210  -0.564  -0.984  0.00  0.00    +0.014 A 
ATOM      6  C   LIG    1        1.477  -0.308   0.185  0.00  0.00    +0.047 A 
ENDROOT
BRANCH   1   7
ATOM      7  S   LIG    1        1.388   0.414   2.956  0.00  0.00    -0.005 S 
ATOM      8  C   LIG    1        0.873   2.227   2.839  0.00  0.00    +0.200 C 
ATOM      9  O   LIG    1        2.427   0.314   3.988  0.00  0.00    -0.170 OA
ATOM     10  O   LIG    1        0.186  -0.419   3.070  0.00  0.00    -0.170 OA
ENDBRANCH   1   7
BRANCH   3  11
ATOM     11  C   LIG    1        5.810   0.090   0.141  0.00  0.00    +0.417 C 
ATOM     12  F   LIG    1        6.136   1.363   0.368  0.00  0.00    -0.166 F 
ATOM     13  F   LIG    1        6.332  -0.663   1.109  0.00  0.00    -0.166 F 
ATOM     14  F   LIG    1        6.359  -0.282  -1.017  0.00  0.00    -0.166 F 
ENDBRANCH   3  11
BRANCH   6  15
ATOM     15  C   LIG    1       -0.015  -0.392   0.083  0.00  0.00    +0.200 C 
ATOM     16  O   LIG    1       -0.735   0.524   0.478  0.00  0.00    -0.286 OA
BRANCH  15  17
ATOM     17  C   LIG    1       -0.615  -1.646  -0.382  0.00  0.00    +0.084 A 
ATOM     18  C   LIG    1        0.001  -2.882  -0.607  0.00  0.00    +0.168 A 
ATOM     19  N   LIG    1       -0.826  -3.814  -1.014  0.00  0.00    -0.086 NA
ATOM     20  O   LIG    1       -2.074  -3.198  -1.063  0.00  0.00    -0.359 OA
ATOM     21  C   LIG    1       -1.946  -1.900  -0.683  0.00  0.00    +0.151 A 
BRANCH  21  22
ATOM     22  C   LIG    1       -3.220  -1.080  -0.679  0.00  0.00    +0.059 C 
ATOM     23  C   LIG    1       -4.108  -1.050  -1.897  0.00  0.00    +0.012 C 
ATOM     24  C   LIG    1       -3.320   0.183  -1.497  0.00  0.00    +0.012 C 
ENDBRANCH  21  22
ENDBRANCH  15  17
ENDBRANCH   6  15
TORSDOF 5
