REMARK  Name = DB12514
REMARK                            x       y       z     vdW  Elec       q    Type
REMARK                         _______ _______ _______ _____ _____    ______ ____
ROOT
ATOM      1  C   UNK A  1        1.811  -1.053   0.339  0.00  0.00    +0.183 C 
ENDROOT
BRANCH   1   2
ATOM      2  N   UNK A  1        2.478  -0.208  -0.676  0.00  0.00    -0.286 N 
ATOM      3  H   UNK A  1        2.453  -0.561  -1.622  0.00  0.00    +0.151 HD
ATOM      4  C   UNK A  0        3.054   0.983  -0.435  0.00  0.00    +0.301 C 
ATOM      5  N   UNK A  1        3.168   1.721  -1.554  0.00  0.00    -0.286 N 
ATOM      6  H   UNK A  1        3.232   1.243  -2.441  0.00  0.00    +0.151 HD
ATOM      7  O   UNK A  0        3.336   1.399   0.690  0.00  0.00    -0.253 OA
BRANCH   5   8
ATOM      8  C   UNK A  1        3.298   3.190  -1.625  0.00  0.00    +0.183 C 
BRANCH   8   9
ATOM      9  C   UNK A  1        2.028   3.911  -1.021  0.00  0.00    +0.325 C 
ATOM     10  O   UNK A  1        0.957   3.792  -1.663  0.00  0.00    -0.249 OA
BRANCH   9  11
ATOM     11  O   UNK A  1        2.228   4.495   0.070  0.00  0.00    -0.479 OA
ATOM     12  H   UNK A  1        3.087   4.508   0.444  0.00  0.00    +0.295 HD
ENDBRANCH   9  11
ENDBRANCH   8   9
BRANCH   8  13
ATOM     13  C   UNK A  1        3.508   3.620  -3.107  0.00  0.00    +0.045 C 
BRANCH  13  14
ATOM     14  C   UNK A  1        4.844   3.126  -3.715  0.00  0.00    +0.123 C 
BRANCH  14  15
ATOM     15  C   UNK A  1        5.128   3.569  -5.163  0.00  0.00    +0.305 C 
ATOM     16  O   UNK A  1        6.214   3.187  -5.654  0.00  0.00    -0.251 OA
BRANCH  15  17
ATOM     17  O   UNK A  1        4.286   4.270  -5.769  0.00  0.00    -0.481 OA
ATOM     18  H   UNK A  1        3.491   4.522  -5.341  0.00  0.00    +0.295 HD
ENDBRANCH  15  17
ENDBRANCH  14  15
ENDBRANCH  13  14
ENDBRANCH   8  13
ENDBRANCH   5   8
ENDBRANCH   1   2
BRANCH   1  19
ATOM     19  C   UNK A  1        2.072  -2.593   0.067  0.00  0.00    +0.325 C 
ATOM     20  O   UNK A  1        3.228  -2.889  -0.321  0.00  0.00    -0.249 OA
BRANCH  19  21
ATOM     21  O   UNK A  1        1.142  -3.381   0.363  0.00  0.00    -0.479 OA
ATOM     22  H   UNK A  1        0.314  -3.044   0.643  0.00  0.00    +0.295 HD
ENDBRANCH  19  21
ENDBRANCH   1  19
BRANCH   1  23
ATOM     23  C   UNK A  1        0.287  -0.693   0.456  0.00  0.00    +0.034 C 
BRANCH  23  24
ATOM     24  C   UNK A  1       -0.027   0.814   0.535  0.00  0.00    +0.001 C 
BRANCH  24  25
ATOM     25  C   UNK A  1       -1.486   1.140   0.885  0.00  0.00    -0.019 C 
BRANCH  25  26
ATOM     26  C   UNK A  1       -1.838   2.620   0.655  0.00  0.00    -0.082 C 
BRANCH  26  27
ATOM     27  N   UNK A  1       -0.983   3.483   1.468  0.00  0.00    +0.382 N 
ATOM     28  H   UNK A  1       -1.105   3.282   2.450  0.00  0.00    -0.085 HD
ATOM     29  H   UNK A  1       -0.020   3.264   1.251  0.00  0.00    -0.085 HD
BRANCH  27  30
ATOM     30  C   UNK A  1       -1.183   4.911   1.227  0.00  0.00    -0.047 C 
BRANCH  30  32
ATOM     31  C   UNK A  1       -2.811   5.633   3.025  0.00  0.00    +0.003 A 
ATOM     32  C   UNK A  1       -2.556   5.405   1.670  0.00  0.00    -0.064 A 
ATOM     33  C   UNK A  1       -3.584   5.544   0.733  0.00  0.00    +0.003 A 
ATOM     34  C   UNK A  1       -4.853   5.942   1.145  0.00  0.00    +0.014 A 
ATOM     35  C   UNK A  1       -5.095   6.187   2.496  0.00  0.00    +0.013 A 
ATOM     36  I   UNK A  1       -7.002   6.781   3.116  0.00  0.00    -0.044 I 
ATOM     37  C   UNK A  1       -4.079   6.032   3.437  0.00  0.00    +0.014 A 
ENDBRANCH  30  32
ENDBRANCH  27  30
ENDBRANCH  26  27
ENDBRANCH  25  26
ENDBRANCH  24  25
ENDBRANCH  23  24
ENDBRANCH   1  23
TORSDOF 17
