REMARK  Name = DB12087
REMARK                            x       y       z     vdW  Elec       q    Type
REMARK                         _______ _______ _______ _____ _____    ______ ____
ROOT
ATOM      1  C   LIG    1        3.554  -0.001  -1.219  0.00  0.00    +0.162 A 
ATOM      2  C   LIG    1        4.266  -0.010  -0.011  0.00  0.00    +0.158 A 
ATOM      3  C   LIG    1        3.592  -0.003   1.211  0.00  0.00    +0.049 A 
ATOM      4  C   LIG    1        2.200   0.013   1.243  0.00  0.00    +0.009 A 
ATOM      5  C   LIG    1        1.471   0.020   0.052  0.00  0.00    -0.019 A 
ATOM      6  C   LIG    1        2.148   0.016  -1.171  0.00  0.00    +0.055 A 
ENDROOT
BRANCH   1   8
ATOM      7  C   LIG    1        3.601  -0.001  -3.643  0.00  0.00    +0.277 C 
ATOM      8  O   LIG    1        4.285  -0.008  -2.395  0.00  0.00    -0.491 OA
ENDBRANCH   1   8
BRANCH   2   9
ATOM      9  O   LIG    1        5.638  -0.028  -0.009  0.00  0.00    -0.503 OA
ATOM     10  H   LIG    1        6.011  -0.033   0.875  0.00  0.00    +0.292 HD
ENDBRANCH   2   9
BRANCH   5  11
ATOM     11  C   LIG    1       -0.049   0.034   0.086  0.00  0.00    +0.191 C 
BRANCH  11  12
ATOM     12  O   LIG    1       -0.578   1.342   0.039  0.00  0.00    -0.390 OA
ATOM     13  H   LIG    1       -1.536   1.286   0.064  0.00  0.00    +0.210 HD
ENDBRANCH  11  12
ENDBRANCH   5  11
TORSDOF 4
