REMARK  Name = DB12556
REMARK                            x       y       z     vdW  Elec       q    Type
REMARK                         _______ _______ _______ _____ _____    ______ ____
ROOT
ATOM      1  C   LIG    1        1.928   0.384   1.285  0.00  0.00    +0.073 C 
ATOM      2  C   LIG    1        2.468   0.225  -0.186  0.00  0.00    +0.022 C 
ATOM      3  C   LIG    1        1.842  -0.969  -0.939  0.00  0.00    +0.045 C 
ATOM      4  C   LIG    1        2.052  -2.288  -0.152  0.00  0.00    +0.174 C 
ATOM      5  C   LIG    1        1.642  -2.208   1.342  0.00  0.00    +0.045 C 
ATOM      6  C   LIG    1        2.255  -0.960   2.025  0.00  0.00    +0.022 C 
ENDROOT
BRANCH   1   7
ATOM      7  C   LIG    1        2.737   1.505   2.053  0.00  0.00    +0.311 C 
ATOM      8  O   LIG    1        3.696   2.094   1.497  0.00  0.00    -0.250 OA
BRANCH   7   9
ATOM      9  O   LIG    1        2.387   1.774   3.227  0.00  0.00    -0.480 OA
ATOM     10  H   LIG    1        1.667   1.318   3.618  0.00  0.00    +0.295 HD
ENDBRANCH   7   9
ENDBRANCH   1   7
BRANCH   1  11
ATOM     11  C   LIG    1        0.381   0.675   1.315  0.00  0.00    +0.073 C 
BRANCH  11  14
ATOM     12  C   LIG    1       -0.569   4.299   0.571  0.00  0.00    +0.005 A 
ATOM     13  C   LIG    1       -0.156   3.173   1.282  0.00  0.00    +0.023 A 
ATOM     14  C   LIG    1       -0.073   1.952   0.608  0.00  0.00    +0.044 A 
ATOM     15  N   LIG    1       -0.403   1.822  -0.705  0.00  0.00    -0.237 NA
ATOM     16  C   LIG    1       -0.812   2.923  -1.394  0.00  0.00    +0.125 A 
ATOM     17  C   LIG    1       -0.897   4.178  -0.781  0.00  0.00    +0.044 A 
BRANCH  16  18
ATOM     18  N   LIG    1       -1.161   2.838  -2.756  0.00  0.00    -0.279 N 
ATOM     19  H   LIG    1       -1.390   3.747  -3.129  0.00  0.00    +0.155 HD
BRANCH  18  20
ATOM     20  C   LIG    1       -1.386   1.746  -3.572  0.00  0.00    +0.163 A 
ATOM     21  N   LIG    1       -1.680   1.879  -4.843  0.00  0.00    -0.233 NA
ATOM     22  C   LIG    1       -1.893   0.719  -5.436  0.00  0.00    +0.120 A 
ATOM     23  C   LIG    1       -1.780  -0.414  -4.638  0.00  0.00    +0.068 A 
ATOM     24  S   LIG    1       -1.358   0.092  -3.027  0.00  0.00    -0.061 S 
ENDBRANCH  18  20
ENDBRANCH  16  18
ENDBRANCH  11  14
ENDBRANCH   1  11
BRANCH   4  25
ATOM     25  O   LIG    1        1.620  -3.471  -0.835  0.00  0.00    -0.486 OA
BRANCH  25  26
ATOM     26  C   LIG    1        0.299  -3.731  -1.161  0.00  0.00    +0.157 A 
ATOM     27  C   LIG    1       -0.799  -2.929  -0.809  0.00  0.00    +0.049 A 
ATOM     28  C   LIG    1       -2.092  -3.279  -1.195  0.00  0.00    +0.005 A 
ATOM     29  C   LIG    1       -2.310  -4.435  -1.940  0.00  0.00    +0.023 A 
ATOM     30  C   LIG    1       -1.233  -5.245  -2.296  0.00  0.00    +0.080 A 
ATOM     31 CL   LIG    1       -1.516  -6.678  -3.220  0.00  0.00    -0.080 Cl
ATOM     32  C   LIG    1        0.064  -4.894  -1.907  0.00  0.00    +0.183 A 
ATOM     33  F   LIG    1        1.106  -5.686  -2.258  0.00  0.00    -0.200 F 
ENDBRANCH  25  26
ENDBRANCH   4  25
TORSDOF 8
