REMARK  Name = DB12630
REMARK                            x       y       z     vdW  Elec       q    Type
REMARK                         _______ _______ _______ _____ _____    ______ ____
ROOT
ATOM      1  O   LIG    1        2.185  -1.171   0.016  0.00  0.00    -0.461 OA
ENDROOT
BRANCH   1   2
ATOM      2  C   LIG    1        3.524  -1.386  -0.029  0.00  0.00    +0.349 C 
ATOM      3  O   LIG    1        4.364  -0.479  -0.047  0.00  0.00    -0.244 OA
BRANCH   2   4
ATOM      4  C   LIG    1        3.878  -2.814  -0.056  0.00  0.00    +0.128 C 
ATOM      5  C   LIG    1        5.168  -3.202  -0.092  0.00  0.00    +0.036 C 
BRANCH   4   6
ATOM      6  C   LIG    1        2.825  -3.781  -0.043  0.00  0.00    +0.106 C 
ATOM      7  N   LIG    1        1.986  -4.578  -0.037  0.00  0.00    -0.191 NA
ENDBRANCH   4   6
ENDBRANCH   2   4
ENDBRANCH   1   2
BRANCH   1   8
ATOM      8  C   LIG    1        1.654   0.148   0.041  0.00  0.00    +0.233 C 
BRANCH   8   9
ATOM      9  C   LIG    1        0.118   0.079   0.108  0.00  0.00    +0.044 C 
BRANCH   9  11
ATOM     10  C   LIG    1       -0.225   2.343   1.276  0.00  0.00    +0.007 C 
ATOM     11  C   LIG    1       -0.581   1.457   0.066  0.00  0.00    -0.014 C 
ATOM     12  C   LIG    1       -2.107   1.298  -0.063  0.00  0.00    +0.007 C 
ENDBRANCH   9  11
ENDBRANCH   8   9
ENDBRANCH   1   8
TORSDOF 6
