REMARK  Name = DB12253
REMARK                            x       y       z     vdW  Elec       q    Type
REMARK                         _______ _______ _______ _____ _____    ______ ____
ROOT
ATOM      1  C   LIG    1       -0.748   1.257  -0.005  0.00  0.00    -0.031 C 
ATOM      2  C   LIG    1       -0.050   0.084   0.048  0.00  0.00    -0.007 C 
ENDROOT
BRANCH   2   3
ATOM      3  C   LIG    1       -0.688  -1.260   0.034  0.00  0.00    -0.016 A 
ATOM      4  C   LIG    1       -1.558  -1.622  -1.002  0.00  0.00    +0.020 A 
ATOM      5  C   LIG    1       -2.134  -2.900  -0.996  0.00  0.00    +0.020 A 
ATOM      6  C   LIG    1       -3.035  -3.629  -1.828  0.00  0.00    +0.142 A 
ATOM      7  N   LIG    1       -3.259  -4.829  -1.357  0.00  0.00    -0.181 NA
ATOM      8  N   LIG    1       -2.536  -4.946  -0.228  0.00  0.00    -0.277 N 
ATOM      9  H   LIG    1       -2.560  -5.803   0.305  0.00  0.00    +0.189 HD
ATOM     10  C   LIG    1       -1.820  -3.799   0.051  0.00  0.00    +0.066 A 
ATOM     11  C   LIG    1       -0.947  -3.461   1.087  0.00  0.00    +0.028 A 
ATOM     12  C   LIG    1       -0.392  -2.180   1.048  0.00  0.00    +0.010 A 
ENDBRANCH   2   3
BRANCH   1  13
ATOM     13  C   LIG    1       -0.065   2.573  -0.052  0.00  0.00    -0.003 A 
ATOM     14  C   LIG    1        0.107   3.370   1.095  0.00  0.00    +0.051 A 
ATOM     15 CL   LIG    1       -0.472   2.864   2.646  0.00  0.00    -0.083 Cl
ATOM     16  C   LIG    1        0.756   4.602   0.997  0.00  0.00    +0.059 A 
ATOM     17  C   LIG    1        1.231   5.053  -0.234  0.00  0.00    +0.125 A 
ATOM     18  F   LIG    1        1.858   6.247  -0.321  0.00  0.00    -0.205 F 
ATOM     19  C   LIG    1        1.055   4.273  -1.375  0.00  0.00    +0.039 A 
ATOM     20  C   LIG    1        0.409   3.041  -1.283  0.00  0.00    +0.012 A 
ENDBRANCH   1  13
BRANCH   2  21
ATOM     21  C   LIG    1        1.435   0.038   0.105  0.00  0.00    -0.017 A 
ATOM     22  C   LIG    1        2.131   0.581   1.188  0.00  0.00    +0.009 A 
ATOM     23  C   LIG    1        3.521   0.530   1.230  0.00  0.00    +0.008 A 
ATOM     24  C   LIG    1        4.239  -0.074   0.191  0.00  0.00    -0.025 A 
ATOM     25  C   LIG    1        3.541  -0.628  -0.885  0.00  0.00    +0.008 A 
ATOM     26  C   LIG    1        2.151  -0.576  -0.928  0.00  0.00    +0.009 A 
BRANCH  24  27
ATOM     27  C   LIG    1        5.715  -0.143   0.184  0.00  0.00    +0.015 C 
ATOM     28  C   LIG    1        6.560   0.566   0.969  0.00  0.00    +0.092 C 
BRANCH  28  29
ATOM     29  C   LIG    1        8.107   0.460   0.942  0.00  0.00    +0.330 C 
ATOM     30  O   LIG    1        8.664   0.995   1.927  0.00  0.00    -0.246 OA
BRANCH  29  31
ATOM     31  O   LIG    1        8.619  -0.114  -0.048  0.00  0.00    -0.478 OA
ATOM     32  H   LIG    1        8.070  -0.472  -0.717  0.00  0.00    +0.295 HD
ENDBRANCH  29  31
ENDBRANCH  28  29
ENDBRANCH  24  27
ENDBRANCH   2  21
BRANCH   1  34
ATOM     33  C   LIG    1       -2.876   1.854  -1.341  0.00  0.00    +0.009 C 
ATOM     34  C   LIG    1       -2.278   1.355  -0.016  0.00  0.00    +0.033 C 
ENDBRANCH   1  34
TORSDOF 7
