REMARK  Name = DB12573
REMARK                            x       y       z     vdW  Elec       q    Type
REMARK                         _______ _______ _______ _____ _____    ______ ____
ROOT
ATOM      1  C   LIG    1        2.067   1.028  -0.430  0.00  0.00    +0.086 C 
ATOM      2  C   LIG    1        2.905   0.376  -1.554  0.00  0.00    +0.076 C 
ATOM      3  C   LIG    1        3.673  -0.680  -0.807  0.00  0.00    +0.025 A 
ATOM      4  N   LIG    1        4.479  -1.740  -1.151  0.00  0.00    -0.338 N 
ATOM      5  C   LIG    1        4.901  -2.362   0.019  0.00  0.00    +0.050 A 
ATOM      6  C   LIG    1        5.712  -3.486   0.221  0.00  0.00    +0.027 A 
ATOM      7  C   LIG    1        5.960  -3.867   1.540  0.00  0.00    +0.021 A 
ATOM      8  C   LIG    1        5.431  -3.167   2.625  0.00  0.00    +0.052 A 
ATOM      9  C   LIG    1        4.621  -2.047   2.426  0.00  0.00    +0.029 A 
ATOM     10  C   LIG    1        4.342  -1.630   1.116  0.00  0.00    +0.005 A 
ATOM     11  C   LIG    1        3.571  -0.566   0.550  0.00  0.00    -0.017 A 
ATOM     12  C   LIG    1        2.705   0.610   0.920  0.00  0.00    +0.060 C 
ENDROOT
BRANCH   1  14
ATOM     13  C   LIG    1       -0.396   1.323  -0.066  0.00  0.00    +0.401 C 
ATOM     14  N   LIG    1        0.676   0.567  -0.514  0.00  0.00    -0.278 N 
ATOM     15  H   LIG    1        0.496  -0.349  -0.900  0.00  0.00    +0.152 HD
ATOM     16  O   LIG    1       -0.333   2.445   0.443  0.00  0.00    -0.226 OA
BRANCH  13  17
ATOM     17  O   LIG    1       -1.538   0.628  -0.269  0.00  0.00    -0.448 OA
BRANCH  17  19
ATOM     18  C   LIG    1       -3.791  -0.028   0.208  0.00  0.00    +0.052 C 
ATOM     19  C   LIG    1       -2.819   1.155   0.079  0.00  0.00    +0.172 C 
ATOM     20  C   LIG    1       -3.303   2.179  -0.967  0.00  0.00    +0.052 C 
ENDBRANCH  17  19
ENDBRANCH  13  17
ENDBRANCH   1  14
BRANCH   8  21
ATOM     21  C   LIG    1        5.724  -3.610   3.980  0.00  0.00    +0.099 C 
ATOM     22  N   LIG    1        5.957  -3.962   5.058  0.00  0.00    -0.191 NA
ENDBRANCH   8  21
BRANCH   4  23
ATOM     23  C   LIG    1        4.787  -2.160  -2.518  0.00  0.00    +0.177 C 
BRANCH  23  24
ATOM     24  C   LIG    1        4.160  -3.478  -2.974  0.00  0.00    +0.061 A 
ATOM     25  N   LIG    1        3.043  -3.911  -2.322  0.00  0.00    -0.258 NA
ATOM     26  C   LIG    1        2.485  -5.083  -2.717  0.00  0.00    +0.111 A 
ATOM     27  C   LIG    1        3.005  -5.857  -3.756  0.00  0.00    +0.020 A 
ATOM     28  C   LIG    1        4.147  -5.402  -4.418  0.00  0.00    +0.003 A 
ATOM     29  C   LIG    1        4.736  -4.198  -4.026  0.00  0.00    +0.025 A 
ENDBRANCH  23  24
ENDBRANCH   4  23
TORSDOF 6
