REMARK  Name = DB12128
REMARK                            x       y       z     vdW  Elec       q    Type
REMARK                         _______ _______ _______ _____ _____    ______ ____
ROOT
ATOM      1  C   LIG    1       -2.728   0.415  -6.441  0.00  0.00    +0.050 C 
ATOM      2  C   LIG    1       -3.198  -0.506  -5.298  0.00  0.00    +0.154 C 
ATOM      3  O   LIG    1       -2.072  -1.218  -4.781  0.00  0.00    -0.491 OA
ATOM      4  C   LIG    1       -1.860  -2.476  -5.292  0.00  0.00    +0.124 A 
ATOM      5  C   LIG    1       -1.052  -2.614  -6.425  0.00  0.00    +0.046 A 
ATOM      6  C   LIG    1       -0.790  -3.874  -6.958  0.00  0.00    +0.004 A 
ATOM      7  C   LIG    1       -1.327  -5.008  -6.354  0.00  0.00    +0.000 A 
ATOM      8  C   LIG    1       -2.120  -4.882  -5.214  0.00  0.00    +0.007 A 
ATOM      9  C   LIG    1       -2.390  -3.621  -4.667  0.00  0.00    -0.006 A 
ATOM     10  C   LIG    1       -3.243  -3.536  -3.399  0.00  0.00    +0.040 C 
ATOM     11  C   LIG    1       -2.606  -2.771  -2.218  0.00  0.00    +0.023 C 
ATOM     12  C   LIG    1       -1.170  -3.209  -1.846  0.00  0.00    +0.104 C 
ATOM     13  N   LIG    1       -0.518  -2.288  -0.917  0.00  0.00    -0.314 N 
ATOM     14  H   LIG    1       -0.433  -2.591   0.043  0.00  0.00    +0.149 HD
ATOM     15  C   LIG    1       -0.095  -1.060  -1.262  0.00  0.00    +0.234 C 
ATOM     16  O   LIG    1       -0.144  -0.601  -2.404  0.00  0.00    -0.274 OA
ATOM     17  C   LIG    1        0.456  -0.183  -0.127  0.00  0.00    +0.163 C 
ATOM     18  N   LIG    1       -0.330   1.049  -0.033  0.00  0.00    -0.302 N 
ATOM     19  H   LIG    1        0.118   1.882  -0.386  0.00  0.00    +0.150 HD
ATOM     20  C   LIG    1       -1.578   1.133   0.459  0.00  0.00    +0.234 C 
ATOM     21  O   LIG    1       -2.211   0.180   0.912  0.00  0.00    -0.274 OA
ATOM     22  C   LIG    1       -2.246   2.522   0.439  0.00  0.00    +0.158 C 
ATOM     23  C   LIG    1       -1.940   3.207   1.795  0.00  0.00    +0.038 C 
ATOM     24  N   LIG    1       -1.886   3.349  -0.754  0.00  0.00    -0.295 N 
ATOM     25  C   LIG    1       -0.832   4.365  -0.532  0.00  0.00    +0.132 C 
ATOM     26  C   LIG    1       -2.251   3.084  -2.054  0.00  0.00    +0.202 C 
ATOM     27  O   LIG    1       -1.662   3.609  -3.007  0.00  0.00    -0.277 OA
ATOM     28  C   LIG    1       -3.463   2.183  -2.470  0.00  0.00    +0.019 C 
ATOM     29  N   LIG    1       -2.874   1.093  -3.332  0.00  0.00    +0.389 N 
ATOM     30  H   LIG    1       -2.233   1.551  -3.966  0.00  0.00    -0.085 HD
ATOM     31  H   LIG    1       -2.350   0.470  -2.734  0.00  0.00    -0.085 HD
ATOM     32  C   LIG    1       -3.891   0.277  -4.158  0.00  0.00    -0.037 C 
ENDROOT
BRANCH  28  33
ATOM     33  C   LIG    1       -4.510   1.693  -1.441  0.00  0.00    -0.016 C 
ATOM     34  C   LIG    1       -5.484   2.675  -0.823  0.00  0.00    +0.002 C 
ATOM     35  C   LIG    1       -5.976   1.656  -1.821  0.00  0.00    +0.002 C 
ENDBRANCH  28  33
BRANCH  17  36
ATOM     36  C   LIG    1        1.965   0.101  -0.334  0.00  0.00    +0.067 C 
BRANCH  36  37
ATOM     37  C   LIG    1        2.549   0.941   0.797  0.00  0.00    -0.045 A 
ATOM     38  C   LIG    1        2.884   0.337   2.012  0.00  0.00    +0.006 A 
ATOM     39  C   LIG    1        3.405   1.104   3.050  0.00  0.00    +0.038 A 
ATOM     40  C   LIG    1        3.589   2.474   2.872  0.00  0.00    +0.123 A 
ATOM     41  F   LIG    1        4.096   3.219   3.880  0.00  0.00    -0.205 F 
ATOM     42  C   LIG    1        3.256   3.083   1.663  0.00  0.00    +0.038 A 
ATOM     43  C   LIG    1        2.736   2.316   0.624  0.00  0.00    +0.006 A 
ENDBRANCH  36  37
ENDBRANCH  17  36
TORSDOF 3
