REMARK  Name = DB12821
REMARK                            x       y       z     vdW  Elec       q    Type
REMARK                         _______ _______ _______ _____ _____    ______ ____
ROOT
ATOM      1  C   LIG    1       -0.029  -0.015  -0.026  0.00  0.00    +0.411 C 
ATOM      2  F   LIG    1       -0.509   1.231   0.004  0.00  0.00    -0.189 F 
ATOM      3  F   LIG    1       -0.509  -0.619   1.064  0.00  0.00    -0.189 F 
ENDROOT
BRANCH   1   4
ATOM      4  C   LIG    1       -0.595  -0.733  -1.278  0.00  0.00    +0.460 C 
ATOM      5  F   LIG    1       -0.200  -2.005  -1.345  0.00  0.00    -0.165 F 
ATOM      6  F   LIG    1       -0.201  -0.147  -2.410  0.00  0.00    -0.165 F 
ATOM      7  F   LIG    1       -1.929  -0.732  -1.276  0.00  0.00    -0.165 F 
ENDBRANCH   1   4
BRANCH   1   8
ATOM      8  C   LIG    1        1.529   0.015   0.025  0.00  0.00    +0.411 C 
ATOM      9  F   LIG    1        2.009   0.616  -1.066  0.00  0.00    -0.189 F 
ATOM     10  F   LIG    1        2.009  -1.231  -0.000  0.00  0.00    -0.189 F 
BRANCH   8  11
ATOM     11  C   LIG    1        2.095   0.736   1.276  0.00  0.00    +0.460 C 
ATOM     12  F   LIG    1        1.700   0.154   2.409  0.00  0.00    -0.165 F 
ATOM     13  F   LIG    1        1.701   2.009   1.339  0.00  0.00    -0.165 F 
ATOM     14  F   LIG    1        3.429   0.735   1.274  0.00  0.00    -0.165 F 
ENDBRANCH   8  11
ENDBRANCH   1   8
TORSDOF 3
