REMARK  Name = DB12798
REMARK                            x       y       z     vdW  Elec       q    Type
REMARK                         _______ _______ _______ _____ _____    ______ ____
ROOT
ATOM      1  C   LIG    1        1.287  -0.201  -0.941  0.00  0.00    +0.003 C 
ATOM      2  C   LIG    1        1.900  -0.096   0.471  0.00  0.00    -0.014 C 
ATOM      3  C   LIG    1        3.438  -0.131   0.413  0.00  0.00    -0.079 C 
ATOM      4  N   LIG    1        3.889  -1.452  -0.263  0.00  0.00    +0.380 N 
ATOM      5  H   LIG    1        3.564  -2.221   0.306  0.00  0.00    -0.082 HD
ATOM      6  C   LIG    1        3.257  -1.628  -1.668  0.00  0.00    -0.079 C 
ATOM      7  C   LIG    1        1.724  -1.551  -1.544  0.00  0.00    -0.014 C 
ENDROOT
BRANCH   1   8
ATOM      8  C   LIG    1       -0.256  -0.056  -0.932  0.00  0.00    +0.108 C 
BRANCH   8  10
ATOM      9  C   LIG    1       -0.632   2.397  -1.222  0.00  0.00    +0.248 C 
ATOM     10  N   LIG    1       -0.737   1.260  -0.506  0.00  0.00    -0.311 N 
ATOM     11  H   LIG    1       -1.183   1.303   0.399  0.00  0.00    +0.149 HD
ATOM     12  O   LIG    1       -0.110   2.438  -2.338  0.00  0.00    -0.270 OA
BRANCH   9  14
ATOM     13  C   LIG    1       -0.578   4.908  -0.766  0.00  0.00    +0.134 A 
ATOM     14  C   LIG    1       -1.183   3.647  -0.568  0.00  0.00    +0.080 A 
ATOM     15  C   LIG    1       -2.330   3.560   0.238  0.00  0.00    +0.038 A 
ATOM     16  C   LIG    1       -2.882   4.689   0.840  0.00  0.00    +0.062 A 
ATOM     17 CL   LIG    1       -4.301   4.501   1.816  0.00  0.00    -0.082 Cl
ATOM     18  C   LIG    1       -2.288   5.938   0.641  0.00  0.00    +0.047 A 
ATOM     19  C   LIG    1       -1.147   6.040  -0.154  0.00  0.00    +0.070 A 
BRANCH  18  20
ATOM     20  N   LIG    1       -2.812   7.094   1.223  0.00  0.00    -0.357 N 
ATOM     21  H   LIG    1       -2.451   7.989   0.926  0.00  0.00    +0.142 HD
ATOM     22  H   LIG    1       -3.712   7.034   1.677  0.00  0.00    +0.142 HD
ENDBRANCH  18  20
BRANCH  13  24
ATOM     23  C   LIG    1        1.204   6.234  -1.766  0.00  0.00    +0.277 C 
ATOM     24  O   LIG    1        0.569   4.979  -1.543  0.00  0.00    -0.494 OA
ENDBRANCH  13  24
ENDBRANCH   9  14
ENDBRANCH   8  10
ENDBRANCH   1   8
BRANCH   4  25
ATOM     25  C   LIG    1        5.432  -1.539  -0.380  0.00  0.00    -0.075 C 
BRANCH  25  26
ATOM     26  C   LIG    1        6.095  -1.759   0.998  0.00  0.00    +0.031 C 
BRANCH  26  27
ATOM     27  C   LIG    1        7.635  -1.881   0.966  0.00  0.00    +0.206 C 
BRANCH  27  28
ATOM     28  C   LIG    1        8.130  -3.126   0.218  0.00  0.00    -0.007 A 
ATOM     29  C   LIG    1        8.307  -3.116  -1.171  0.00  0.00    +0.010 A 
ATOM     30  C   LIG    1        8.760  -4.258  -1.825  0.00  0.00    +0.039 A 
ATOM     31  C   LIG    1        9.037  -5.410  -1.092  0.00  0.00    +0.123 A 
ATOM     32  F   LIG    1        9.478  -6.519  -1.728  0.00  0.00    -0.205 F 
ATOM     33  C   LIG    1        8.863  -5.429   0.290  0.00  0.00    +0.039 A 
ATOM     34  C   LIG    1        8.409  -4.287   0.945  0.00  0.00    +0.010 A 
ENDBRANCH  27  28
BRANCH  27  35
ATOM     35  O   LIG    1        8.194  -0.667   0.448  0.00  0.00    -0.443 OA
BRANCH  35  36
ATOM     36  C   LIG    1        9.505  -0.356   0.591  0.00  0.00    +0.398 C 
ATOM     37  N   LIG    1        9.760   0.847  -0.026  0.00  0.00    -0.295 N 
ATOM     38  H   LIG    1       10.697   1.222  -0.009  0.00  0.00    +0.148 HD
ATOM     39  H   LIG    1        9.008   1.340  -0.485  0.00  0.00    +0.148 HD
ATOM     40  O   LIG    1       10.339  -1.040   1.183  0.00  0.00    -0.227 OA
ENDBRANCH  35  36
ENDBRANCH  27  35
ENDBRANCH  26  27
ENDBRANCH  25  26
ENDBRANCH   4  25
TORSDOF 11
