REMARK  Name = DB12083
REMARK                            x       y       z     vdW  Elec       q    Type
REMARK                         _______ _______ _______ _____ _____    ______ ____
ROOT
ATOM      1  C   LIG    1       -1.910  -1.854   0.334  0.00  0.00    +0.058 C 
ATOM      2  C   LIG    1       -1.376  -1.173   1.617  0.00  0.00    +0.123 C 
ATOM      3  N   LIG    1       -0.097  -0.507   1.367  0.00  0.00    -0.220 NA
ATOM      4  H   LIG    1        0.398  -0.203   2.207  0.00  0.00    +0.134 HD
ATOM      5  P   LIG    1        0.070   0.507   0.003  0.00  0.00    +0.347 P 
ATOM      6  O   LIG    1       -0.496   1.879   0.119  0.00  0.00    -0.254 OA
ATOM      7  O   LIG    1       -0.649  -0.405  -1.146  0.00  0.00    -0.305 OA
ATOM      8  C   LIG    1       -1.948  -0.919  -0.893  0.00  0.00    +0.173 C 
ENDROOT
BRANCH   2   9
ATOM      9  S   LIG    1       -2.583  -0.008   2.329  0.00  0.00    -0.140 S 
BRANCH   9  10
ATOM     10  C   LIG    1       -3.771  -1.140   3.114  0.00  0.00    +0.096 C 
BRANCH  10  11
ATOM     11  C   LIG    1       -5.258  -0.777   2.957  0.00  0.00    +0.208 C 
BRANCH  11  12
ATOM     12  S   LIG    1       -5.892  -1.077   1.193  0.00  0.00    +0.081 S 
ATOM     13  O   LIG    1       -5.575  -2.487   0.941  0.00  0.00    -0.147 OA
ATOM     14  O   LIG    1       -5.146  -0.124   0.366  0.00  0.00    -0.147 OA
BRANCH  12  15
ATOM     15  O   LIG    1       -7.326  -0.790   1.299  0.00  0.00    -0.254 OA
ATOM     16  H   LIG    1       -7.455   0.157   1.466  0.00  0.00    +0.244 HD
ENDBRANCH  12  15
ENDBRANCH  11  12
ENDBRANCH  10  11
ENDBRANCH   9  10
ENDBRANCH   2   9
BRANCH   5  17
ATOM     17  N   LIG    1        1.759   0.375  -0.226  0.00  0.00    -0.217 NA
BRANCH  17  18
ATOM     18  C   LIG    1        2.362  -0.850  -0.777  0.00  0.00    +0.111 C 
BRANCH  18  19
ATOM     19  C   LIG    1        2.997  -0.694  -2.171  0.00  0.00    +0.124 C 
ATOM     20 CL   LIG    1        1.795  -0.185  -3.387  0.00  0.00    -0.124 Cl
ENDBRANCH  18  19
ENDBRANCH  17  18
BRANCH  17  21
ATOM     21  C   LIG    1        2.676   1.444   0.205  0.00  0.00    +0.111 C 
BRANCH  21  22
ATOM     22  C   LIG    1        3.516   1.141   1.460  0.00  0.00    +0.124 C 
ATOM     23 CL   LIG    1        2.496   0.924   2.907  0.00  0.00    -0.124 Cl
ENDBRANCH  21  22
ENDBRANCH  17  21
ENDBRANCH   5  17
TORSDOF 10
