REMARK  Name = DB12904
REMARK                            x       y       z     vdW  Elec       q    Type
REMARK                         _______ _______ _______ _____ _____    ______ ____
ROOT
ATOM      1  C   LIG    1        0.006   0.084   0.212  0.00  0.00    +0.243 A 
ATOM      2  N   LIG    1       -0.489   1.348   0.136  0.00  0.00    -0.178 NA
ATOM      3  C   LIG    1       -1.826   1.445  -0.112  0.00  0.00    +0.224 A 
ATOM      4  N   LIG    1       -2.649   0.365  -0.241  0.00  0.00    -0.181 NA
ATOM      5  C   LIG    1       -2.067  -0.864  -0.129  0.00  0.00    +0.224 A 
ATOM      6  N   LIG    1       -0.732  -1.050   0.079  0.00  0.00    -0.178 NA
ENDROOT
BRANCH   1  12
ATOM      7  C   LIG    1        4.869   1.784  -0.803  0.00  0.00    +0.002 A 
ATOM      8  C   LIG    1        4.846   0.727   0.106  0.00  0.00    +0.030 A 
ATOM      9  C   LIG    1        3.603   0.184   0.459  0.00  0.00    +0.090 A 
ATOM     10  N   LIG    1        3.332  -0.844   1.313  0.00  0.00    -0.226 NA
ATOM     11  C   LIG    1        2.026  -0.964   1.303  0.00  0.00    +0.184 A 
ATOM     12  N   LIG    1        1.393  -0.053   0.460  0.00  0.00    -0.260 N 
ATOM     13  C   LIG    1        2.411   0.709  -0.101  0.00  0.00    +0.077 A 
ATOM     14  C   LIG    1        2.438   1.769  -1.020  0.00  0.00    +0.028 A 
ATOM     15  C   LIG    1        3.691   2.289  -1.352  0.00  0.00    +0.002 A 
BRANCH  11  16
ATOM     16  C   LIG    1        1.297  -1.993   2.160  0.00  0.00    +0.407 C 
ATOM     17  F   LIG    1        2.123  -2.712   2.922  0.00  0.00    -0.201 F 
ATOM     18  F   LIG    1        0.386  -1.428   2.952  0.00  0.00    -0.201 F 
ENDBRANCH  11  16
ENDBRANCH   1  12
BRANCH   3  19
ATOM     19  N   LIG    1       -2.397   2.722  -0.164  0.00  0.00    -0.295 N 
ATOM     20  C   LIG    1       -3.765   2.934  -0.685  0.00  0.00    +0.136 C 
ATOM     21  C   LIG    1       -4.389   4.292  -0.305  0.00  0.00    +0.179 C 
ATOM     22  O   LIG    1       -3.510   5.349  -0.650  0.00  0.00    -0.377 OA
ATOM     23  C   LIG    1       -2.284   5.249   0.055  0.00  0.00    +0.179 C 
ATOM     24  C   LIG    1       -1.565   3.935  -0.312  0.00  0.00    +0.136 C 
ENDBRANCH   3  19
BRANCH   5  25
ATOM     25  N   LIG    1       -2.872  -1.995  -0.306  0.00  0.00    -0.295 N 
ATOM     26  C   LIG    1       -4.347  -1.905  -0.267  0.00  0.00    +0.136 C 
ATOM     27  C   LIG    1       -5.079  -3.126  -0.862  0.00  0.00    +0.179 C 
ATOM     28  O   LIG    1       -4.595  -4.321  -0.273  0.00  0.00    -0.377 OA
ATOM     29  C   LIG    1       -3.214  -4.502  -0.538  0.00  0.00    +0.179 C 
ATOM     30  C   LIG    1       -2.399  -3.344   0.073  0.00  0.00    +0.136 C 
ENDBRANCH   5  25
TORSDOF 4
