REMARK  Name = DB12483
REMARK                            x       y       z     vdW  Elec       q    Type
REMARK                         _______ _______ _______ _____ _____    ______ ____
ROOT
ATOM      1  C   LIG    1       -4.088   2.484   0.006  0.00  0.00    +0.204 A 
ATOM      2  N   LIG    1       -2.814   2.304   0.064  0.00  0.00    -0.212 NA
ATOM      3  C   LIG    1       -2.252   1.006  -0.021  0.00  0.00    +0.123 A 
ATOM      4  C   LIG    1       -0.852   0.897   0.040  0.00  0.00    +0.188 A 
ATOM      5  C   LIG    1       -0.236  -0.361  -0.028  0.00  0.00    +0.164 A 
ATOM      6  C   LIG    1       -1.035  -1.507  -0.170  0.00  0.00    +0.050 A 
ATOM      7  C   LIG    1       -2.422  -1.407  -0.239  0.00  0.00    +0.017 A 
ATOM      8  C   LIG    1       -3.043  -0.158  -0.165  0.00  0.00    +0.046 A 
ATOM      9  C   LIG    1       -4.518  -0.025  -0.234  0.00  0.00    +0.141 A 
ATOM     10  N   LIG    1       -5.464  -0.867  -0.360  0.00  0.00    -0.265 NA
ATOM     11  C   LIG    1       -6.713  -0.140  -0.365  0.00  0.00    +0.165 C 
ATOM     12  C   LIG    1       -6.382   1.341  -0.220  0.00  0.00    +0.150 C 
ATOM     13  N   LIG    1       -4.941   1.336  -0.139  0.00  0.00    -0.296 N 
ENDROOT
BRANCH   1  15
ATOM     14  C   LIG    1       -4.127   4.945   0.182  0.00  0.00    +0.253 C 
ATOM     15  N   LIG    1       -4.685   3.712   0.071  0.00  0.00    -0.252 N 
ATOM     16  H   LIG    1       -5.692   3.703   0.021  0.00  0.00    +0.158 HD
ATOM     17  O   LIG    1       -2.914   5.163   0.258  0.00  0.00    -0.270 OA
BRANCH  14  18
ATOM     18  C   LIG    1       -5.100   6.105   0.214  0.00  0.00    +0.073 A 
ATOM     19  C   LIG    1       -4.651   7.427   0.367  0.00  0.00    +0.129 A 
ATOM     20  N   LIG    1       -5.490   8.495   0.397  0.00  0.00    -0.222 NA
ATOM     21  C   LIG    1       -6.813   8.227   0.270  0.00  0.00    +0.213 A 
ATOM     22  N   LIG    1       -7.359   6.994   0.117  0.00  0.00    -0.222 NA
ATOM     23  C   LIG    1       -6.492   5.947   0.091  0.00  0.00    +0.129 A 
BRANCH  21  24
ATOM     24  N   LIG    1       -7.687   9.310   0.298  0.00  0.00    -0.327 N 
ATOM     25  H   LIG    1       -7.317  10.242   0.411  0.00  0.00    +0.145 HD
ATOM     26  H   LIG    1       -8.679   9.148   0.205  0.00  0.00    +0.145 HD
ENDBRANCH  21  24
ENDBRANCH  14  18
ENDBRANCH   1  15
BRANCH   4  27
ATOM     27  O   LIG    1       -0.071   2.020   0.195  0.00  0.00    -0.489 OA
ATOM     28  C   LIG    1        0.371   2.594  -1.028  0.00  0.00    +0.277 C 
ENDBRANCH   4  27
BRANCH   5  29
ATOM     29  O   LIG    1        1.145  -0.389   0.052  0.00  0.00    -0.488 OA
BRANCH  29  30
ATOM     30  C   LIG    1        1.833  -1.631  -0.062  0.00  0.00    +0.230 C 
BRANCH  30  31
ATOM     31  C   LIG    1        3.342  -1.360   0.003  0.00  0.00    +0.056 C 
BRANCH  31  32
ATOM     32  C   LIG    1        4.183  -2.652  -0.066  0.00  0.00    +0.088 C 
BRANCH  32  33
ATOM     33  N   LIG    1        5.606  -2.404  -0.318  0.00  0.00    -0.298 NA
ATOM     34  C   LIG    1        6.261  -1.658   0.767  0.00  0.00    +0.112 C 
ATOM     35  C   LIG    1        7.777  -1.504   0.520  0.00  0.00    +0.175 C 
ATOM     36  O   LIG    1        8.371  -2.779   0.298  0.00  0.00    -0.377 OA
ATOM     37  C   LIG    1        7.813  -3.445  -0.828  0.00  0.00    +0.175 C 
ATOM     38  C   LIG    1        6.300  -3.664  -0.615  0.00  0.00    +0.112 C 
ENDBRANCH  32  33
ENDBRANCH  31  32
ENDBRANCH  30  31
ENDBRANCH  29  30
ENDBRANCH   5  29
TORSDOF 9
