REMARK  Name = DB12234
REMARK                            x       y       z     vdW  Elec       q    Type
REMARK                         _______ _______ _______ _____ _____    ______ ____
ROOT
ATOM      1  C   LIG    1        1.350  -0.041  -0.226  0.00  0.00    +0.102 C 
ATOM      2  N   LIG    1        1.843  -0.912   0.871  0.00  0.00    -0.167 NA
ATOM      3  C   LIG    1        0.987  -1.973   1.452  0.00  0.00    +0.146 C 
ATOM      4  C   LIG    1        0.555  -3.171   0.588  0.00  0.00    -0.009 A 
ATOM      5  C   LIG    1        0.755  -3.251  -0.823  0.00  0.00    +0.034 A 
ATOM      6  N   LIG    1        1.318  -2.174  -1.547  0.00  0.00    -0.326 N 
ATOM      7  C   LIG    1        0.335  -4.425  -1.477  0.00  0.00    +0.025 A 
ATOM      8  C   LIG    1       -0.269  -5.475  -0.793  0.00  0.00    +0.021 A 
ATOM      9  C   LIG    1       -0.479  -5.380   0.578  0.00  0.00    +0.052 A 
ATOM     10  C   LIG    1       -0.071  -4.232   1.253  0.00  0.00    +0.025 A 
ATOM     11  C   LIG    1        0.658  -0.878  -1.322  0.00  0.00    +0.126 C 
ENDROOT
BRANCH   2  12
ATOM     12  S   LIG    1        3.501  -0.704   1.470  0.00  0.00    +0.068 S 
ATOM     13  O   LIG    1        3.911  -1.908   2.202  0.00  0.00    -0.152 OA
ATOM     14  O   LIG    1        4.337  -0.129   0.410  0.00  0.00    -0.152 OA
BRANCH  12  15
ATOM     15  C   LIG    1        3.235   0.599   2.695  0.00  0.00    +0.143 A 
ATOM     16  S   LIG    1        2.693   0.262   4.310  0.00  0.00    -0.077 S 
ATOM     17  C   LIG    1        2.741   1.952   4.698  0.00  0.00    +0.047 A 
ATOM     18  C   LIG    1        3.167   2.723   3.625  0.00  0.00    +0.010 A 
ATOM     19  C   LIG    1        3.454   1.956   2.491  0.00  0.00    +0.036 A 
ENDBRANCH  12  15
ENDBRANCH   2  12
BRANCH   9  20
ATOM     20  C   LIG    1       -1.119  -6.470   1.300  0.00  0.00    +0.099 C 
ATOM     21  N   LIG    1       -1.628  -7.336   1.874  0.00  0.00    -0.191 NA
ENDBRANCH   9  20
BRANCH   1  22
ATOM     22  C   LIG    1        0.459   1.091   0.330  0.00  0.00    +0.057 C 
BRANCH  22  26
ATOM     23  C   LIG    1       -0.257   4.199  -2.557  0.00  0.00    +0.000 A 
ATOM     24  C   LIG    1       -1.216   3.208  -2.361  0.00  0.00    +0.000 A 
ATOM     25  C   LIG    1       -0.988   2.203  -1.425  0.00  0.00    +0.004 A 
ATOM     26  C   LIG    1        0.199   2.194  -0.688  0.00  0.00    -0.046 A 
ATOM     27  C   LIG    1        1.158   3.191  -0.889  0.00  0.00    +0.004 A 
ATOM     28  C   LIG    1        0.929   4.196  -1.825  0.00  0.00    +0.000 A 
ENDBRANCH  22  26
ENDBRANCH   1  22
BRANCH   6  29
ATOM     29  C   LIG    1        1.755  -2.370  -2.938  0.00  0.00    +0.130 C 
BRANCH  29  30
ATOM     30  C   LIG    1        2.741  -1.306  -3.386  0.00  0.00    +0.074 C 
ATOM     31  N   LIG    1        3.979  -1.150  -2.777  0.00  0.00    -0.289 NA
ATOM     32  H   LIG    1        4.319  -1.712  -2.009  0.00  0.00    +0.124 HD
ATOM     33  C   LIG    1        4.661  -0.104  -3.353  0.00  0.00    +0.155 C 
ATOM     34  N   LIG    1        3.854   0.406  -4.342  0.00  0.00    -0.293 NA
ATOM     35  H   LIG    1        4.081   1.187  -4.942  0.00  0.00    +0.124 HD
ATOM     36  C   LIG    1        2.677  -0.324  -4.376  0.00  0.00    +0.097 C 
ENDBRANCH  29  30
ENDBRANCH   6  29
TORSDOF 7
