REMARK  Name = DB12795
REMARK                            x       y       z     vdW  Elec       q    Type
REMARK                         _______ _______ _______ _____ _____    ______ ____
ROOT
ATOM      1  CA  GLU A  1       -0.375  -0.188   0.189  0.00  0.00    +0.159 C 
ENDROOT
BRANCH   1   4
ATOM      2  N   GLU A  1       -2.069   1.449  -0.450  0.00  0.00    -0.301 N 
ATOM      3  H   GLU A  1       -2.337   0.758  -1.136  0.00  0.00    +0.150 HD
ATOM      4  C   GLU A  1       -1.057   1.177   0.391  0.00  0.00    +0.234 C 
ATOM      5  O   GLU A  1       -0.683   1.924   1.297  0.00  0.00    -0.274 OA
BRANCH   2   7
ATOM      6  CB  GLU A  1       -2.040   3.886  -0.941  0.00  0.00    +0.040 C 
ATOM      7  CA  GLU A  1       -2.880   2.678  -0.453  0.00  0.00    +0.179 C 
BRANCH   7   8
ATOM      8  C   GLU A  1       -4.146   2.492  -1.367  0.00  0.00    +0.325 C 
ATOM      9  O   GLU A  1       -5.196   2.986  -0.895  0.00  0.00    -0.249 OA
BRANCH   8  10
ATOM     10  OXT GLU A  1       -3.967   1.938  -2.480  0.00  0.00    -0.479 OA
ATOM     11  HXT GLU A  1       -3.120   1.609  -2.709  0.00  0.00    +0.295 HD
ENDBRANCH   8  10
ENDBRANCH   7   8
ENDBRANCH   2   7
ENDBRANCH   1   4
BRANCH   1  12
ATOM     12  N   GLU A  1        1.053  -0.145   0.516  0.00  0.00    -0.304 N 
ATOM     13  H   GLU A  1        1.312  -0.592   1.384  0.00  0.00    +0.149 HD
ATOM     14  C   UNK A  0        2.000   0.464  -0.218  0.00  0.00    +0.214 C 
ATOM     15  O   UNK A  0        1.762   1.031  -1.286  0.00  0.00    -0.276 OA
BRANCH  14  16
ATOM     16  C   UNK A  0        3.426   0.413   0.353  0.00  0.00    +0.096 C 
BRANCH  16  17
ATOM     17  C   UNK A  0        4.395   1.446  -0.265  0.00  0.00    +0.009 C 
BRANCH  17  18
ATOM     18  C   UNK A  0        5.800   1.391   0.359  0.00  0.00    +0.002 C 
BRANCH  18  19
ATOM     19  C   UNK A  0        6.771   2.415  -0.260  0.00  0.00    +0.015 C 
BRANCH  19  20
ATOM     20  C   UNK A  0        8.191   2.364   0.341  0.00  0.00    +0.058 C 
ATOM     21  S   UNK A  0        9.283   3.491  -0.561  0.00  0.00    -0.090 S 
ATOM     22  S   UNK A  0       10.772   3.130   0.772  0.00  0.00    -0.093 S 
ATOM     23  C   UNK A  0        9.636   3.412   2.149  0.00  0.00    +0.082 C 
ATOM     24  C   UNK A  0        8.282   2.746   1.835  0.00  0.00    +0.026 C 
ENDBRANCH  19  20
ENDBRANCH  18  19
ENDBRANCH  17  18
ENDBRANCH  16  17
ENDBRANCH  14  16
ENDBRANCH   1  12
BRANCH   1  25
ATOM     25  CB  GLU A  1       -1.064  -1.271   1.046  0.00  0.00    +0.043 C 
BRANCH  25  26
ATOM     26  CG  GLU A  1       -0.531  -2.699   0.780  0.00  0.00    +0.123 C 
BRANCH  26  27
ATOM     27  CD  GLU A  1       -1.201  -3.824   1.592  0.00  0.00    +0.305 C 
ATOM     28  OE1 GLU A  1       -0.807  -4.986   1.350  0.00  0.00    -0.251 OA
BRANCH  27  29
ATOM     29  OE2 GLU A  1       -2.079  -3.535   2.436  0.00  0.00    -0.481 OA
ATOM     30  HE2 GLU A  1       -2.327  -2.640   2.566  0.00  0.00    +0.295 HD
ENDBRANCH  27  29
ENDBRANCH  26  27
ENDBRANCH  25  26
ENDBRANCH   1  25
TORSDOF 14
