REMARK  Name = DB12783
REMARK                            x       y       z     vdW  Elec       q    Type
REMARK                         _______ _______ _______ _____ _____    ______ ____
ROOT
ATOM      1  C   LIG    1       -0.131   0.592  -1.346  0.00  0.00    +0.140 C 
ENDROOT
BRANCH   1   3
ATOM      2  C   LIG    1       -0.628   1.939   0.766  0.00  0.00    +0.166 A 
ATOM      3  C   LIG    1       -0.686   1.818  -0.632  0.00  0.00    +0.013 A 
ATOM      4  C   LIG    1       -1.264   2.842  -1.388  0.00  0.00    +0.012 A 
ATOM      5  C   LIG    1       -1.781   3.975  -0.764  0.00  0.00    +0.050 A 
ATOM      6  C   LIG    1       -1.724   4.098   0.624  0.00  0.00    +0.162 A 
ATOM      7  C   LIG    1       -1.147   3.081   1.394  0.00  0.00    +0.201 A 
BRANCH   6   8
ATOM      8  O   LIG    1       -2.240   5.225   1.213  0.00  0.00    -0.503 OA
ATOM      9  H   LIG    1       -2.609   5.843   0.578  0.00  0.00    +0.292 HD
ENDBRANCH   6   8
BRANCH   7  10
ATOM     10  O   LIG    1       -1.091   3.205   2.763  0.00  0.00    -0.501 OA
ATOM     11  H   LIG    1       -1.476   4.029   3.072  0.00  0.00    +0.292 HD
ENDBRANCH   7  10
BRANCH   2  12
ATOM     12  O   LIG    1       -0.062   0.942   1.525  0.00  0.00    -0.503 OA
ATOM     13  H   LIG    1       -0.088   1.139   2.464  0.00  0.00    +0.292 HD
ENDBRANCH   2  12
ENDBRANCH   1   3
BRANCH   1  14
ATOM     14  N   LIG    1        1.324   0.670  -1.435  0.00  0.00    -0.236 NA
ATOM     15  H   LIG    1        1.765   0.723  -0.527  0.00  0.00    +0.145 HD
BRANCH  14  16
ATOM     16  N   LIG    1        1.891  -0.414  -2.129  0.00  0.00    -0.249 N 
ATOM     17  H   LIG    1        2.352  -0.151  -2.988  0.00  0.00    +0.169 HD
ATOM     18  C   LIG    1        1.976  -1.650  -1.593  0.00  0.00    +0.246 C 
ATOM     19  O   LIG    1        1.502  -1.984  -0.502  0.00  0.00    -0.273 OA
BRANCH  18  20
ATOM     20  CA  LIG    1        2.736  -2.694  -2.440  0.00  0.00    +0.165 C 
BRANCH  20  21
ATOM     21  N   LIG    1        1.730  -3.655  -2.923  0.00  0.00    -0.318 NA
ATOM     22  H1  LIG    1        1.449  -4.278  -2.179  0.00  0.00    +0.119 HD
ATOM     23  H2  LIG    1        2.111  -4.238  -3.654  0.00  0.00    +0.119 HD
ENDBRANCH  20  21
BRANCH  20  24
ATOM     24  C   LIG    1        3.872  -3.396  -1.656  0.00  0.00    +0.183 C 
BRANCH  24  25
ATOM     25  O   LIG    1        4.920  -2.501  -1.335  0.00  0.00    -0.393 OA
ATOM     26  H   LIG    1        5.581  -2.976  -0.826  0.00  0.00    +0.209 HD
ENDBRANCH  24  25
ENDBRANCH  20  24
ENDBRANCH  18  20
ENDBRANCH  14  16
ENDBRANCH   1  14
TORSDOF 10
