REMARK  Name = DB12984
REMARK                            x       y       z     vdW  Elec       q    Type
REMARK                         _______ _______ _______ _____ _____    ______ ____
ROOT
ATOM      1  C   LIG    1        0.096  -1.571  -1.936  0.00  0.00    +0.043 C 
ATOM      2  C   LIG    1       -0.970  -0.639  -1.356  0.00  0.00    -0.029 C 
ATOM      3  C   LIG    1       -0.555   0.165  -0.112  0.00  0.00    +0.205 C 
ATOM      4  C   LIG    1       -1.232   1.574  -0.087  0.00  0.00    +0.088 C 
ATOM      5  C   LIG    1       -2.599   1.726  -0.847  0.00  0.00    +0.116 C 
ATOM      6  C   LIG    1       -3.289   0.344  -1.135  0.00  0.00    +0.023 C 
ATOM      7  C   LIG    1       -3.637  -0.423   0.182  0.00  0.00    +0.018 C 
ATOM      8  C   LIG    1       -4.666   0.537  -1.857  0.00  0.00    +0.018 C 
ATOM      9  C   LIG    1       -2.367   2.621  -2.171  0.00  0.00    +0.217 C 
ATOM     10  C   LIG    1       -1.373   2.112  -3.327  0.00  0.00    +0.095 C 
ATOM     11  C   LIG    1       -0.182   3.106  -3.692  0.00  0.00    +0.169 C 
ATOM     12  C   LIG    1       -0.593   4.480  -4.284  0.00  0.00    +0.211 C 
ATOM     13  O   LIG    1        0.054   4.139  -5.586  0.00  0.00    -0.368 OA
ATOM     14  C   LIG    1        0.599   2.874  -5.006  0.00  0.00    +0.165 C 
ATOM     15  C   LIG    1        0.248   1.645  -5.846  0.00  0.00    +0.040 C 
ATOM     16  C   LIG    1       -1.211   1.177  -5.822  0.00  0.00    +0.006 C 
ATOM     17  C   LIG    1       -2.363   2.145  -5.829  0.00  0.00    +0.020 C 
ATOM     18  C   LIG    1       -2.038   1.331  -4.559  0.00  0.00    +0.046 C 
ATOM     19  C   LIG    1       -2.948   0.093  -4.301  0.00  0.00    +0.185 C 
ATOM     20  O   LIG    1       -3.970  -0.063  -4.973  0.00  0.00    -0.292 OA
ATOM     21  C   LIG    1       -2.517  -1.016  -3.304  0.00  0.00    +0.269 C 
ATOM     22  C   LIG    1       -2.216  -0.487  -1.898  0.00  0.00    -0.011 C 
ENDROOT
BRANCH   5  23
ATOM     23  O   LIG    1       -3.455   2.542  -0.053  0.00  0.00    -0.384 OA
ATOM     24  H   LIG    1       -3.560   2.128   0.807  0.00  0.00    +0.210 HD
ENDBRANCH   5  23
BRANCH   3  25
ATOM     25  O   LIG    1        0.869   0.311  -0.029  0.00  0.00    -0.455 OA
BRANCH  25  26
ATOM     26  C   LIG    1        1.491   0.489   1.167  0.00  0.00    +0.339 C 
ATOM     27  O   LIG    1        0.919   0.589   2.256  0.00  0.00    -0.248 OA
BRANCH  26  28
ATOM     28  C   LIG    1        3.026   0.568   1.032  0.00  0.00    +0.247 C 
BRANCH  28  29
ATOM     29  O   LIG    1        3.459  -0.731   0.655  0.00  0.00    -0.379 OA
ATOM     30  H   LIG    1        3.043  -0.963  -0.178  0.00  0.00    +0.211 HD
ENDBRANCH  28  29
BRANCH  28  31
ATOM     31  C   LIG    1        3.786   1.078   2.302  0.00  0.00    +0.146 C 
BRANCH  31  32
ATOM     32  C   LIG    1        3.456   2.550   2.610  0.00  0.00    -0.024 A 
ATOM     33  C   LIG    1        4.056   3.580   1.876  0.00  0.00    +0.005 A 
ATOM     34  C   LIG    1        3.756   4.910   2.158  0.00  0.00    +0.000 A 
ATOM     35  C   LIG    1        2.858   5.212   3.179  0.00  0.00    +0.000 A 
ATOM     36  C   LIG    1        2.265   4.196   3.925  0.00  0.00    +0.000 A 
ATOM     37  C   LIG    1        2.569   2.867   3.645  0.00  0.00    +0.005 A 
ENDBRANCH  31  32
BRANCH  31  38
ATOM     38  N   LIG    1        5.233   0.824   2.202  0.00  0.00    -0.271 N 
ATOM     39  H   LIG    1        5.583   0.412   1.349  0.00  0.00    +0.153 HD
ATOM     40  C   LIG    1        6.129   1.045   3.239  0.00  0.00    +0.401 C 
ATOM     41  O   LIG    1        5.853   1.495   4.353  0.00  0.00    -0.226 OA
BRANCH  40  42
ATOM     42  O   LIG    1        7.372   0.681   2.824  0.00  0.00    -0.445 OA
BRANCH  42  43
ATOM     43  C   LIG    1        8.574   0.772   3.611  0.00  0.00    +0.107 C 
ATOM     44  C   LIG    1        9.680   0.227   2.684  0.00  0.00    +0.055 C 
ATOM     45  C   LIG    1        8.893   2.242   3.981  0.00  0.00    +0.055 C 
ATOM     46  C   LIG    1        8.491  -0.113   4.880  0.00  0.00    +0.055 C 
ENDBRANCH  42  43
ENDBRANCH  40  42
ENDBRANCH  31  38
ENDBRANCH  28  31
ENDBRANCH  26  28
ENDBRANCH  25  26
ENDBRANCH   3  25
BRANCH   9  47
ATOM     47  O   LIG    1       -1.934   3.930  -1.747  0.00  0.00    -0.454 OA
BRANCH  47  48
ATOM     48  C   LIG    1       -2.728   5.038  -1.749  0.00  0.00    +0.340 C 
ATOM     49  O   LIG    1       -3.888   5.048  -2.168  0.00  0.00    -0.245 OA
BRANCH  48  50
ATOM     50  C   LIG    1       -2.015   6.255  -1.241  0.00  0.00    +0.059 A 
ATOM     51  C   LIG    1       -2.619   7.513  -1.379  0.00  0.00    +0.015 A 
ATOM     52  C   LIG    1       -1.978   8.659  -0.916  0.00  0.00    +0.001 A 
ATOM     53  C   LIG    1       -0.729   8.555  -0.309  0.00  0.00    +0.000 A 
ATOM     54  C   LIG    1       -0.117   7.314  -0.159  0.00  0.00    +0.001 A 
ATOM     55  C   LIG    1       -0.757   6.168  -0.620  0.00  0.00    +0.015 A 
ENDBRANCH  48  50
ENDBRANCH  47  48
ENDBRANCH   9  47
BRANCH  11  56
ATOM     56  O   LIG    1        0.678   3.172  -2.528  0.00  0.00    -0.453 OA
BRANCH  56  57
ATOM     57  C   LIG    1        1.774   3.966  -2.366  0.00  0.00    +0.305 C 
ATOM     58  C   LIG    1        2.411   3.791  -0.996  0.00  0.00    +0.136 C 
ATOM     59  O   LIG    1        2.249   4.755  -3.182  0.00  0.00    -0.251 OA
ENDBRANCH  56  57
ENDBRANCH  11  56
BRANCH  21  60
ATOM     60  O   LIG    1       -3.469  -2.085  -3.225  0.00  0.00    -0.449 OA
BRANCH  60  61
ATOM     61  C   LIG    1       -3.377  -3.192  -4.000  0.00  0.00    +0.305 C 
ATOM     62  C   LIG    1       -4.504  -4.180  -3.731  0.00  0.00    +0.136 C 
ATOM     63  O   LIG    1       -2.506  -3.426  -4.840  0.00  0.00    -0.251 OA
ENDBRANCH  60  61
ENDBRANCH  21  60
TORSDOF 17
