REMARK  Name = DB12150
REMARK                            x       y       z     vdW  Elec       q    Type
REMARK                         _______ _______ _______ _____ _____    ______ ____
ROOT
ATOM      1  C   LIG    1        1.425  -0.038  -0.053  0.00  0.00    -0.034 A 
ATOM      2  C   LIG    1        2.162  -0.627   0.978  0.00  0.00    +0.005 A 
ATOM      3  C   LIG    1        3.552  -0.539   0.986  0.00  0.00    +0.008 A 
ATOM      4  C   LIG    1        4.221   0.144  -0.032  0.00  0.00    -0.025 A 
ATOM      5  C   LIG    1        3.485   0.727  -1.069  0.00  0.00    +0.008 A 
ATOM      6  C   LIG    1        2.096   0.641  -1.078  0.00  0.00    +0.005 A 
ENDROOT
BRANCH   4   7
ATOM      7  C   LIG    1        5.694   0.210   0.008  0.00  0.00    +0.015 C 
ATOM      8  C   LIG    1        6.482   1.287  -0.231  0.00  0.00    -0.004 C 
ATOM      9  C   LIG    1        7.947   1.095  -0.182  0.00  0.00    +0.159 C 
ATOM     10  O   LIG    1        8.493   0.068  -0.589  0.00  0.00    -0.292 OA
ATOM     11  C   LIG    1        8.768   2.206   0.495  0.00  0.00    +0.079 C 
ATOM     12  C   LIG    1        8.264   3.627   0.179  0.00  0.00    +0.008 C 
ATOM     13  C   LIG    1        6.744   3.755   0.348  0.00  0.00    +0.005 C 
ATOM     14  C   LIG    1        6.002   2.719  -0.516  0.00  0.00    +0.038 C 
ENDBRANCH   4   7
BRANCH   1  16
ATOM     15  C   LIG    1       -0.769   1.266   0.102  0.00  0.00    +0.024 C 
ATOM     16  C   LIG    1       -0.109  -0.131  -0.045  0.00  0.00    +0.124 C 
BRANCH  16  17
ATOM     17  C   LIG    1       -0.614  -0.958  -1.268  0.00  0.00    +0.312 C 
ATOM     18  O   LIG    1       -0.314  -2.175  -1.293  0.00  0.00    -0.250 OA
BRANCH  17  19
ATOM     19  O   LIG    1       -1.296  -0.398  -2.159  0.00  0.00    -0.480 OA
ATOM     20  H   LIG    1       -1.492   0.516  -2.093  0.00  0.00    +0.295 HD
ENDBRANCH  17  19
ENDBRANCH  16  17
ENDBRANCH   1  16
TORSDOF 4
