REMARK  Name = DB12881
REMARK                            x       y       z     vdW  Elec       q    Type
REMARK                         _______ _______ _______ _____ _____    ______ ____
ROOT
ATOM      1  C   LIG    1       -0.649   2.471   0.088  0.00  0.00    +0.010 A 
ATOM      2  C   LIG    1       -0.876   1.085   0.023  0.00  0.00    +0.005 A 
ATOM      3  C   LIG    1       -0.012  -0.069  -0.007  0.00  0.00    +0.003 A 
ATOM      4  C   LIG    1       -0.858  -1.160  -0.084  0.00  0.00    +0.089 A 
ATOM      5  N   LIG    1       -2.167  -0.753  -0.093  0.00  0.00    -0.360 N 
ATOM      6  H   LIG    1       -2.939  -1.403  -0.141  0.00  0.00    +0.165 HD
ATOM      7  C   LIG    1       -2.227   0.621  -0.029  0.00  0.00    +0.047 A 
ATOM      8  C   LIG    1       -3.322   1.492  -0.014  0.00  0.00    +0.026 A 
ATOM      9  C   LIG    1       -3.044   2.857   0.052  0.00  0.00    +0.002 A 
ATOM     10  C   LIG    1       -1.740   3.340   0.102  0.00  0.00    +0.001 A 
ENDROOT
BRANCH   3  11
ATOM     11  C   LIG    1        1.501  -0.079   0.027  0.00  0.00    +0.193 C 
BRANCH  11  12
ATOM     12  O   LIG    1        1.959   0.549   1.206  0.00  0.00    -0.390 OA
ATOM     13  H   LIG    1        2.919   0.532   1.209  0.00  0.00    +0.210 HD
ENDBRANCH  11  12
ENDBRANCH   3  11
TORSDOF 2
