REMARK  Name = DB12999
REMARK                            x       y       z     vdW  Elec       q    Type
REMARK                         _______ _______ _______ _____ _____    ______ ____
ROOT
ATOM      1  N   LIG    1       -3.021  -2.203   1.013  0.00  0.00    -0.258 N 
ATOM      2  N   LIG    1       -2.008  -2.886   1.586  0.00  0.00    -0.178 NA
ATOM      3  C   LIG    1       -0.896  -2.339   1.170  0.00  0.00    +0.146 A 
ATOM      4  C   LIG    1       -1.148  -1.264   0.266  0.00  0.00    +0.063 A 
ATOM      5  C   LIG    1       -0.375  -0.363  -0.487  0.00  0.00    +0.157 A 
ATOM      6  C   LIG    1       -1.020   0.579  -1.293  0.00  0.00    +0.084 A 
ATOM      7 CL   LIG    1       -0.097   1.697  -2.232  0.00  0.00    -0.080 Cl
ATOM      8  C   LIG    1       -2.413   0.622  -1.355  0.00  0.00    +0.026 A 
ATOM      9  C   LIG    1       -3.216  -0.260  -0.628  0.00  0.00    +0.029 A 
ATOM     10  C   LIG    1       -2.560  -1.196   0.181  0.00  0.00    +0.073 A 
ENDROOT
BRANCH   1  11
ATOM     11  C   LIG    1       -4.398  -2.622   1.247  0.00  0.00    +0.202 C 
BRANCH  11  19
ATOM     12  C   LIG    1       -3.421  -6.605  -1.227  0.00  0.00    +0.020 A 
ATOM     13  C   LIG    1       -4.361  -6.714  -2.256  0.00  0.00    +0.113 A 
ATOM     14  N   LIG    1       -5.368  -5.827  -2.481  0.00  0.00    -0.236 NA
ATOM     15  C   LIG    1       -5.405  -4.803  -1.623  0.00  0.00    +0.156 A 
ATOM     16  N   LIG    1       -6.298  -3.755  -1.592  0.00  0.00    -0.260 N 
ATOM     17  H   LIG    1       -7.078  -3.583  -2.210  0.00  0.00    +0.191 HD
ATOM     18  N   LIG    1       -6.024  -2.908  -0.581  0.00  0.00    -0.175 NA
ATOM     19  C   LIG    1       -4.968  -3.365   0.053  0.00  0.00    +0.093 A 
ATOM     20  C   LIG    1       -4.515  -4.582  -0.548  0.00  0.00    +0.043 A 
ATOM     21  C   LIG    1       -3.488  -5.521  -0.348  0.00  0.00    +0.015 A 
ENDBRANCH  11  19
ENDBRANCH   1  11
BRANCH   5  22
ATOM     22  O   LIG    1        0.996  -0.453  -0.404  0.00  0.00    -0.454 OA
BRANCH  22  23
ATOM     23  C   LIG    1        1.687  -1.422  -1.105  0.00  0.00    +0.131 A 
ATOM     24  C   LIG    1        1.093  -2.299  -2.029  0.00  0.00    +0.066 A 
ATOM     25  C   LIG    1        1.861  -3.254  -2.694  0.00  0.00    +0.046 A 
ATOM     26 CL   LIG    1        1.113  -4.330  -3.817  0.00  0.00    -0.083 Cl
ATOM     27  C   LIG    1        3.231  -3.341  -2.450  0.00  0.00    +0.039 A 
ATOM     28  C   LIG    1        3.836  -2.471  -1.539  0.00  0.00    +0.057 A 
ATOM     29  C   LIG    1        3.061  -1.517  -0.873  0.00  0.00    +0.065 A 
BRANCH  28  30
ATOM     30  C   LIG    1        5.266  -2.558  -1.285  0.00  0.00    +0.099 C 
ATOM     31  N   LIG    1        6.404  -2.627  -1.084  0.00  0.00    -0.191 NA
ENDBRANCH  28  30
ENDBRANCH  22  23
ENDBRANCH   5  22
TORSDOF 5
