REMARK  Name = DB12100
REMARK                            x       y       z     vdW  Elec       q    Type
REMARK                         _______ _______ _______ _____ _____    ______ ____
ROOT
ATOM      1  N   LIG    1        1.623  -2.185  -1.284  0.00  0.00    +0.381 N 
ATOM      2  H   LIG    1        1.939  -1.731  -2.129  0.00  0.00    -0.086 HD
ATOM      3  H   LIG    1        0.612  -2.198  -1.298  0.00  0.00    -0.086 HD
ENDROOT
BRANCH   1   4
ATOM      4  C   LIG    1        2.085  -1.362  -0.070  0.00  0.00    -0.082 C 
BRANCH   4   5
ATOM      5  C   LIG    1        1.511   0.063  -0.146  0.00  0.00    -0.019 C 
BRANCH   5   6
ATOM      6  C   LIG    1       -0.025   0.128  -0.025  0.00  0.00    -0.002 C 
BRANCH   6   7
ATOM      7  C   LIG    1       -0.563   1.570  -0.002  0.00  0.00    +0.002 C 
BRANCH   7   8
ATOM      8  C   LIG    1       -2.099   1.633   0.076  0.00  0.00    +0.028 C 
BRANCH   8   9
ATOM      9  C   LIG    1       -2.641   3.069   0.111  0.00  0.00    +0.160 C 
BRANCH   9  10
ATOM     10  O   LIG    1       -4.060   3.016   0.134  0.00  0.00    -0.374 OA
BRANCH  10  11
ATOM     11  C   LIG    1       -4.686   4.295   0.155  0.00  0.00    +0.240 C 
BRANCH  11  12
ATOM     12  C   LIG    1       -6.219   4.145   0.098  0.00  0.00    +0.297 C 
ATOM     13  F   LIG    1       -6.669   3.551   1.207  0.00  0.00    -0.198 F 
ATOM     14  F   LIG    1       -6.794   5.350   0.066  0.00  0.00    -0.198 F 
BRANCH  12  18
ATOM     15  C   LIG    1       -7.449   1.904  -3.387  0.00  0.00    +0.000 A 
ATOM     16  C   LIG    1       -7.270   1.246  -2.173  0.00  0.00    +0.000 A 
ATOM     17  C   LIG    1       -6.879   1.967  -1.048  0.00  0.00    +0.009 A 
ATOM     18  C   LIG    1       -6.669   3.349  -1.134  0.00  0.00    +0.023 A 
ATOM     19  C   LIG    1       -6.847   3.998  -2.362  0.00  0.00    +0.009 A 
ATOM     20  C   LIG    1       -7.238   3.277  -3.487  0.00  0.00    +0.000 A 
ENDBRANCH  12  18
ENDBRANCH  11  12
ENDBRANCH  10  11
ENDBRANCH   9  10
ENDBRANCH   8   9
ENDBRANCH   7   8
ENDBRANCH   6   7
ENDBRANCH   5   6
ENDBRANCH   4   5
ENDBRANCH   1   4
BRANCH   1  21
ATOM     21  C   LIG    1        2.126  -3.640  -1.274  0.00  0.00    -0.046 C 
BRANCH  21  22
ATOM     22  C   LIG    1        1.569  -4.434  -2.480  0.00  0.00    +0.128 C 
BRANCH  22  23
ATOM     23  C   LIG    1        2.136  -5.862  -2.498  0.00  0.00    -0.012 A 
ATOM     24  C   LIG    1        3.402  -6.148  -3.049  0.00  0.00    +0.008 A 
ATOM     25  C   LIG    1        4.299  -5.129  -3.645  0.00  0.00    +0.016 A 
ATOM     26  C   LIG    1        5.499  -5.470  -4.164  0.00  0.00    +0.071 A 
ATOM     27  C   LIG    1        6.003  -6.835  -4.190  0.00  0.00    +0.249 A 
ATOM     28  N   LIG    1        5.157  -7.733  -3.627  0.00  0.00    -0.319 N 
ATOM     29  H   LIG    1        5.490  -8.687  -3.632  0.00  0.00    +0.169 HD
ATOM     30  O   LIG    1        7.085  -7.159  -4.671  0.00  0.00    -0.268 OA
ATOM     31  C   LIG    1        3.891  -7.471  -3.055  0.00  0.00    +0.091 A 
ATOM     32  C   LIG    1        3.129  -8.507  -2.500  0.00  0.00    +0.141 A 
ATOM     33  C   LIG    1        1.885  -8.221  -1.942  0.00  0.00    +0.048 A 
ATOM     34  C   LIG    1        1.397  -6.916  -1.940  0.00  0.00    +0.010 A 
BRANCH  32  35
ATOM     35  O   LIG    1        3.582  -9.803  -2.489  0.00  0.00    -0.505 OA
ATOM     36  H   LIG    1        2.968 -10.415  -2.077  0.00  0.00    +0.292 HD
ENDBRANCH  32  35
ENDBRANCH  22  23
BRANCH  22  37
ATOM     37  O   LIG    1        0.150  -4.392  -2.480  0.00  0.00    -0.389 OA
ATOM     38  H   LIG    1       -0.166  -4.790  -3.295  0.00  0.00    +0.210 HD
ENDBRANCH  22  37
ENDBRANCH  21  22
ENDBRANCH   1  21
TORSDOF 15
