REMARK  Name = DB12433
REMARK                            x       y       z     vdW  Elec       q    Type
REMARK                         _______ _______ _______ _____ _____    ______ ____
ROOT
ATOM      1  C   LIG    1        3.588  -1.451   0.036  0.00  0.00    -0.041 C 
ATOM      2  C   LIG    1        4.291  -1.456  -1.263  0.00  0.00    +0.154 C 
ATOM      3  C   LIG    1        3.631  -1.355  -2.576  0.00  0.00    +0.238 C 
ATOM      4  N   LIG    1        4.515  -1.386  -3.621  0.00  0.00    -0.239 N 
ATOM      5  H   LIG    1        4.109  -1.321  -4.543  0.00  0.00    +0.159 HD
ATOM      6  C   LIG    1        5.880  -1.494  -3.579  0.00  0.00    +0.309 C 
ATOM      7  N   LIG    1        6.470  -1.584  -2.392  0.00  0.00    -0.256 N 
ATOM      8  H   LIG    1        7.448  -1.663  -2.313  0.00  0.00    +0.154 HD
ATOM      9  O   LIG    1        6.427  -1.495  -4.679  0.00  0.00    -0.252 OA
ATOM     10  O   LIG    1        2.425  -1.251  -2.791  0.00  0.00    -0.274 OA
ATOM     11  C   LIG    1        5.650  -1.563  -1.259  0.00  0.00    +0.260 C 
ATOM     12  O   LIG    1        6.364  -1.662  -0.102  0.00  0.00    -0.429 OA
ATOM     13  C   LIG    1        5.794  -1.672   1.151  0.00  0.00    +0.334 C 
ATOM     14  O   LIG    1        6.557  -1.769   2.110  0.00  0.00    -0.246 OA
ATOM     15  C   LIG    1        4.329  -1.564   1.168  0.00  0.00    +0.092 C 
ENDROOT
BRANCH   1  16
ATOM     16  C   LIG    1        2.066  -1.377   0.172  0.00  0.00    +0.032 C 
BRANCH  16  17
ATOM     17  C   LIG    1        1.499   0.050   0.041  0.00  0.00    +0.005 C 
BRANCH  17  18
ATOM     18  C   LIG    1       -0.041   0.081   0.038  0.00  0.00    +0.007 C 
BRANCH  18  20
ATOM     19  C   LIG    1       -0.296   2.337  -1.263  0.00  0.00    +0.011 C 
ATOM     20  C   LIG    1       -0.641   1.504  -0.014  0.00  0.00    -0.032 C 
ATOM     21  C   LIG    1       -2.025   1.677   0.569  0.00  0.00    +0.007 C 
ATOM     22  C   LIG    1       -0.816   2.235   1.298  0.00  0.00    +0.007 C 
ENDBRANCH  18  20
ENDBRANCH  17  18
ENDBRANCH  16  17
ENDBRANCH   1  16
TORSDOF 4
