REMARK  Name = DB12334
REMARK                            x       y       z     vdW  Elec       q    Type
REMARK                         _______ _______ _______ _____ _____    ______ ____
ROOT
ATOM      1  C   LIG    1       -0.721   1.062  -5.326  0.00  0.00    +0.193 C 
ATOM      2  C   LIG    1       -1.898   1.629  -4.454  0.00  0.00    +0.076 C 
ATOM      3  C   LIG    1       -2.665   2.722  -5.277  0.00  0.00    +0.023 C 
ATOM      4  C   LIG    1       -2.882   0.400  -4.282  0.00  0.00    +0.176 C 
ATOM      5  C   LIG    1       -2.456  -0.852  -3.463  0.00  0.00    +0.208 C 
ATOM      6  C   LIG    1       -2.191  -0.533  -1.987  0.00  0.00    -0.023 C 
ATOM      7  C   LIG    1       -3.275   0.196  -1.130  0.00  0.00    +0.022 C 
ATOM      8  C   LIG    1       -3.612  -0.711   0.101  0.00  0.00    +0.018 C 
ATOM      9  C   LIG    1       -4.664   0.451  -1.811  0.00  0.00    +0.018 C 
ATOM     10  C   LIG    1       -2.594   1.548  -0.704  0.00  0.00    +0.116 C 
ATOM     11  C   LIG    1       -2.370   2.572  -1.937  0.00  0.00    +0.217 C 
ATOM     12  C   LIG    1       -1.228   1.316   0.042  0.00  0.00    +0.088 C 
ATOM     13  C   LIG    1       -0.563  -0.092  -0.117  0.00  0.00    +0.205 C 
ATOM     14  C   LIG    1       -0.948  -0.738  -1.458  0.00  0.00    -0.030 C 
ATOM     15  C   LIG    1        0.141  -1.563  -2.150  0.00  0.00    +0.043 C 
ATOM     16  O   LIG    1       -3.985   0.393  -4.842  0.00  0.00    -0.294 OA
ATOM     17  C   LIG    1       -1.304   2.227  -3.088  0.00  0.00    +0.098 C 
ATOM     18  C   LIG    1       -0.149   3.290  -3.357  0.00  0.00    +0.170 C 
ATOM     19  C   LIG    1       -0.577   4.686  -3.864  0.00  0.00    +0.211 C 
ATOM     20  O   LIG    1        0.057   4.435  -5.188  0.00  0.00    -0.368 OA
ATOM     21  C   LIG    1        0.692   3.197  -4.658  0.00  0.00    +0.168 C 
ATOM     22  C   LIG    1        0.493   1.988  -5.586  0.00  0.00    +0.081 C 
ENDROOT
BRANCH   5  23
ATOM     23  O   LIG    1       -3.434  -1.877  -3.540  0.00  0.00    -0.380 OA
ATOM     24  H   LIG    1       -3.531  -2.138  -4.459  0.00  0.00    +0.211 HD
ENDBRANCH   5  23
BRANCH  10  25
ATOM     25  O   LIG    1       -3.452   2.269   0.176  0.00  0.00    -0.384 OA
ATOM     26  H   LIG    1       -4.247   2.513  -0.304  0.00  0.00    +0.210 HD
ENDBRANCH  10  25
BRANCH   1  27
ATOM     27  O   LIG    1       -1.163   0.519  -6.581  0.00  0.00    -0.460 OA
BRANCH  27  28
ATOM     28  C   LIG    1       -0.658  -0.627  -7.099  0.00  0.00    +0.307 C 
ATOM     29  O   LIG    1        0.231  -1.320  -6.603  0.00  0.00    -0.251 OA
BRANCH  28  31
ATOM     30  C   LIG    1       -2.815  -1.381  -8.238  0.00  0.00    +0.015 C 
ATOM     31  C   LIG    1       -1.331  -1.019  -8.415  0.00  0.00    +0.117 C 
ENDBRANCH  28  31
ENDBRANCH  27  28
ENDBRANCH   1  27
BRANCH  11  32
ATOM     32  O   LIG    1       -2.012   3.860  -1.402  0.00  0.00    -0.454 OA
BRANCH  32  33
ATOM     33  C   LIG    1       -2.866   4.921  -1.338  0.00  0.00    +0.340 C 
ATOM     34  O   LIG    1       -4.031   4.886  -1.742  0.00  0.00    -0.245 OA
BRANCH  33  35
ATOM     35  C   LIG    1       -2.225   6.146  -0.754  0.00  0.00    +0.059 A 
ATOM     36  C   LIG    1       -2.945   7.349  -0.726  0.00  0.00    +0.015 A 
ATOM     37  C   LIG    1       -2.374   8.501  -0.191  0.00  0.00    +0.001 A 
ATOM     38  C   LIG    1       -1.080   8.458   0.321  0.00  0.00    +0.000 A 
ATOM     39  C   LIG    1       -0.352   7.272   0.304  0.00  0.00    +0.001 A 
ATOM     40  C   LIG    1       -0.921   6.120  -0.230  0.00  0.00    +0.015 A 
ENDBRANCH  33  35
ENDBRANCH  32  33
ENDBRANCH  11  32
BRANCH  13  41
ATOM     41  O   LIG    1        0.857   0.015   0.030  0.00  0.00    -0.455 OA
BRANCH  41  42
ATOM     42  C   LIG    1        1.449  -0.007   1.251  0.00  0.00    +0.339 C 
ATOM     43  O   LIG    1        0.860  -0.077   2.332  0.00  0.00    -0.248 OA
BRANCH  42  44
ATOM     44  C   LIG    1        2.983   0.096   1.155  0.00  0.00    +0.250 C 
BRANCH  44  45
ATOM     45  O   LIG    1        3.437  -1.211   0.837  0.00  0.00    -0.379 OA
ATOM     46  H   LIG    1        3.055  -1.472  -0.004  0.00  0.00    +0.211 HD
ENDBRANCH  44  45
BRANCH  44  47
ATOM     47  C   LIG    1        3.697   0.651   2.432  0.00  0.00    +0.181 C 
BRANCH  47  48
ATOM     48  C   LIG    1        3.445   2.145   2.647  0.00  0.00    +0.128 A 
ATOM     49  O   LIG    1        2.151   2.535   2.812  0.00  0.00    -0.466 OA
ATOM     50  C   LIG    1        2.143   3.879   2.996  0.00  0.00    +0.195 A 
ATOM     51  C   LIG    1        3.434   4.371   2.956  0.00  0.00    +0.041 A 
ATOM     52  C   LIG    1        4.262   3.270   2.740  0.00  0.00    +0.046 A 
ENDBRANCH  47  48
BRANCH  47  53
ATOM     53  N   LIG    1        5.147   0.405   2.381  0.00  0.00    -0.268 N 
ATOM     54  H   LIG    1        5.637   0.657   1.535  0.00  0.00    +0.153 HD
ATOM     55  C   LIG    1        5.914   0.137   3.506  0.00  0.00    +0.401 C 
ATOM     56  O   LIG    1        5.488  -0.048   4.648  0.00  0.00    -0.226 OA
BRANCH  55  57
ATOM     57  O   LIG    1        7.225   0.123   3.144  0.00  0.00    -0.445 OA
BRANCH  57  58
ATOM     58  C   LIG    1        8.335  -0.083   4.038  0.00  0.00    +0.107 C 
ATOM     59  C   LIG    1        9.578   0.003   3.129  0.00  0.00    +0.055 C 
ATOM     60  C   LIG    1        8.408   1.031   5.111  0.00  0.00    +0.055 C 
ATOM     61  C   LIG    1        8.279  -1.484   4.696  0.00  0.00    +0.055 C 
ENDBRANCH  57  58
ENDBRANCH  55  57
ENDBRANCH  47  53
ENDBRANCH  44  47
ENDBRANCH  42  44
ENDBRANCH  41  42
ENDBRANCH  13  41
BRANCH  18  62
ATOM     62  O   LIG    1        0.663   3.497  -2.190  0.00  0.00    -0.453 OA
BRANCH  62  63
ATOM     63  C   LIG    1        1.690   2.692  -1.828  0.00  0.00    +0.305 C 
ATOM     64  C   LIG    1        2.421   3.228  -0.607  0.00  0.00    +0.136 C 
ATOM     65  O   LIG    1        2.032   1.645  -2.379  0.00  0.00    -0.251 OA
ENDBRANCH  62  63
ENDBRANCH  18  62
TORSDOF 19
