REMARK  Name = DB12574
REMARK                            x       y       z     vdW  Elec       q    Type
REMARK                         _______ _______ _______ _____ _____    ______ ____
ROOT
ATOM      1  N   LIG    1       -1.452   1.796  -1.217  0.00  0.00    -0.268 N 
ATOM      2  H   LIG    1       -1.607   1.686  -2.208  0.00  0.00    +0.156 HD
ATOM      3  C   LIG    1       -0.176   1.694  -0.798  0.00  0.00    +0.323 C 
ATOM      4  N   LIG    1        0.422   0.548  -1.006  0.00  0.00    -0.169 N 
ATOM      5  H   LIG    1       -0.054  -0.169  -1.484  0.00  0.00    +0.178 HD
ATOM      6  O   LIG    1        0.328   2.658  -0.212  0.00  0.00    -0.251 OA
ENDROOT
BRANCH   1   8
ATOM      7  C   LIG    1       -2.526   2.578   0.872  0.00  0.00    +0.025 A 
ATOM      8  C   LIG    1       -2.521   2.389  -0.520  0.00  0.00    +0.036 A 
ATOM      9  C   LIG    1       -3.639   2.772  -1.265  0.00  0.00    +0.044 A 
ATOM     10  C   LIG    1       -4.744   3.354  -0.640  0.00  0.00    +0.061 A 
ATOM     11 CL   LIG    1       -6.101   3.818  -1.608  0.00  0.00    -0.082 Cl
ATOM     12  C   LIG    1       -4.739   3.550   0.747  0.00  0.00    +0.059 A 
ATOM     13 CL   LIG    1       -6.086   4.267   1.562  0.00  0.00    -0.082 Cl
ATOM     14  C   LIG    1       -3.628   3.158   1.497  0.00  0.00    +0.023 A 
ENDBRANCH   1   8
BRANCH   4  15
ATOM     15  S   LIG    1        1.892   0.303  -0.501  0.00  0.00    +0.076 S 
ATOM     16  O   LIG    1        2.016   0.258   0.962  0.00  0.00    -0.150 OA
ATOM     17  O   LIG    1        2.911   1.053  -1.246  0.00  0.00    -0.150 OA
BRANCH  15  18
ATOM     18  C   LIG    1        2.123  -1.393  -1.055  0.00  0.00    +0.109 A 
ATOM     19  C   LIG    1        2.486  -2.398  -0.145  0.00  0.00    +0.036 A 
ATOM     20  C   LIG    1        2.661  -3.706  -0.599  0.00  0.00    -0.001 A 
ATOM     21  C   LIG    1        3.098  -4.957   0.091  0.00  0.00    +0.080 C 
ATOM     22  C   LIG    1        2.930  -6.005  -1.018  0.00  0.00    +0.234 C 
ATOM     23  O   LIG    1        2.761  -5.304  -2.252  0.00  0.00    -0.491 OA
ATOM     24  C   LIG    1        2.506  -3.993  -1.942  0.00  0.00    +0.124 A 
ATOM     25  C   LIG    1        2.171  -3.013  -2.871  0.00  0.00    +0.048 A 
ATOM     26  C   LIG    1        1.973  -1.707  -2.416  0.00  0.00    +0.032 A 
ENDBRANCH  15  18
ENDBRANCH   4  15
TORSDOF 3
