REMARK  Name = DB12864
REMARK                            x       y       z     vdW  Elec       q    Type
REMARK                         _______ _______ _______ _____ _____    ______ ____
ROOT
ATOM      1  C   LIG    1       -0.491  -0.719  -0.562  0.00  0.00    +0.000 A 
ATOM      2  C   LIG    1        0.075   0.385   0.081  0.00  0.00    +0.000 A 
ATOM      3  C   LIG    1       -0.753   1.419   0.535  0.00  0.00    +0.000 A 
ATOM      4  C   LIG    1       -2.132   1.338   0.361  0.00  0.00    +0.000 A 
ATOM      5  C   LIG    1       -2.687   0.227  -0.271  0.00  0.00    +0.000 A 
ATOM      6  C   LIG    1       -1.870  -0.802  -0.734  0.00  0.00    +0.000 A 
ENDROOT
BRANCH   5   7
ATOM      7 AS   LIG    1       -4.581   0.120  -0.521  0.00  0.00    +0.000 As
ATOM      8  S   LIG    1       -5.371   0.829  -2.463  0.00  0.00    +0.000 S 
ATOM      9  C   LIG    1       -6.848   1.619  -1.724  0.00  0.00    +0.000 C 
ATOM     10  C   LIG    1       -6.474   2.376  -0.425  0.00  0.00    +0.000 C 
ATOM     11  S   LIG    1       -5.851   1.270   0.880  0.00  0.00    +0.000 S 
BRANCH   9  12
ATOM     12  C   LIG    1       -7.523   2.534  -2.769  0.00  0.00    +0.000 C 
BRANCH  12  13
ATOM     13  O   LIG    1       -8.069   1.791  -3.841  0.00  0.00    +0.000 OA
ATOM     14  H   LIG    1       -8.457   2.402  -4.471  0.00  0.00    +0.000 HD
ENDBRANCH  12  13
ENDBRANCH   9  12
ENDBRANCH   5   7
BRANCH   2  15
ATOM     15  N   LIG    1        1.475   0.418   0.202  0.00  0.00    +0.000 N 
ATOM     16  H   LIG    1        1.962  -0.090  -0.522  0.00  0.00    +0.000 HD
BRANCH  15  17
ATOM     17  C   LIG    1        2.335   1.104   1.072  0.00  0.00    +0.000 A 
ATOM     18  N   LIG    1        1.837   1.750   2.162  0.00  0.00    +0.000 NA
ATOM     19  C   LIG    1        2.763   2.360   2.942  0.00  0.00    +0.000 A 
ATOM     20  N   LIG    1        4.101   2.364   2.718  0.00  0.00    +0.000 NA
ATOM     21  C   LIG    1        4.486   1.684   1.610  0.00  0.00    +0.000 A 
ATOM     22  N   LIG    1        3.655   1.035   0.756  0.00  0.00    +0.000 NA
BRANCH  19  23
ATOM     23  N   LIG    1        2.303   3.039   4.064  0.00  0.00    +0.000 N 
ATOM     24  H   LIG    1        2.967   3.503   4.666  0.00  0.00    +0.000 HD
ATOM     25  H   LIG    1        1.313   3.051   4.261  0.00  0.00    +0.000 HD
ENDBRANCH  19  23
BRANCH  21  26
ATOM     26  N   LIG    1        5.846   1.648   1.324  0.00  0.00    +0.000 N 
ATOM     27  H   LIG    1        6.164   1.151   0.505  0.00  0.00    +0.000 HD
ATOM     28  H   LIG    1        6.492   2.120   1.939  0.00  0.00    +0.000 HD
ENDBRANCH  21  26
ENDBRANCH  15  17
ENDBRANCH   2  15
TORSDOF 7
