REMARK  Name = DB12000
REMARK                            x       y       z     vdW  Elec       q    Type
REMARK                         _______ _______ _______ _____ _____    ______ ____
ROOT
ATOM      1  C   LIG    1        1.500   0.050  -0.025  0.00  0.00    +0.141 A 
ATOM      2  N   LIG    1        2.166   1.260  -0.031  0.00  0.00    -0.306 N 
ATOM      3  H   LIG    1        1.597   2.092  -0.036  0.00  0.00    +0.170 HD
ATOM      4  C   LIG    1        3.504   1.507  -0.031  0.00  0.00    +0.263 A 
ATOM      5  O   LIG    1        3.931   2.660  -0.037  0.00  0.00    -0.267 OA
ATOM      6  C   LIG    1        4.327   0.230  -0.024  0.00  0.00    +0.106 A 
ATOM      7  C   LIG    1        5.734   0.242  -0.018  0.00  0.00    +0.138 A 
ATOM      8  C   LIG    1        6.405  -0.996  -0.013  0.00  0.00    +0.092 A 
ATOM      9  C   LIG    1        5.705  -2.215  -0.014  0.00  0.00    +0.126 A 
ATOM     10  C   LIG    1        4.313  -2.193  -0.019  0.00  0.00    +0.074 A 
ATOM     11  C   LIG    1        3.626  -0.983  -0.023  0.00  0.00    +0.085 A 
ATOM     12  N   LIG    1        2.221  -1.023  -0.024  0.00  0.00    -0.229 NA
ENDROOT
BRANCH   1  18
ATOM     13  C   LIG    1       -2.880   2.542  -0.045  0.00  0.00    +0.047 C 
ATOM     14  C   LIG    1       -2.121   1.223  -0.007  0.00  0.00    -0.008 A 
ATOM     15  C   LIG    1       -2.807   0.001   0.024  0.00  0.00    +0.126 A 
ATOM     16  C   LIG    1       -2.085  -1.202   0.018  0.00  0.00    -0.008 A 
ATOM     17  C   LIG    1       -0.689  -1.172   0.001  0.00  0.00    +0.018 A 
ATOM     18  C   LIG    1        0.016   0.042  -0.016  0.00  0.00    +0.018 A 
ATOM     19  C   LIG    1       -2.800  -2.545   0.004  0.00  0.00    +0.047 C 
ATOM     20  C   LIG    1       -0.724   1.236  -0.025  0.00  0.00    +0.018 A 
BRANCH  15  21
ATOM     21  O   LIG    1       -4.182  -0.016   0.036  0.00  0.00    -0.489 OA
BRANCH  21  22
ATOM     22  C   LIG    1       -4.758  -0.048   1.338  0.00  0.00    +0.257 C 
BRANCH  22  23
ATOM     23  C   LIG    1       -6.285  -0.026   1.199  0.00  0.00    +0.196 C 
BRANCH  23  24
ATOM     24  O   LIG    1       -6.903  -0.061   2.468  0.00  0.00    -0.392 OA
ATOM     25  H   LIG    1       -7.856  -0.047   2.345  0.00  0.00    +0.210 HD
ENDBRANCH  23  24
ENDBRANCH  22  23
ENDBRANCH  21  22
ENDBRANCH  15  21
ENDBRANCH   1  18
BRANCH   7  26
ATOM     26  O   LIG    1        6.397   1.458  -0.015  0.00  0.00    -0.494 OA
ATOM     27  C   LIG    1        7.820   1.493  -0.004  0.00  0.00    +0.277 C 
ENDBRANCH   7  26
BRANCH   9  28
ATOM     28  O   LIG    1        6.301  -3.461  -0.011  0.00  0.00    -0.495 OA
ATOM     29  C   LIG    1        7.722  -3.554  -0.000  0.00  0.00    +0.277 C 
ENDBRANCH   9  28
TORSDOF 7
