REMARK  Name = DB12176
REMARK                            x       y       z     vdW  Elec       q    Type
REMARK                         _______ _______ _______ _____ _____    ______ ____
ROOT
ATOM      1  C   LIG    1        1.409  -0.350   0.028  0.00  0.00    +0.251 C 
ENDROOT
BRANCH   1   2
ATOM      2  C   LIG    1       -0.130  -0.431  -0.001  0.00  0.00    +0.280 C 
BRANCH   2   3
ATOM      3  O   LIG    1       -0.703   0.869  -0.078  0.00  0.00    -0.461 OA
BRANCH   3   4
ATOM      4  C   LIG    1       -2.040   1.037  -0.066  0.00  0.00    +0.307 C 
ATOM      5  O   LIG    1       -2.886   0.143  -0.014  0.00  0.00    -0.251 OA
BRANCH   4   6
ATOM      6  C   LIG    1       -2.442   2.512  -0.121  0.00  0.00    +0.120 C 
BRANCH   6   7
ATOM      7  C   LIG    1       -2.080   3.278   1.166  0.00  0.00    +0.011 C 
BRANCH   7   8
ATOM      8  C   LIG    1       -2.485   4.762   1.101  0.00  0.00    +0.001 C 
BRANCH   8   9
ATOM      9  C   LIG    1       -2.257   5.541   2.412  0.00  0.00    +0.000 C 
BRANCH   9  10
ATOM     10  C   LIG    1       -0.778   5.670   2.827  0.00  0.00    -0.000 C 
BRANCH  10  11
ATOM     11  C   LIG    1       -0.580   6.525   4.089  0.00  0.00    -0.003 C 
ATOM     12  C   LIG    1        0.893   6.654   4.500  0.00  0.00    +0.004 C 
ENDBRANCH  10  11
ENDBRANCH   9  10
ENDBRANCH   8   9
ENDBRANCH   7   8
ENDBRANCH   6   7
ENDBRANCH   4   6
ENDBRANCH   3   4
ENDBRANCH   2   3
ENDBRANCH   1   2
BRANCH   1  13
ATOM     13  O   LIG    1        1.788   0.200   1.289  0.00  0.00    -0.454 OA
BRANCH  13  14
ATOM     14  C   LIG    1        3.034   0.042   1.799  0.00  0.00    +0.308 C 
ATOM     15  O   LIG    1        3.935  -0.640   1.307  0.00  0.00    -0.251 OA
BRANCH  14  16
ATOM     16  C   LIG    1        3.255   0.831   3.095  0.00  0.00    +0.120 C 
BRANCH  16  17
ATOM     17  C   LIG    1        2.750   2.293   3.063  0.00  0.00    +0.011 C 
BRANCH  17  18
ATOM     18  C   LIG    1        3.419   3.180   1.991  0.00  0.00    +0.001 C 
BRANCH  18  19
ATOM     19  C   LIG    1        2.907   4.630   2.014  0.00  0.00    +0.000 C 
BRANCH  19  20
ATOM     20  C   LIG    1        3.538   5.512   0.924  0.00  0.00    -0.000 C 
BRANCH  20  21
ATOM     21  C   LIG    1        3.015   6.959   0.950  0.00  0.00    -0.003 C 
ATOM     22  C   LIG    1        3.616   7.832  -0.159  0.00  0.00    +0.004 C 
ENDBRANCH  20  21
ENDBRANCH  19  20
ENDBRANCH  18  19
ENDBRANCH  17  18
ENDBRANCH  16  17
ENDBRANCH  14  16
ENDBRANCH  13  14
ENDBRANCH   1  13
BRANCH   1  23
ATOM     23  C   LIG    1        2.005   0.478  -1.134  0.00  0.00    +0.280 C 
BRANCH  23  24
ATOM     24  O   LIG    1        1.650  -0.098  -2.384  0.00  0.00    -0.461 OA
BRANCH  24  25
ATOM     25  C   LIG    1        2.058   0.466  -3.539  0.00  0.00    +0.307 C 
ATOM     26  O   LIG    1        2.743   1.486  -3.647  0.00  0.00    -0.251 OA
BRANCH  25  27
ATOM     27  C   LIG    1        1.607  -0.329  -4.769  0.00  0.00    +0.120 C 
BRANCH  27  28
ATOM     28  C   LIG    1        2.765  -0.777  -5.687  0.00  0.00    +0.011 C 
BRANCH  28  29
ATOM     29  C   LIG    1        3.742  -1.776  -5.031  0.00  0.00    +0.001 C 
BRANCH  29  30
ATOM     30  C   LIG    1        4.833  -2.274  -5.994  0.00  0.00    +0.000 C 
BRANCH  30  31
ATOM     31  C   LIG    1        5.805  -3.266  -5.332  0.00  0.00    -0.000 C 
BRANCH  31  32
ATOM     32  C   LIG    1        6.892  -3.777  -6.293  0.00  0.00    -0.003 C 
ATOM     33  C   LIG    1        7.868  -4.756  -5.625  0.00  0.00    +0.004 C 
ENDBRANCH  31  32
ENDBRANCH  30  31
ENDBRANCH  29  30
ENDBRANCH  28  29
ENDBRANCH  27  28
ENDBRANCH  25  27
ENDBRANCH  24  25
ENDBRANCH  23  24
ENDBRANCH   1  23
TORSDOF 26
