REMARK  Name = DB12916
REMARK                            x       y       z     vdW  Elec       q    Type
REMARK                         _______ _______ _______ _____ _____    ______ ____
ROOT
ATOM      1  C   LIG    1       -0.098  -0.062  -0.059  0.00  0.00    +0.175 C 
ENDROOT
BRANCH   1   2
ATOM      2  O   LIG    1       -0.617   1.254   0.065  0.00  0.00    -0.387 OA
ATOM      3  H   LIG    1       -0.314   1.625   0.897  0.00  0.00    +0.210 HD
ENDBRANCH   1   2
BRANCH   1   4
ATOM      4  C   LIG    1       -0.707  -0.772  -1.308  0.00  0.00    +0.156 C 
BRANCH   4   5
ATOM      5  C   LIG    1       -2.249  -0.778  -1.367  0.00  0.00    +0.113 C 
ATOM      6 BR   LIG    1       -3.007  -1.832   0.145  0.00  0.00    -0.089 Br
ENDBRANCH   4   5
BRANCH   4   7
ATOM      7  O   LIG    1       -0.226  -0.196  -2.510  0.00  0.00    -0.388 OA
ATOM      8  H   LIG    1        0.733  -0.237  -2.504  0.00  0.00    +0.210 HD
ENDBRANCH   4   7
ENDBRANCH   1   4
BRANCH   1   9
ATOM      9  C   LIG    1        1.462  -0.015  -0.021  0.00  0.00    +0.175 C 
BRANCH   9  10
ATOM     10  O   LIG    1        1.980  -1.331  -0.150  0.00  0.00    -0.387 OA
ATOM     11  H   LIG    1        2.939  -1.282  -0.175  0.00  0.00    +0.210 HD
ENDBRANCH   9  10
BRANCH   9  12
ATOM     12  C   LIG    1        2.071   0.690   1.229  0.00  0.00    +0.156 C 
BRANCH  12  13
ATOM     13  O   LIG    1        1.599   0.086   2.421  0.00  0.00    -0.388 OA
ATOM     14  H   LIG    1        1.883  -0.831   2.432  0.00  0.00    +0.210 HD
ENDBRANCH  12  13
BRANCH  12  15
ATOM     15  C   LIG    1        3.615   0.699   1.244  0.00  0.00    +0.113 C 
ATOM     16 BR   LIG    1        4.298   1.812   2.750  0.00  0.00    -0.089 Br
ENDBRANCH  12  15
ENDBRANCH   9  12
ENDBRANCH   1   9
TORSDOF 9
