REMARK  Name = DB12029
REMARK                            x       y       z     vdW  Elec       q    Type
REMARK                         _______ _______ _______ _____ _____    ______ ____
ROOT
ATOM      1  C   LIG    1        1.570   0.213  -0.033  0.00  0.00    +0.211 C 
ATOM      2  C   LIG    1        2.013  -0.632  -1.250  0.00  0.00    +0.093 C 
ATOM      3  C   LIG    1        3.551  -0.888  -1.274  0.00  0.00    +0.168 C 
ATOM      4  C   LIG    1        4.011  -1.509   0.085  0.00  0.00    +0.080 C 
ATOM      5  C   LIG    1        3.540  -0.720   1.332  0.00  0.00    +0.150 C 
ATOM      6  C   LIG    1        2.009  -0.460   1.298  0.00  0.00    +0.184 C 
ENDROOT
BRANCH   3   7
ATOM      7  C   LIG    1        3.886  -1.885  -2.455  0.00  0.00    +0.337 C 
ATOM      8  O   LIG    1        3.402  -3.041  -2.401  0.00  0.00    -0.248 OA
BRANCH   7   9
ATOM      9  O   LIG    1        4.604  -1.513  -3.416  0.00  0.00    -0.479 OA
ATOM     10  H   LIG    1        4.558  -0.628  -3.720  0.00  0.00    +0.295 HD
ENDBRANCH   7   9
ENDBRANCH   3   7
BRANCH   5  11
ATOM     11  O   LIG    1        4.271   0.487   1.479  0.00  0.00    -0.389 OA
ATOM     12  H   LIG    1        5.167   0.338   1.170  0.00  0.00    +0.210 HD
ENDBRANCH   5  11
BRANCH   3  13
ATOM     13  O   LIG    1        4.229   0.349  -1.500  0.00  0.00    -0.377 OA
ATOM     14  H   LIG    1        4.188   0.544  -2.439  0.00  0.00    +0.211 HD
ENDBRANCH   3  13
BRANCH   6  15
ATOM     15  O   LIG    1        1.593   0.273   2.439  0.00  0.00    -0.386 OA
ATOM     16  H   LIG    1        2.032   1.127   2.422  0.00  0.00    +0.210 HD
ENDBRANCH   6  15
BRANCH   1  17
ATOM     17  O   LIG    1        0.151   0.373  -0.118  0.00  0.00    -0.455 OA
BRANCH  17  18
ATOM     18  C   LIG    1       -0.474   1.525   0.232  0.00  0.00    +0.332 C 
ATOM     19  O   LIG    1        0.098   2.538   0.644  0.00  0.00    -0.246 OA
BRANCH  18  20
ATOM     20  C   LIG    1       -1.918   1.421   0.060  0.00  0.00    +0.092 C 
ATOM     21  C   LIG    1       -2.759   2.454   0.286  0.00  0.00    +0.015 C 
BRANCH  21  22
ATOM     22  C   LIG    1       -4.231   2.431   0.143  0.00  0.00    -0.021 A 
ATOM     23  C   LIG    1       -4.933   3.640   0.205  0.00  0.00    +0.012 A 
ATOM     24  C   LIG    1       -6.320   3.669   0.064  0.00  0.00    +0.050 A 
ATOM     25  C   LIG    1       -7.029   2.486  -0.140  0.00  0.00    +0.158 A 
ATOM     26  C   LIG    1       -6.342   1.267  -0.203  0.00  0.00    +0.159 A 
ATOM     27  C   LIG    1       -4.952   1.245  -0.063  0.00  0.00    +0.057 A 
BRANCH  26  28
ATOM     28  O   LIG    1       -7.012   0.086  -0.401  0.00  0.00    -0.503 OA
ATOM     29  H   LIG    1       -6.431  -0.677  -0.423  0.00  0.00    +0.292 HD
ENDBRANCH  26  28
BRANCH  25  30
ATOM     30  O   LIG    1       -8.394   2.539  -0.277  0.00  0.00    -0.503 OA
ATOM     31  H   LIG    1       -8.745   3.430  -0.217  0.00  0.00    +0.292 HD
ENDBRANCH  25  30
ENDBRANCH  21  22
ENDBRANCH  18  20
ENDBRANCH  17  18
ENDBRANCH   1  17
TORSDOF 11
