REMARK  Name = DB12969
REMARK                            x       y       z     vdW  Elec       q    Type
REMARK                         _______ _______ _______ _____ _____    ______ ____
ROOT
ATOM      1  C   LIG    1       -2.047  -0.714   1.237  0.00  0.00    +0.176 C 
ATOM      2  C   LIG    1       -2.592  -1.536   0.047  0.00  0.00    +0.176 C 
ATOM      3  C   LIG    1       -2.159  -0.926  -1.310  0.00  0.00    +0.176 C 
ATOM      4  C   LIG    1       -0.621  -0.733  -1.404  0.00  0.00    +0.177 C 
ATOM      5  C   LIG    1       -0.033   0.055  -0.201  0.00  0.00    +0.180 C 
ATOM      6  C   LIG    1       -0.506  -0.531   1.163  0.00  0.00    +0.177 C 
ENDROOT
BRANCH   1   7
ATOM      7  O   LIG    1       -2.731   0.527   1.337  0.00  0.00    -0.386 OA
ATOM      8  H   LIG    1       -3.262   0.520   2.136  0.00  0.00    +0.210 HD
ENDBRANCH   1   7
BRANCH   2   9
ATOM      9  O   LIG    1       -2.219  -2.900   0.165  0.00  0.00    -0.386 OA
ATOM     10  H   LIG    1       -3.017  -3.432   0.213  0.00  0.00    +0.210 HD
ENDBRANCH   2   9
BRANCH   3  11
ATOM     11  O   LIG    1       -2.680  -1.669  -2.401  0.00  0.00    -0.386 OA
ATOM     12  H   LIG    1       -2.288  -2.545  -2.386  0.00  0.00    +0.210 HD
ENDBRANCH   3  11
BRANCH   4  13
ATOM     13  O   LIG    1       -0.268  -0.100  -2.623  0.00  0.00    -0.386 OA
ATOM     14  H   LIG    1        0.631   0.227  -2.543  0.00  0.00    +0.210 HD
ENDBRANCH   4  13
BRANCH   5  15
ATOM     15  O   LIG    1        1.391  -0.005  -0.332  0.00  0.00    -0.374 OA
ATOM     16  C   LIG    1        2.118   1.121   0.146  0.00  0.00    +0.194 C 
ENDBRANCH   5  15
BRANCH   6  17
ATOM     17  O   LIG    1       -0.051   0.220   2.274  0.00  0.00    -0.386 OA
ATOM     18  H   LIG    1       -0.442   1.096   2.227  0.00  0.00    +0.210 HD
ENDBRANCH   6  17
TORSDOF 6
