REMARK  Name = DB12499
REMARK                            x       y       z     vdW  Elec       q    Type
REMARK                         _______ _______ _______ _____ _____    ______ ____
ROOT
ATOM      1  C   LIG    1        1.706   0.175   0.039  0.00  0.00    +0.178 C 
ATOM      2  C   LIG    1        2.405   0.771  -1.233  0.00  0.00    +0.057 C 
ATOM      3  C   LIG    1        2.680  -0.409  -2.185  0.00  0.00    +0.009 C 
ATOM      4  C   LIG    1        2.154  -1.645  -1.443  0.00  0.00    +0.003 C 
ATOM      5  C   LIG    1        2.722  -3.049  -1.799  0.00  0.00    -0.003 C 
ATOM      6  C   LIG    1        2.593  -3.350  -3.304  0.00  0.00    +0.008 C 
ATOM      7  C   LIG    1        3.196  -4.717  -3.650  0.00  0.00    +0.032 C 
ATOM      8  C   LIG    1        2.483  -5.814  -2.854  0.00  0.00    -0.060 C 
ATOM      9  C   LIG    1        1.966  -6.901  -3.476  0.00  0.00    +0.046 C 
ATOM     10  C   LIG    1        1.325  -8.018  -2.799  0.00  0.00    +0.156 C 
ATOM     11  C   LIG    1        1.500  -8.061  -1.279  0.00  0.00    +0.080 C 
ATOM     12  C   LIG    1        1.451  -6.644  -0.677  0.00  0.00    +0.019 C 
ATOM     13  O   LIG    1        0.776  -8.923  -3.424  0.00  0.00    -0.293 OA
ATOM     14  C   LIG    1        2.447  -5.613  -1.310  0.00  0.00    -0.007 C 
ATOM     15  C   LIG    1        3.875  -5.889  -0.764  0.00  0.00    +0.016 C 
ATOM     16  C   LIG    1        1.951  -4.147  -0.995  0.00  0.00    +0.002 C 
ATOM     17  C   LIG    1        1.904  -3.811   0.531  0.00  0.00    +0.005 C 
ATOM     18  C   LIG    1        1.409  -2.372   0.816  0.00  0.00    +0.011 C 
ATOM     19  C   LIG    1        2.265  -1.303   0.069  0.00  0.00    +0.018 C 
ATOM     20  C   LIG    1        3.743  -1.340   0.593  0.00  0.00    +0.016 C 
ENDROOT
BRANCH   1  21
ATOM     21  C   LIG    1        1.978   0.992   1.351  0.00  0.00    +0.202 C 
ATOM     22  O   LIG    1        2.765   1.942   1.353  0.00  0.00    -0.291 OA
BRANCH  21  23
ATOM     23  C   LIG    1        1.225   0.574   2.632  0.00  0.00    +0.234 C 
BRANCH  23  24
ATOM     24  O   LIG    1        1.469   1.493   3.682  0.00  0.00    -0.387 OA
ATOM     25  H   LIG    1        0.995   1.200   4.464  0.00  0.00    +0.210 HD
ENDBRANCH  23  24
ENDBRANCH  21  23
ENDBRANCH   1  21
BRANCH   1  26
ATOM     26  O   LIG    1        0.262   0.123  -0.136  0.00  0.00    -0.450 OA
BRANCH  26  27
ATOM     27  C   LIG    1       -0.574   1.188  -0.351  0.00  0.00    +0.308 C 
ATOM     28  O   LIG    1       -0.240   2.373  -0.406  0.00  0.00    -0.251 OA
BRANCH  27  29
ATOM     29  C   LIG    1       -2.029   0.734  -0.516  0.00  0.00    +0.117 C 
ATOM     30  C   LIG    1       -3.034   1.878  -0.738  0.00  0.00    +0.015 C 
ENDBRANCH  27  29
ENDBRANCH  26  27
ENDBRANCH   1  26
TORSDOF 6
