REMARK  Name = DB12931
REMARK                            x       y       z     vdW  Elec       q    Type
REMARK                         _______ _______ _______ _____ _____    ______ ____
ROOT
ATOM      1  N   LIG    1       -1.993   1.014   0.218  0.00  0.00    -0.269 N 
ATOM      2  H   LIG    1       -2.262   0.042   0.174  0.00  0.00    +0.156 HD
ATOM      3  C   LIG    1       -0.684   1.266   0.420  0.00  0.00    +0.306 C 
ATOM      4  N   LIG    1        0.085   0.012   0.403  0.00  0.00    -0.264 N 
ATOM      5  H   LIG    1       -0.445  -0.846   0.371  0.00  0.00    +0.153 HD
ATOM      6  O   LIG    1       -0.155   2.371   0.550  0.00  0.00    -0.252 OA
ENDROOT
BRANCH   1   7
ATOM      7  C   LIG    1       -3.063   1.919   0.074  0.00  0.00    +0.036 A 
ATOM      8  C   LIG    1       -4.346   1.362   0.080  0.00  0.00    +0.023 A 
ATOM      9  C   LIG    1       -5.472   2.172  -0.064  0.00  0.00    +0.003 A 
ATOM     10  C   LIG    1       -5.326   3.549  -0.221  0.00  0.00    +0.020 A 
ATOM     11  C   LIG    1       -4.053   4.117  -0.237  0.00  0.00    +0.043 A 
ATOM     12 CL   LIG    1       -3.873   5.822  -0.441  0.00  0.00    -0.083 Cl
ATOM     13  C   LIG    1       -2.923   3.309  -0.093  0.00  0.00    +0.043 A 
ENDBRANCH   1   7
BRANCH   4  14
ATOM     14  C   LIG    1        1.424  -0.045   0.123  0.00  0.00    +0.198 C 
ATOM     15  N   LIG    1        2.274  -1.112   0.396  0.00  0.00    -0.260 NA
ATOM     16  C   LIG    1        1.936  -2.348   1.091  0.00  0.00    +0.109 C 
ATOM     17  C   LIG    1        3.540  -0.794  -0.089  0.00  0.00    +0.132 C 
ATOM     18  C   LIG    1        3.476   0.455  -0.686  0.00  0.00    +0.182 C 
ATOM     19  N   LIG    1        2.175   0.895  -0.560  0.00  0.00    -0.247 NA
ATOM     20  H   LIG    1        1.830   1.780  -0.904  0.00  0.00    +0.128 HD
BRANCH  18  21
ATOM     21  O   LIG    1        4.376   1.133  -1.263  0.00  0.00    -0.369 OA
ATOM     22  H   LIG    1        4.000   1.971  -1.574  0.00  0.00    +0.212 HD
ENDBRANCH  18  21
ENDBRANCH   4  14
TORSDOF 3
