REMARK  Name = DB12679
REMARK                            x       y       z     vdW  Elec       q    Type
REMARK                         _______ _______ _______ _____ _____    ______ ____
ROOT
ATOM      1  N   LIG    1        1.472   0.447  -0.198  0.00  0.00    -0.304 N 
ATOM      2  H   LIG    1        1.862   1.361  -0.371  0.00  0.00    +0.150 HD
ATOM      3  C   LIG    1        2.317  -0.539   0.172  0.00  0.00    +0.255 C 
ATOM      4  O   LIG    1        1.908  -1.657   0.496  0.00  0.00    -0.269 OA
ENDROOT
BRANCH   1   6
ATOM      5  C   LIG    1       -0.592   1.740  -0.577  0.00  0.00    +0.033 C 
ATOM      6  C   LIG    1        0.007   0.359  -0.261  0.00  0.00    +0.100 C 
BRANCH   6   7
ATOM      7  C   LIG    1       -0.541  -0.700  -1.227  0.00  0.00    -0.027 A 
ATOM      8  C   LIG    1        0.067  -0.924  -2.470  0.00  0.00    +0.005 A 
ATOM      9  C   LIG    1       -0.435  -1.899  -3.328  0.00  0.00    +0.000 A 
ATOM     10  C   LIG    1       -1.542  -2.652  -2.945  0.00  0.00    +0.000 A 
ATOM     11  C   LIG    1       -2.152  -2.440  -1.711  0.00  0.00    +0.000 A 
ATOM     12  C   LIG    1       -1.650  -1.465  -0.852  0.00  0.00    +0.005 A 
ENDBRANCH   6   7
ENDBRANCH   1   6
BRANCH   3  13
ATOM     13  C   LIG    1        3.735  -0.186   0.151  0.00  0.00    +0.115 C 
ATOM     14  C   LIG    1        4.662  -1.118   0.500  0.00  0.00    +0.051 C 
BRANCH  14  15
ATOM     15  C   LIG    1        6.141  -1.004   0.550  0.00  0.00    +0.066 A 
ATOM     16  N   LIG    1        6.746   0.128   0.096  0.00  0.00    -0.241 NA
ATOM     17  C   LIG    1        8.099   0.221   0.145  0.00  0.00    +0.107 A 
ATOM     18 BR   LIG    1        8.929   1.809  -0.496  0.00  0.00    -0.029 Br
ATOM     19  C   LIG    1        8.898  -0.807   0.649  0.00  0.00    +0.035 A 
ATOM     20  C   LIG    1        8.279  -1.967   1.115  0.00  0.00    +0.005 A 
ATOM     21  C   LIG    1        6.888  -2.071   1.066  0.00  0.00    +0.028 A 
ENDBRANCH  14  15
BRANCH  13  22
ATOM     22  C   LIG    1        4.086   1.150  -0.242  0.00  0.00    +0.104 C 
ATOM     23  N   LIG    1        4.335   2.236  -0.559  0.00  0.00    -0.191 NA
ENDBRANCH  13  22
ENDBRANCH   3  13
TORSDOF 5
