REMARK  Name = DB12748
REMARK                            x       y       z     vdW  Elec       q    Type
REMARK                         _______ _______ _______ _____ _____    ______ ____
ROOT
ATOM      1  C   LIG    1        1.642   0.006  -0.253  0.00  0.00    +0.159 C 
ENDROOT
BRANCH   1   4
ATOM      2  N   LIG    1       -0.445   1.269  -0.225  0.00  0.00    -0.302 N 
ATOM      3  H   LIG    1        0.147   2.081  -0.320  0.00  0.00    +0.150 HD
ATOM      4  C   LIG    1        0.108   0.048  -0.177  0.00  0.00    +0.234 C 
ATOM      5  O   LIG    1       -0.525  -1.003  -0.071  0.00  0.00    -0.274 OA
BRANCH   2   6
ATOM      6  C   LIG    1       -1.879   1.524  -0.120  0.00  0.00    +0.159 C 
BRANCH   6   9
ATOM      7  N   LIG    1       -3.827   0.953  -1.469  0.00  0.00    -0.302 N 
ATOM      8  H   LIG    1       -4.254   0.721  -0.584  0.00  0.00    +0.150 HD
ATOM      9  C   LIG    1       -2.560   1.397  -1.491  0.00  0.00    +0.234 C 
ATOM     10  O   LIG    1       -1.946   1.702  -2.515  0.00  0.00    -0.274 OA
BRANCH   7  11
ATOM     11  C   LIG    1       -4.669   0.771  -2.651  0.00  0.00    +0.163 C 
BRANCH  11  14
ATOM     12  N   LIG    1       -4.659   2.416  -4.450  0.00  0.00    -0.302 N 
ATOM     13  H   LIG    1       -4.071   1.749  -4.929  0.00  0.00    +0.150 HD
ATOM     14  C   LIG    1       -5.111   2.127  -3.220  0.00  0.00    +0.234 C 
ATOM     15  O   LIG    1       -5.825   2.868  -2.542  0.00  0.00    -0.274 OA
BRANCH  12  16
ATOM     16  C   LIG    1       -4.926   3.662  -5.177  0.00  0.00    +0.171 C 
BRANCH  16  17
ATOM     17  C   LIG    1       -6.384   3.667  -5.684  0.00  0.00    +0.235 C 
ATOM     18  N   LIG    1       -7.046   4.825  -5.536  0.00  0.00    -0.302 N 
ATOM     19  H   LIG    1       -6.568   5.620  -5.136  0.00  0.00    +0.150 HD
ATOM     20  O   LIG    1       -6.861   2.648  -6.184  0.00  0.00    -0.274 OA
BRANCH  18  21
ATOM     21  C   LIG    1       -8.439   5.059  -5.922  0.00  0.00    +0.159 C 
BRANCH  21  22
ATOM     22  C   LIG    1       -8.561   6.387  -6.696  0.00  0.00    +0.231 C 
ATOM     23  N   LIG    1       -9.472   6.429  -7.673  0.00  0.00    -0.328 N 
ATOM     24  H   LIG    1       -9.600   7.277  -8.205  0.00  0.00    +0.145 HD
ATOM     25  H   LIG    1      -10.032   5.618  -7.889  0.00  0.00    +0.145 HD
ATOM     26  O   LIG    1       -7.867   7.358  -6.394  0.00  0.00    -0.274 OA
ENDBRANCH  21  22
BRANCH  21  27
ATOM     27  C   LIG    1       -9.324   5.075  -4.654  0.00  0.00    +0.032 C 
BRANCH  27  28
ATOM     28  C   LIG    1       -9.354   3.735  -3.898  0.00  0.00    +0.000 C 
BRANCH  28  29
ATOM     29  C   LIG    1      -10.269   3.764  -2.661  0.00  0.00    -0.019 C 
BRANCH  29  30
ATOM     30  C   LIG    1      -10.272   2.449  -1.859  0.00  0.00    -0.086 C 
BRANCH  30  31
ATOM     31  N   LIG    1       -8.991   2.202  -1.171  0.00  0.00    +0.378 N 
ATOM     32  H   LIG    1       -8.247   2.149  -1.853  0.00  0.00    -0.090 HD
ATOM     33  H   LIG    1       -8.801   2.960  -0.530  0.00  0.00    -0.090 HD
ATOM     34  H   LIG    1       -9.042   1.333  -0.659  0.00  0.00    -0.090 HD
ENDBRANCH  30  31
ENDBRANCH  29  30
ENDBRANCH  28  29
ENDBRANCH  27  28
ENDBRANCH  21  27
ENDBRANCH  18  21
ENDBRANCH  16  17
BRANCH  16  35
ATOM     35  C   LIG    1       -3.891   3.897  -6.330  0.00  0.00    +0.078 C 
BRANCH  35  39
ATOM     36  C   LIG    1        0.207   3.408  -5.032  0.00  0.00    +0.000 A 
ATOM     37  C   LIG    1       -0.649   4.227  -4.300  0.00  0.00    +0.000 A 
ATOM     38  C   LIG    1       -1.965   4.399  -4.719  0.00  0.00    +0.004 A 
ATOM     39  C   LIG    1       -2.430   3.751  -5.872  0.00  0.00    -0.038 A 
ATOM     40  C   LIG    1       -1.559   2.932  -6.599  0.00  0.00    +0.004 A 
ATOM     41  C   LIG    1       -0.241   2.763  -6.181  0.00  0.00    +0.000 A 
ENDBRANCH  35  39
BRANCH  35  42
ATOM     42  C   LIG    1       -4.134   5.200  -7.109  0.00  0.00    -0.038 A 
ATOM     43  C   LIG    1       -4.400   5.149  -8.482  0.00  0.00    +0.004 A 
ATOM     44  C   LIG    1       -4.665   6.318  -9.189  0.00  0.00    +0.000 A 
ATOM     45  C   LIG    1       -4.667   7.541  -8.523  0.00  0.00    +0.000 A 
ATOM     46  C   LIG    1       -4.404   7.606  -7.157  0.00  0.00    +0.000 A 
ATOM     47  C   LIG    1       -4.137   6.436  -6.451  0.00  0.00    +0.004 A 
ENDBRANCH  35  42
ENDBRANCH  16  35
ENDBRANCH  12  16
ENDBRANCH  11  14
BRANCH  11  48
ATOM     48  C   LIG    1       -5.883  -0.110  -2.290  0.00  0.00    +0.069 C 
BRANCH  48  49
ATOM     49  C   LIG    1       -5.586  -1.457  -1.694  0.00  0.00    -0.020 A 
ATOM     50  C   LIG    1       -6.318  -2.169  -0.648  0.00  0.00    +0.003 A 
ATOM     51  C   LIG    1       -7.450  -1.877   0.151  0.00  0.00    +0.010 A 
ATOM     52  C   LIG    1       -7.924  -2.794   1.112  0.00  0.00    +0.001 A 
ATOM     53  C   LIG    1       -7.276  -4.031   1.299  0.00  0.00    +0.002 A 
ATOM     54  C   LIG    1       -6.151  -4.356   0.520  0.00  0.00    +0.026 A 
ATOM     55  C   LIG    1       -5.688  -3.434  -0.436  0.00  0.00    +0.047 A 
ATOM     56  N   LIG    1       -4.646  -3.453  -1.339  0.00  0.00    -0.360 N 
ATOM     57  H   LIG    1       -3.991  -4.211  -1.468  0.00  0.00    +0.165 HD
ATOM     58  C   LIG    1       -4.599  -2.296  -2.088  0.00  0.00    +0.087 A 
ENDBRANCH  48  49
ENDBRANCH  11  48
ENDBRANCH   7  11
ENDBRANCH   6   9
BRANCH   6  59
ATOM     59  C   LIG    1       -2.098   2.928   0.485  0.00  0.00    +0.032 C 
BRANCH  59  60
ATOM     60  C   LIG    1       -1.390   3.172   1.836  0.00  0.00    +0.000 C 
BRANCH  60  61
ATOM     61  C   LIG    1       -1.698   2.126   2.923  0.00  0.00    -0.019 C 
BRANCH  61  62
ATOM     62  C   LIG    1       -1.015   2.453   4.260  0.00  0.00    -0.086 C 
BRANCH  62  63
ATOM     63  N   LIG    1       -1.308   1.437   5.286  0.00  0.00    +0.378 N 
ATOM     64  H   LIG    1       -2.306   1.390   5.439  0.00  0.00    -0.090 HD
ATOM     65  H   LIG    1       -0.974   0.536   4.973  0.00  0.00    -0.090 HD
ATOM     66  H   LIG    1       -0.846   1.686   6.149  0.00  0.00    -0.090 HD
ENDBRANCH  62  63
ENDBRANCH  61  62
ENDBRANCH  60  61
ENDBRANCH  59  60
ENDBRANCH   6  59
ENDBRANCH   2   6
ENDBRANCH   1   4
BRANCH   1  67
ATOM     67  N   LIG    1        2.186  -0.618   0.952  0.00  0.00    -0.302 N 
ATOM     68  H   LIG    1        2.494  -1.575   0.856  0.00  0.00    +0.150 HD
ATOM     69  C   LIG    1        2.220  -0.031   2.161  0.00  0.00    +0.234 C 
ATOM     70  O   LIG    1        1.875   1.132   2.381  0.00  0.00    -0.274 OA
BRANCH  69  71
ATOM     71  C   LIG    1        2.702  -0.906   3.321  0.00  0.00    +0.163 C 
BRANCH  71  72
ATOM     72  N   LIG    1        3.957  -0.370   3.844  0.00  0.00    -0.302 N 
ATOM     73  H   LIG    1        3.947   0.605   4.108  0.00  0.00    +0.150 HD
ATOM     74  C   LIG    1        5.064  -1.102   4.049  0.00  0.00    +0.234 C 
ATOM     75  O   LIG    1        5.183  -2.290   3.742  0.00  0.00    -0.274 OA
BRANCH  74  76
ATOM     76  C   LIG    1        6.231  -0.375   4.727  0.00  0.00    +0.163 C 
BRANCH  76  77
ATOM     77  N   LIG    1        6.868  -1.262   5.699  0.00  0.00    -0.302 N 
ATOM     78  H   LIG    1        7.586  -1.873   5.336  0.00  0.00    +0.150 HD
ATOM     79  C   LIG    1        6.550  -1.309   7.001  0.00  0.00    +0.234 C 
ATOM     80  O   LIG    1        5.693  -0.606   7.539  0.00  0.00    -0.274 OA
BRANCH  79  81
ATOM     81  C   LIG    1        7.340  -2.315   7.850  0.00  0.00    +0.159 C 
BRANCH  81  82
ATOM     82  N   LIG    1        8.020  -1.624   8.947  0.00  0.00    -0.305 N 
ATOM     83  H   LIG    1        7.576  -1.692   9.851  0.00  0.00    +0.149 HD
ATOM     84  C   LIG    1        9.091  -0.824   8.788  0.00  0.00    +0.199 C 
ATOM     85  O   LIG    1        9.684  -0.684   7.713  0.00  0.00    -0.278 OA
BRANCH  84  86
ATOM     86  C   LIG    1        9.520  -0.028  10.044  0.00  0.00    +0.013 C 
BRANCH  86  87
ATOM     87  N   LIG    1       11.008  -0.221  10.180  0.00  0.00    +0.386 N 
ATOM     88  H   LIG    1       11.461   0.141   9.352  0.00  0.00    -0.089 HD
ATOM     89  H   LIG    1       11.332   0.282  10.993  0.00  0.00    -0.089 HD
ATOM     90  H   LIG    1       11.207  -1.206  10.286  0.00  0.00    -0.089 HD
ENDBRANCH  86  87
BRANCH  86  91
ATOM     91  C   LIG    1        9.133   1.468   9.907  0.00  0.00    -0.007 C 
BRANCH  91  92
ATOM     92  C   LIG    1        9.403   2.330  11.157  0.00  0.00    -0.003 C 
BRANCH  92  93
ATOM     93  C   LIG    1        8.949   3.789  10.965  0.00  0.00    -0.020 C 
BRANCH  93  94
ATOM     94  C   LIG    1        9.217   4.704  12.175  0.00  0.00    -0.086 C 
BRANCH  94  95
ATOM     95  N   LIG    1        8.354   4.391  13.330  0.00  0.00    +0.378 N 
ATOM     96  H   LIG    1        7.384   4.499  13.067  0.00  0.00    -0.090 HD
ATOM     97  H   LIG    1        8.517   3.441  13.630  0.00  0.00    -0.090 HD
ATOM     98  H   LIG    1        8.565   5.023  14.089  0.00  0.00    -0.090 HD
ENDBRANCH  94  95
ENDBRANCH  93  94
ENDBRANCH  92  93
ENDBRANCH  91  92
ENDBRANCH  86  91
ENDBRANCH  84  86
ENDBRANCH  81  82
BRANCH  81  99
ATOM     99  C   LIG    1        6.400  -3.404   8.406  0.00  0.00    +0.032 C 
BRANCH  99 100
ATOM    100  C   LIG    1        7.129  -4.567   9.098  0.00  0.00    +0.000 C 
BRANCH 100 101
ATOM    101  C   LIG    1        6.163  -5.680   9.530  0.00  0.00    -0.019 C 
BRANCH 101 102
ATOM    102  C   LIG    1        6.876  -6.850  10.226  0.00  0.00    -0.086 C 
BRANCH 102 103
ATOM    103  N   LIG    1        5.928  -7.910  10.616  0.00  0.00    +0.378 N 
ATOM    104  H   LIG    1        5.242  -7.532  11.253  0.00  0.00    -0.090 HD
ATOM    105  H   LIG    1        5.463  -8.264   9.793  0.00  0.00    -0.090 HD
ATOM    106  H   LIG    1        6.428  -8.662  11.069  0.00  0.00    -0.090 HD
ENDBRANCH 102 103
ENDBRANCH 101 102
ENDBRANCH 100 101
ENDBRANCH  99 100
ENDBRANCH  81  99
ENDBRANCH  79  81
ENDBRANCH  76  77
BRANCH  76 107
ATOM    107  C   LIG    1        7.279   0.102   3.704  0.00  0.00    +0.069 C 
BRANCH 107 108
ATOM    108  C   LIG    1        8.550   0.652   4.289  0.00  0.00    -0.020 A 
ATOM    109  C   LIG    1        8.731   1.794   5.185  0.00  0.00    +0.003 A 
ATOM    110  C   LIG    1        7.864   2.743   5.778  0.00  0.00    +0.010 A 
ATOM    111  C   LIG    1        8.357   3.753   6.629  0.00  0.00    +0.001 A 
ATOM    112  C   LIG    1        9.734   3.842   6.908  0.00  0.00    +0.002 A 
ATOM    113  C   LIG    1       10.625   2.912   6.341  0.00  0.00    +0.026 A 
ATOM    114  C   LIG    1       10.121   1.907   5.497  0.00  0.00    +0.047 A 
ATOM    115  N   LIG    1       10.712   0.869   4.809  0.00  0.00    -0.360 N 
ATOM    116  H   LIG    1       11.698   0.651   4.802  0.00  0.00    +0.165 HD
ATOM    117  C   LIG    1        9.784   0.129   4.107  0.00  0.00    +0.087 A 
ENDBRANCH 107 108
ENDBRANCH  76 107
ENDBRANCH  74  76
ENDBRANCH  71  72
BRANCH  71 118
ATOM    118  C   LIG    1        1.650  -0.972   4.451  0.00  0.00    +0.069 C 
BRANCH 118 119
ATOM    119  C   LIG    1        2.064  -1.696   5.700  0.00  0.00    -0.020 A 
ATOM    120  C   LIG    1        2.284  -3.127   5.899  0.00  0.00    +0.003 A 
ATOM    121  C   LIG    1        2.172  -4.274   5.079  0.00  0.00    +0.010 A 
ATOM    122  C   LIG    1        2.465  -5.561   5.578  0.00  0.00    +0.001 A 
ATOM    123  C   LIG    1        2.875  -5.731   6.915  0.00  0.00    +0.002 A 
ATOM    124  C   LIG    1        2.998  -4.612   7.757  0.00  0.00    +0.026 A 
ATOM    125  C   LIG    1        2.711  -3.334   7.247  0.00  0.00    +0.047 A 
ATOM    126  N   LIG    1        2.748  -2.069   7.793  0.00  0.00    -0.360 N 
ATOM    127  H   LIG    1        3.021  -1.842   8.738  0.00  0.00    +0.165 HD
ATOM    128  C   LIG    1        2.380  -1.107   6.876  0.00  0.00    +0.087 A 
ENDBRANCH 118 119
ENDBRANCH  71 118
ENDBRANCH  69  71
ENDBRANCH   1  67
BRANCH   1 129
ATOM    129  C   LIG    1        2.148  -0.750  -1.500  0.00  0.00    +0.032 C 
BRANCH 129 130
ATOM    130  C   LIG    1        1.669  -0.148  -2.836  0.00  0.00    +0.000 C 
BRANCH 130 131
ATOM    131  C   LIG    1        2.253  -0.873  -4.057  0.00  0.00    -0.019 C 
BRANCH 131 132
ATOM    132  C   LIG    1        1.790  -0.242  -5.380  0.00  0.00    -0.086 C 
BRANCH 132 133
ATOM    133  N   LIG    1        2.333  -0.957  -6.548  0.00  0.00    +0.378 N 
ATOM    134  H   LIG    1        3.342  -0.935  -6.519  0.00  0.00    -0.090 HD
ATOM    135  H   LIG    1        2.017  -1.917  -6.534  0.00  0.00    -0.090 HD
ATOM    136  H   LIG    1        2.012  -0.511  -7.395  0.00  0.00    -0.090 HD
ENDBRANCH 132 133
ENDBRANCH 131 132
ENDBRANCH 130 131
ENDBRANCH 129 130
ENDBRANCH   1 129
TORSDOF 52
