REMARK  Name = DB12662
REMARK                            x       y       z     vdW  Elec       q    Type
REMARK                         _______ _______ _______ _____ _____    ______ ____
ROOT
ATOM      1  C   LIG    1        1.700   0.164  -0.004  0.00  0.00    +0.232 C 
ENDROOT
BRANCH   1   2
ATOM      2  O   LIG    1        0.287   0.251  -0.164  0.00  0.00    -0.492 OA
BRANCH   2   6
ATOM      3  C   LIG    1       -1.752   3.892   0.014  0.00  0.00    -0.044 A 
ATOM      4  C   LIG    1       -0.364   3.896   0.160  0.00  0.00    +0.007 A 
ATOM      5  C   LIG    1        0.346   2.699   0.107  0.00  0.00    +0.046 A 
ATOM      6  C   LIG    1       -0.330   1.485  -0.095  0.00  0.00    +0.121 A 
ATOM      7  C   LIG    1       -1.718   1.493  -0.239  0.00  0.00    +0.046 A 
ATOM      8  C   LIG    1       -2.429   2.688  -0.186  0.00  0.00    +0.007 A 
BRANCH   3   9
ATOM      9  C   LIG    1       -2.534   5.202   0.077  0.00  0.00    +0.078 C 
BRANCH   9  10
ATOM     10  C   LIG    1       -3.315   5.436   1.398  0.00  0.00    +0.230 C 
BRANCH  10  12
ATOM     11  C   LIG    1       -5.072   6.910   2.190  0.00  0.00    +0.195 C 
ATOM     12  O   LIG    1       -4.044   6.661   1.236  0.00  0.00    -0.368 OA
ENDBRANCH  10  12
BRANCH  10  13
ATOM     13  C   LIG    1       -2.360   5.520   2.625  0.00  0.00    +0.334 C 
ATOM     14  O   LIG    1       -2.227   4.484   3.317  0.00  0.00    -0.248 OA
BRANCH  13  15
ATOM     15  O   LIG    1       -1.766   6.600   2.854  0.00  0.00    -0.479 OA
ATOM     16  H   LIG    1       -1.909   7.340   2.297  0.00  0.00    +0.295 HD
ENDBRANCH  13  15
ENDBRANCH  10  13
ENDBRANCH   9  10
ENDBRANCH   3   9
ENDBRANCH   2   6
ENDBRANCH   1   2
BRANCH   1  17
ATOM     17  C   LIG    1        2.135  -1.308  -0.105  0.00  0.00    +0.082 C 
BRANCH  17  18
ATOM     18  C   LIG    1        1.516  -2.217   0.970  0.00  0.00    +0.232 C 
BRANCH  18  19
ATOM     19  O   LIG    1        1.937  -1.782   2.261  0.00  0.00    -0.492 OA
BRANCH  19  20
ATOM     20  C   LIG    1        1.435  -2.408   3.385  0.00  0.00    +0.121 A 
ATOM     21  C   LIG    1        0.543  -3.493   3.356  0.00  0.00    +0.049 A 
ATOM     22  C   LIG    1        0.085  -4.055   4.544  0.00  0.00    +0.050 A 
ATOM     23  C   LIG    1        0.509  -3.537   5.769  0.00  0.00    +0.129 A 
ATOM     24  C   LIG    1        1.405  -2.471   5.806  0.00  0.00    +0.050 A 
ATOM     25  C   LIG    1        1.862  -1.909   4.617  0.00  0.00    +0.049 A 
BRANCH  23  26
ATOM     26  O   LIG    1        0.066  -4.082   6.952  0.00  0.00    -0.456 OA
BRANCH  26  27
ATOM     27  C   LIG    1       -1.261  -3.979   7.324  0.00  0.00    +0.128 A 
ATOM     28  C   LIG    1       -2.122  -2.983   6.837  0.00  0.00    +0.046 A 
ATOM     29  C   LIG    1       -3.444  -2.928   7.271  0.00  0.00    +0.004 A 
ATOM     30  C   LIG    1       -3.906  -3.862   8.194  0.00  0.00    +0.000 A 
ATOM     31  C   LIG    1       -3.058  -4.848   8.691  0.00  0.00    +0.004 A 
ATOM     32  C   LIG    1       -1.735  -4.902   8.257  0.00  0.00    +0.046 A 
ENDBRANCH  26  27
ENDBRANCH  23  26
ENDBRANCH  19  20
ENDBRANCH  18  19
ENDBRANCH  17  18
ENDBRANCH   1  17
TORSDOF 13
