REMARK  Name = DB12222
REMARK                            x       y       z     vdW  Elec       q    Type
REMARK                         _______ _______ _______ _____ _____    ______ ____
ROOT
ATOM      1  C   LIG    1       -5.493   5.004  -0.122  0.00  0.00    +0.188 C 
ATOM      2  C   LIG    1       -5.492   6.473  -0.627  0.00  0.00    +0.344 C 
ATOM      3  O   LIG    1       -6.434   7.078  -1.140  0.00  0.00    -0.247 OA
ATOM      4  O   LIG    1       -4.317   7.168  -0.554  0.00  0.00    -0.457 OA
ATOM      5  C   LIG    1       -3.133   6.643   0.067  0.00  0.00    +0.273 C 
ATOM      6  C   LIG    1       -2.993   5.121  -0.004  0.00  0.00    +0.061 A 
ATOM      7  C   LIG    1       -1.628   4.565   0.036  0.00  0.00    +0.259 A 
ATOM      8  O   LIG    1       -0.618   5.269   0.108  0.00  0.00    -0.267 OA
ATOM      9  N   LIG    1       -1.559   3.196  -0.006  0.00  0.00    -0.302 N 
ATOM     10  C   LIG    1       -0.302   2.453   0.020  0.00  0.00    +0.163 C 
ATOM     11  C   LIG    1       -0.790   1.030  -0.034  0.00  0.00    +0.002 A 
ATOM     12  C   LIG    1       -0.093  -0.181  -0.037  0.00  0.00    -0.048 A 
ATOM     13  C   LIG    1       -0.849  -1.403  -0.097  0.00  0.00    +0.006 A 
ATOM     14  C   LIG    1       -0.270  -2.706  -0.104  0.00  0.00    +0.059 A 
ATOM     15  C   LIG    1       -1.077  -3.837  -0.155  0.00  0.00    +0.163 A 
ATOM     16  O   LIG    1       -0.444  -5.063  -0.207  0.00  0.00    -0.485 OA
ATOM     17  C   LIG    1       -1.286  -6.175   0.111  0.00  0.00    +0.270 C 
ATOM     18  C   LIG    1       -2.648  -6.043  -0.609  0.00  0.00    +0.270 C 
ATOM     19  O   LIG    1       -3.297  -4.826  -0.229  0.00  0.00    -0.485 OA
ATOM     20  C   LIG    1       -2.470  -3.721  -0.221  0.00  0.00    +0.164 A 
ATOM     21  C   LIG    1       -3.076  -2.470  -0.208  0.00  0.00    +0.077 A 
ATOM     22  C   LIG    1       -2.281  -1.298  -0.148  0.00  0.00    +0.076 A 
ATOM     23  N   LIG    1       -2.926  -0.098  -0.142  0.00  0.00    -0.245 NA
ATOM     24  C   LIG    1       -2.170   1.022  -0.085  0.00  0.00    +0.093 A 
ATOM     25  C   LIG    1       -2.677   2.399  -0.075  0.00  0.00    +0.071 A 
ATOM     26  C   LIG    1       -3.929   2.893  -0.120  0.00  0.00    +0.035 A 
ATOM     27  C   LIG    1       -4.108   4.344  -0.099  0.00  0.00    +0.008 A 
ENDROOT
BRANCH   1  29
ATOM     28  C   LIG    1       -5.435   5.648   2.439  0.00  0.00    +0.007 C 
ATOM     29  C   LIG    1       -6.162   4.925   1.286  0.00  0.00    +0.048 C 
ENDBRANCH   1  29
BRANCH   1  30
ATOM     30  O   LIG    1       -6.365   4.273  -0.973  0.00  0.00    -0.373 OA
ATOM     31  H   LIG    1       -6.010   4.295  -1.865  0.00  0.00    +0.211 HD
ENDBRANCH   1  30
BRANCH  12  32
ATOM     32  C   LIG    1        1.436  -0.193   0.005  0.00  0.00    -0.042 C 
BRANCH  32  33
ATOM     33  N   LIG    1        2.037  -0.015   1.419  0.00  0.00    +0.384 N 
ATOM     34  H   LIG    1        1.648   0.819   1.836  0.00  0.00    -0.081 HD
ATOM     35  C   LIG    1        1.706  -1.209   2.346  0.00  0.00    -0.063 C 
ATOM     36  C   LIG    1        2.343  -0.957   3.734  0.00  0.00    +0.065 C 
ATOM     37  N   LIG    1        3.797  -0.768   3.664  0.00  0.00    -0.309 NA
ATOM     38  C   LIG    1        4.537  -1.995   3.374  0.00  0.00    +0.104 C 
ATOM     39  C   LIG    1        4.131   0.350   2.773  0.00  0.00    +0.065 C 
ATOM     40  C   LIG    1        3.572   0.163   1.340  0.00  0.00    -0.063 C 
ENDBRANCH  32  33
ENDBRANCH  12  32
TORSDOF 4
