REMARK  Name = DB12212
REMARK                            x       y       z     vdW  Elec       q    Type
REMARK                         _______ _______ _______ _____ _____    ______ ____
ROOT
ATOM      1  O   LIG    1        0.615   0.298   0.162  0.00  0.00    -0.489 OA
ENDROOT
BRANCH   1   5
ATOM      2  C   LIG    1       -1.517   3.881  -0.095  0.00  0.00    -0.047 A 
ATOM      3  C   LIG    1       -0.309   3.771  -0.786  0.00  0.00    +0.007 A 
ATOM      4  C   LIG    1        0.425   2.590  -0.723  0.00  0.00    +0.046 A 
ATOM      5  C   LIG    1       -0.046   1.504   0.034  0.00  0.00    +0.121 A 
ATOM      6  C   LIG    1       -1.258   1.623   0.716  0.00  0.00    +0.046 A 
ATOM      7  C   LIG    1       -1.992   2.804   0.655  0.00  0.00    +0.007 A 
BRANCH   2   8
ATOM      8  C   LIG    1       -2.318   5.172  -0.160  0.00  0.00    +0.046 C 
BRANCH   8   9
ATOM      9  C   LIG    1       -3.427   5.116  -1.228  0.00  0.00    +0.125 C 
BRANCH   9  10
ATOM     10  C   LIG    1       -4.211   6.426  -1.318  0.00  0.00    +0.307 C 
ATOM     11  O   LIG    1       -4.094   7.176  -2.288  0.00  0.00    -0.251 OA
BRANCH  10  12
ATOM     12  O   LIG    1       -5.000   6.633  -0.238  0.00  0.00    -0.462 OA
BRANCH  12  13
ATOM     13  C   LIG    1       -5.773   7.823  -0.096  0.00  0.00    +0.266 C 
BRANCH  13  18
ATOM     14  C   LIG    1       -6.975  10.815   2.424  0.00  0.00    +0.074 C 
ATOM     15  C   LIG    1       -5.618  10.745   1.741  0.00  0.00    +0.165 C 
ATOM     16  C   LIG    1       -4.949  12.098   1.533  0.00  0.00    +0.074 C 
ATOM     17  O   LIG    1       -5.774  10.134   0.503  0.00  0.00    -0.340 OA
ATOM     18  C   LIG    1       -4.919   9.020   0.373  0.00  0.00    +0.185 C 
ATOM     19  C   LIG    1       -4.285   8.857   1.755  0.00  0.00    +0.198 C 
ATOM     20  O   LIG    1       -4.773   9.948   2.504  0.00  0.00    -0.346 OA
ENDBRANCH  13  18
ENDBRANCH  12  13
ENDBRANCH  10  12
ENDBRANCH   9  10
ENDBRANCH   8   9
ENDBRANCH   2   8
ENDBRANCH   1   5
BRANCH   1  21
ATOM     21  C   LIG    1        1.885   0.123  -0.462  0.00  0.00    +0.258 C 
BRANCH  21  22
ATOM     22  C   LIG    1        2.453  -1.260  -0.091  0.00  0.00    +0.135 C 
BRANCH  22  23
ATOM     23  O   LIG    1        1.656  -2.264  -0.699  0.00  0.00    -0.390 OA
ATOM     24  H   LIG    1        1.598  -2.085  -1.640  0.00  0.00    +0.210 HD
ENDBRANCH  22  23
BRANCH  22  25
ATOM     25  C   LIG    1        3.930  -1.412  -0.519  0.00  0.00    -0.047 C 
BRANCH  25  26
ATOM     26  N   LIG    1        4.478  -2.789  -0.103  0.00  0.00    +0.382 N 
ATOM     27  H   LIG    1        3.930  -3.509  -0.553  0.00  0.00    -0.086 HD
ATOM     28  H   LIG    1        4.360  -2.893   0.896  0.00  0.00    -0.086 HD
BRANCH  26  29
ATOM     29  C   LIG    1        5.963  -3.004  -0.439  0.00  0.00    -0.063 C 
BRANCH  29  30
ATOM     30  C   LIG    1        6.444  -4.362   0.119  0.00  0.00    +0.087 C 
BRANCH  30  31
ATOM     31  N   LIG    1        7.058  -4.277   1.447  0.00  0.00    -0.301 N 
ATOM     32  H   LIG    1        8.066  -4.322   1.473  0.00  0.00    +0.150 HD
ATOM     33  C   LIG    1        6.396  -4.146   2.616  0.00  0.00    +0.302 C 
ATOM     34  N   LIG    1        7.192  -4.064   3.720  0.00  0.00    -0.281 N 
ATOM     35  C   LIG    1        6.569  -3.858   5.042  0.00  0.00    +0.137 C 
ATOM     36  C   LIG    1        6.289  -5.261   5.636  0.00  0.00    +0.179 C 
ATOM     37  O   LIG    1        7.498  -6.019   5.699  0.00  0.00    -0.377 OA
ATOM     38  C   LIG    1        8.138  -6.188   4.434  0.00  0.00    +0.179 C 
ATOM     39  C   LIG    1        8.466  -4.807   3.818  0.00  0.00    +0.137 C 
ATOM     40  O   LIG    1        5.173  -3.985   2.656  0.00  0.00    -0.253 OA
ENDBRANCH  30  31
ENDBRANCH  29  30
ENDBRANCH  26  29
ENDBRANCH  25  26
ENDBRANCH  22  25
ENDBRANCH  21  22
ENDBRANCH   1  21
TORSDOF 15
