REMARK  Name = DB12179
REMARK                            x       y       z     vdW  Elec       q    Type
REMARK                         _______ _______ _______ _____ _____    ______ ____
ROOT
ATOM      1  C   LIG    1        0.012  -0.093  -0.051  0.00  0.00    +0.024 C 
ENDROOT
BRANCH   1   2
ATOM      2  C   LIG    1       -0.690  -0.944  -1.148  0.00  0.00    +0.041 C 
BRANCH   2   4
ATOM      3  C   LIG    1       -2.830   0.320  -1.619  0.00  0.00    +0.007 A 
ATOM      4  C   LIG    1       -2.211  -0.837  -1.143  0.00  0.00    -0.043 A 
ATOM      5  C   LIG    1       -2.994  -1.892  -0.664  0.00  0.00    +0.053 A 
ATOM      6  C   LIG    1       -4.398  -1.802  -0.651  0.00  0.00    +0.162 A 
ATOM      7  C   LIG    1       -4.998  -0.629  -1.132  0.00  0.00    +0.158 A 
ATOM      8  C   LIG    1       -4.220   0.423  -1.613  0.00  0.00    +0.049 A 
BRANCH   6   9
ATOM      9  O   LIG    1       -5.232  -2.805  -0.190  0.00  0.00    -0.491 OA
ATOM     10  C   LIG    1       -4.663  -4.014   0.302  0.00  0.00    +0.277 C 
ENDBRANCH   6   9
BRANCH   7  11
ATOM     11  O   LIG    1       -6.364  -0.501  -1.134  0.00  0.00    -0.503 OA
ATOM     12  H   LIG    1       -6.804  -1.277  -0.780  0.00  0.00    +0.292 HD
ENDBRANCH   7  11
ENDBRANCH   2   4
ENDBRANCH   1   2
BRANCH   1  13
ATOM     13  C   LIG    1       -0.437  -0.524   1.374  0.00  0.00    +0.160 C 
BRANCH  13  14
ATOM     14  O   LIG    1        0.175   0.239   2.394  0.00  0.00    -0.395 OA
ATOM     15  H   LIG    1       -0.146  -0.073   3.244  0.00  0.00    +0.209 HD
ENDBRANCH  13  14
ENDBRANCH   1  13
BRANCH   1  16
ATOM     16  C   LIG    1        1.570  -0.029  -0.233  0.00  0.00    +0.024 C 
BRANCH  16  17
ATOM     17  C   LIG    1        2.023   0.678  -1.541  0.00  0.00    +0.160 C 
BRANCH  17  18
ATOM     18  O   LIG    1        1.430   1.951  -1.707  0.00  0.00    -0.395 OA
ATOM     19  H   LIG    1        1.762   2.339  -2.520  0.00  0.00    +0.209 HD
ENDBRANCH  17  18
ENDBRANCH  16  17
BRANCH  16  20
ATOM     20  C   LIG    1        2.254  -1.417  -0.072  0.00  0.00    +0.041 C 
BRANCH  20  21
ATOM     21  C   LIG    1        3.777  -1.364  -0.018  0.00  0.00    -0.043 A 
ATOM     22  C   LIG    1        4.540  -1.857  -1.079  0.00  0.00    +0.007 A 
ATOM     23  C   LIG    1        5.931  -1.806  -1.023  0.00  0.00    +0.049 A 
ATOM     24  C   LIG    1        6.570  -1.262   0.092  0.00  0.00    +0.158 A 
ATOM     25  C   LIG    1        5.823  -0.761   1.169  0.00  0.00    +0.162 A 
ATOM     26  C   LIG    1        4.420  -0.823   1.100  0.00  0.00    +0.053 A 
BRANCH  24  27
ATOM     27  O   LIG    1        7.941  -1.225   0.117  0.00  0.00    -0.503 OA
ATOM     28  H   LIG    1        8.341  -1.594  -0.673  0.00  0.00    +0.292 HD
ENDBRANCH  24  27
BRANCH  25  29
ATOM     29  O   LIG    1        6.519  -0.232   2.242  0.00  0.00    -0.491 OA
ATOM     30  C   LIG    1        5.797   0.315   3.340  0.00  0.00    +0.277 C 
ENDBRANCH  25  29
ENDBRANCH  20  21
ENDBRANCH  16  20
ENDBRANCH   1  16
TORSDOF 13
