REMARK  Name = DB12996
REMARK                            x       y       z     vdW  Elec       q    Type
REMARK                         _______ _______ _______ _____ _____    ______ ____
ROOT
ATOM      1  C   LIG    1        0.778   1.006  -0.609  0.00  0.00    +0.198 C 
ATOM      2  C   LIG    1        1.150   0.360  -1.968  0.00  0.00    +0.203 C 
ATOM      3  C   LIG    1        2.672   0.218  -2.118  0.00  0.00    +0.282 C 
ATOM      4  O   LIG    1        3.159  -0.538  -1.041  0.00  0.00    -0.339 OA
ATOM      5  C   LIG    1        3.085   0.159   0.204  0.00  0.00    +0.190 C 
ATOM      6  C   LIG    1        1.591   0.387   0.567  0.00  0.00    +0.239 C 
ENDROOT
BRANCH   2   7
ATOM      7  O   LIG    1        0.606   1.107  -3.044  0.00  0.00    -0.384 OA
ATOM      8  H   LIG    1        0.728   2.042  -2.861  0.00  0.00    +0.210 HD
ENDBRANCH   2   7
BRANCH   1   9
ATOM      9  O   LIG    1       -0.638   0.833  -0.475  0.00  0.00    -0.339 OA
BRANCH   9  10
ATOM     10  C   LIG    1       -1.330   1.595   0.476  0.00  0.00    +0.282 C 
ATOM     11  C   LIG    1       -2.776   1.770  -0.018  0.00  0.00    +0.201 C 
ATOM     12  C   LIG    1       -3.526   0.416  -0.007  0.00  0.00    +0.179 C 
ATOM     13  C   LIG    1       -3.389  -0.288   1.361  0.00  0.00    +0.174 C 
ATOM     14  C   LIG    1       -1.904  -0.320   1.799  0.00  0.00    +0.149 C 
ATOM     15  C   LIG    1       -1.708  -0.859   3.226  0.00  0.00    +0.041 C 
ATOM     16  O   LIG    1       -1.328   0.992   1.749  0.00  0.00    -0.343 OA
BRANCH  13  17
ATOM     17  O   LIG    1       -3.950  -1.589   1.334  0.00  0.00    -0.387 OA
ATOM     18  H   LIG    1       -3.549  -2.081   0.613  0.00  0.00    +0.210 HD
ENDBRANCH  13  17
BRANCH  12  19
ATOM     19  O   LIG    1       -4.880   0.556  -0.402  0.00  0.00    -0.386 OA
ATOM     20  H   LIG    1       -4.931   1.230  -1.085  0.00  0.00    +0.210 HD
ENDBRANCH  12  19
BRANCH  11  21
ATOM     21  O   LIG    1       -3.435   2.773   0.737  0.00  0.00    -0.384 OA
ATOM     22  H   LIG    1       -3.756   2.379   1.551  0.00  0.00    +0.210 HD
ENDBRANCH  11  21
ENDBRANCH   9  10
ENDBRANCH   1   9
BRANCH   3  23
ATOM     23  O   LIG    1        2.909  -0.464  -3.314  0.00  0.00    -0.348 OA
BRANCH  23  24
ATOM     24  C   LIG    1        4.266  -0.511  -3.748  0.00  0.00    +0.168 C 
BRANCH  24  25
ATOM     25  C   LIG    1        4.626   0.743  -4.565  0.00  0.00    +0.063 C 
BRANCH  25  26
ATOM     26  C   LIG    1        6.035   0.688  -5.135  0.00  0.00    -0.042 A 
ATOM     27  C   LIG    1        6.268   0.085  -6.375  0.00  0.00    +0.007 A 
ATOM     28  C   LIG    1        7.559   0.033  -6.899  0.00  0.00    +0.049 A 
ATOM     29  C   LIG    1        8.628   0.583  -6.189  0.00  0.00    +0.158 A 
ATOM     30  C   LIG    1        8.401   1.187  -4.946  0.00  0.00    +0.158 A 
ATOM     31  C   LIG    1        7.106   1.236  -4.423  0.00  0.00    +0.053 A 
BRANCH  30  32
ATOM     32  O   LIG    1        9.435   1.734  -4.228  0.00  0.00    -0.503 OA
ATOM     33  H   LIG    1        9.149   2.122  -3.397  0.00  0.00    +0.292 HD
ENDBRANCH  30  32
BRANCH  29  34
ATOM     34  O   LIG    1        9.890   0.522  -6.725  0.00  0.00    -0.503 OA
ATOM     35  H   LIG    1       10.549   0.924  -6.154  0.00  0.00    +0.292 HD
ENDBRANCH  29  34
ENDBRANCH  25  26
ENDBRANCH  24  25
ENDBRANCH  23  24
ENDBRANCH   3  23
BRANCH   5  36
ATOM     36  C   LIG    1        3.818  -0.684   1.269  0.00  0.00    +0.191 C 
BRANCH  36  37
ATOM     37  O   LIG    1        5.198  -0.773   0.979  0.00  0.00    -0.392 OA
ATOM     38  H   LIG    1        5.617  -1.317   1.649  0.00  0.00    +0.210 HD
ENDBRANCH  36  37
ENDBRANCH   5  36
BRANCH   6  39
ATOM     39  O   LIG    1        1.418   1.053   1.828  0.00  0.00    -0.453 OA
BRANCH  39  40
ATOM     40  C   LIG    1        1.804   2.341   2.083  0.00  0.00    +0.332 C 
ATOM     41  O   LIG    1        2.391   3.065   1.278  0.00  0.00    -0.246 OA
BRANCH  40  42
ATOM     42  C   LIG    1        1.443   2.825   3.414  0.00  0.00    +0.092 C 
ATOM     43  C   LIG    1        0.653   2.153   4.282  0.00  0.00    +0.015 C 
BRANCH  43  44
ATOM     44  C   LIG    1        0.242   2.599   5.631  0.00  0.00    -0.021 A 
ATOM     45  C   LIG    1        0.713   3.783   6.215  0.00  0.00    +0.012 A 
ATOM     46  C   LIG    1        0.286   4.166   7.487  0.00  0.00    +0.050 A 
ATOM     47  C   LIG    1       -0.618   3.373   8.194  0.00  0.00    +0.158 A 
ATOM     48  C   LIG    1       -1.095   2.188   7.622  0.00  0.00    +0.159 A 
ATOM     49  C   LIG    1       -0.664   1.809   6.349  0.00  0.00    +0.057 A 
BRANCH  48  50
ATOM     50  O   LIG    1       -1.987   1.388   8.293  0.00  0.00    -0.503 OA
ATOM     51  H   LIG    1       -2.241   0.609   7.793  0.00  0.00    +0.292 HD
ENDBRANCH  48  50
BRANCH  47  52
ATOM     52  O   LIG    1       -1.026   3.769   9.442  0.00  0.00    -0.503 OA
ATOM     53  H   LIG    1       -1.642   3.149   9.840  0.00  0.00    +0.292 HD
ENDBRANCH  47  52
ENDBRANCH  43  44
ENDBRANCH  40  42
ENDBRANCH  39  40
ENDBRANCH   6  39
TORSDOF 20
