REMARK  Name = DB12906
REMARK                            x       y       z     vdW  Elec       q    Type
REMARK                         _______ _______ _______ _____ _____    ______ ____
ROOT
ATOM      1  C   LIG    1        3.841   1.021  -0.597  0.00  0.00    +0.132 A 
ATOM      2  N   LIG    1        4.678   0.038  -0.469  0.00  0.00    -0.178 NA
ATOM      3  C   LIG    1        6.079   0.186  -0.569  0.00  0.00    +0.352 A 
ATOM      4  O   LIG    1        6.889  -0.724  -0.379  0.00  0.00    -0.244 OA
ATOM      5  N   LIG    1        6.542   1.454  -0.898  0.00  0.00    -0.267 N 
ATOM      6  C   LIG    1        5.652   2.497  -1.020  0.00  0.00    +0.097 A 
ATOM      7  C   LIG    1        4.328   2.342  -0.880  0.00  0.00    +0.062 A 
ENDROOT
BRANCH   5   8
ATOM      8  C   LIG    1        7.986   1.661  -1.088  0.00  0.00    +0.296 C 
ATOM      9  O   LIG    1        8.353   3.019  -1.096  0.00  0.00    -0.342 OA
ATOM     10  C   LIG    1        8.807   3.461  -2.380  0.00  0.00    +0.181 C 
ATOM     11  C   LIG    1        8.530   2.263  -3.294  0.00  0.00    +0.219 C 
ATOM     12  C   LIG    1        8.645   1.078  -2.345  0.00  0.00    +0.321 C 
ATOM     13  F   LIG    1        8.058  -0.007  -2.851  0.00  0.00    -0.198 F 
ATOM     14  F   LIG    1        9.928   0.804  -2.084  0.00  0.00    -0.198 F 
BRANCH  11  15
ATOM     15  O   LIG    1        9.401   2.187  -4.408  0.00  0.00    -0.383 OA
ATOM     16  H   LIG    1       10.303   2.116  -4.087  0.00  0.00    +0.210 HD
ENDBRANCH  11  15
BRANCH  10  17
ATOM     17  C   LIG    1        8.097   4.760  -2.807  0.00  0.00    +0.190 C 
BRANCH  17  18
ATOM     18  O   LIG    1        8.392   5.808  -1.907  0.00  0.00    -0.392 OA
ATOM     19  H   LIG    1        8.015   5.590  -1.051  0.00  0.00    +0.210 HD
ENDBRANCH  17  18
ENDBRANCH  10  17
ENDBRANCH   5   8
BRANCH   1  21
ATOM     20  C   LIG    1        1.731  -0.177  -0.292  0.00  0.00    +0.221 C 
ATOM     21  N   LIG    1        2.486   0.927  -0.488  0.00  0.00    -0.270 N 
ATOM     22  H   LIG    1        1.974   1.793  -0.576  0.00  0.00    +0.156 HD
ATOM     23  O   LIG    1        2.177  -1.322  -0.187  0.00  0.00    -0.275 OA
BRANCH  20  24
ATOM     24  C   LIG    1        0.204   0.053  -0.206  0.00  0.00    +0.075 C 
BRANCH  24  25
ATOM     25  C   LIG    1       -0.387  -0.435   1.145  0.00  0.00    +0.012 C 
BRANCH  25  27
ATOM     26  C   LIG    1       -0.490  -0.209   3.698  0.00  0.00    +0.004 C 
ATOM     27  C   LIG    1        0.187   0.255   2.401  0.00  0.00    -0.003 C 
ENDBRANCH  25  27
ENDBRANCH  24  25
BRANCH  24  28
ATOM     28  C   LIG    1       -0.547  -0.587  -1.405  0.00  0.00    +0.012 C 
BRANCH  28  29
ATOM     29  C   LIG    1       -0.146  -0.047  -2.795  0.00  0.00    -0.003 C 
ATOM     30  C   LIG    1       -0.985  -0.644  -3.933  0.00  0.00    +0.004 C 
ENDBRANCH  28  29
ENDBRANCH  24  28
ENDBRANCH  20  24
ENDBRANCH   1  21
TORSDOF 10
