REMARK  Name = DB12659
REMARK                            x       y       z     vdW  Elec       q    Type
REMARK                         _______ _______ _______ _____ _____    ______ ____
ROOT
ATOM      1  C   LIG    1       -0.605  -2.651   2.974  0.00  0.00    +0.000 A 
ATOM      2  C   LIG    1       -0.017  -1.955   1.922  0.00  0.00    +0.005 A 
ATOM      3  C   LIG    1       -0.647  -0.845   1.327  0.00  0.00    -0.021 A 
ATOM      4  C   LIG    1       -0.093  -0.092   0.116  0.00  0.00    +0.131 C 
ATOM      5  C   LIG    1       -0.655   1.372   0.028  0.00  0.00    +0.124 C 
ATOM      6  N   LIG    1       -2.139   1.384   0.194  0.00  0.00    -0.281 N 
ATOM      7  C   LIG    1       -2.775   0.575   1.106  0.00  0.00    +0.248 C 
ATOM      8  O   LIG    1       -3.987   0.679   1.324  0.00  0.00    -0.270 OA
ATOM      9  C   LIG    1       -1.932  -0.495   1.778  0.00  0.00    +0.041 A 
ATOM     10  C   LIG    1       -2.528  -1.215   2.828  0.00  0.00    +0.013 A 
ATOM     11  C   LIG    1       -1.861  -2.276   3.433  0.00  0.00    +0.001 A 
ENDROOT
BRANCH   5  12
ATOM     12  C   LIG    1       -0.119   2.091  -1.221  0.00  0.00    -0.008 A 
ATOM     13  C   LIG    1       -0.494   1.689  -2.510  0.00  0.00    +0.116 A 
ATOM     14  N   LIG    1       -0.035   2.290  -3.638  0.00  0.00    -0.263 NA
ATOM     15  C   LIG    1        0.832   3.324  -3.496  0.00  0.00    +0.111 A 
ATOM     16  C   LIG    1        1.264   3.787  -2.252  0.00  0.00    +0.020 A 
ATOM     17  C   LIG    1        0.780   3.158  -1.103  0.00  0.00    +0.008 A 
ENDBRANCH   5  12
BRANCH   4  18
ATOM     18  C   LIG    1        1.461  -0.109   0.095  0.00  0.00    +0.227 C 
ATOM     19  N   LIG    1        2.085   0.645   1.028  0.00  0.00    -0.285 N 
ATOM     20  H   LIG    1        1.500   1.059   1.739  0.00  0.00    +0.155 HD
ATOM     21  O   LIG    1        2.042  -0.823  -0.725  0.00  0.00    -0.275 OA
BRANCH  19  22
ATOM     22  C   LIG    1        3.465   0.846   1.204  0.00  0.00    +0.035 A 
ATOM     23  C   LIG    1        3.892   1.204   2.486  0.00  0.00    +0.045 A 
ATOM     24  C   LIG    1        5.247   1.437   2.746  0.00  0.00    +0.089 A 
ATOM     25  C   LIG    1        6.182   1.323   1.708  0.00  0.00    +0.141 A 
ATOM     26  F   LIG    1        7.502   1.542   1.927  0.00  0.00    -0.204 F 
ATOM     27  C   LIG    1        5.757   0.982   0.424  0.00  0.00    +0.041 A 
ATOM     28  C   LIG    1        4.407   0.748   0.168  0.00  0.00    +0.026 A 
BRANCH  24  29
ATOM     29  C   LIG    1        5.666   1.794   4.095  0.00  0.00    +0.102 C 
ATOM     30  N   LIG    1        5.998   2.077   5.167  0.00  0.00    -0.191 NA
ENDBRANCH  24  29
ENDBRANCH  19  22
ENDBRANCH   4  18
BRANCH   6  31
ATOM     31  C   LIG    1       -2.886   2.586  -0.258  0.00  0.00    +0.222 C 
BRANCH  31  32
ATOM     32  C   LIG    1       -2.783   3.818   0.668  0.00  0.00    +0.405 C 
ATOM     33  F   LIG    1       -1.524   4.230   0.817  0.00  0.00    -0.169 F 
ATOM     34  F   LIG    1       -3.267   3.574   1.886  0.00  0.00    -0.169 F 
ATOM     35  F   LIG    1       -3.477   4.836   0.160  0.00  0.00    -0.169 F 
ENDBRANCH  31  32
ENDBRANCH   6  31
TORSDOF 6
