REMARK  Name = DB12062
REMARK                            x       y       z     vdW  Elec       q    Type
REMARK                         _______ _______ _______ _____ _____    ______ ____
ROOT
ATOM      1  C   LIG    1       -2.892  -0.870  -1.669  0.00  0.00    +0.040 A 
ATOM      2  C   LIG    1       -2.257   0.272  -2.168  0.00  0.00    +0.015 A 
ATOM      3  C   LIG    1       -0.878   0.429  -2.060  0.00  0.00    +0.028 A 
ATOM      4  C   LIG    1       -0.088  -0.554  -1.449  0.00  0.00    +0.076 A 
ATOM      5  C   LIG    1       -0.706  -1.708  -0.934  0.00  0.00    +0.142 A 
ATOM      6  C   LIG    1       -2.101  -1.851  -1.052  0.00  0.00    +0.060 A 
ENDROOT
BRANCH   1   7
ATOM      7  C   LIG    1       -4.396  -1.010  -1.789  0.00  0.00    +0.244 C 
ATOM      8  N   LIG    1       -4.909  -2.236  -1.559  0.00  0.00    -0.308 N 
ATOM      9  H   LIG    1       -4.273  -2.966  -1.274  0.00  0.00    +0.149 HD
ATOM     10  O   LIG    1       -5.098  -0.044  -2.101  0.00  0.00    -0.270 OA
BRANCH   8  11
ATOM     11  C   LIG    1       -6.330  -2.590  -1.564  0.00  0.00    +0.073 C 
ATOM     12  C   LIG    1       -7.147  -2.015  -0.383  0.00  0.00    +0.024 C 
ATOM     13  C   LIG    1       -8.626  -2.449  -0.378  0.00  0.00    +0.021 C 
ATOM     14  C   LIG    1       -8.830  -3.984  -0.484  0.00  0.00    +0.057 C 
ATOM     15  C   LIG    1       -8.065  -4.495  -1.736  0.00  0.00    +0.021 C 
ATOM     16  C   LIG    1       -6.575  -4.100  -1.754  0.00  0.00    +0.024 C 
BRANCH  14  17
ATOM     17  N   LIG    1      -10.247  -4.403  -0.384  0.00  0.00    -0.303 NA
ATOM     18  C   LIG    1      -10.927  -4.096   0.886  0.00  0.00    +0.066 C 
ATOM     19  C   LIG    1      -10.448  -5.023   2.033  0.00  0.00    -0.063 C 
ATOM     20  N   LIG    1      -10.709  -6.499   1.638  0.00  0.00    +0.382 N 
ATOM     21  H   LIG    1      -11.705  -6.625   1.526  0.00  0.00    -0.082 HD
ATOM     22  C   LIG    1      -10.046  -6.797   0.270  0.00  0.00    -0.063 C 
ATOM     23  C   LIG    1      -10.581  -5.783  -0.770  0.00  0.00    +0.066 C 
BRANCH  20  24
ATOM     24  C   LIG    1      -10.191  -7.493   2.704  0.00  0.00    -0.075 C 
BRANCH  24  25
ATOM     25  C   LIG    1      -10.978  -7.348   4.021  0.00  0.00    -0.028 C 
ATOM     26  C   LIG    1      -12.393  -7.864   4.115  0.00  0.00    +0.002 C 
ATOM     27  C   LIG    1      -11.271  -8.574   4.849  0.00  0.00    +0.002 C 
ENDBRANCH  24  25
ENDBRANCH  20  24
ENDBRANCH  14  17
ENDBRANCH   8  11
ENDBRANCH   1   7
BRANCH   4  28
ATOM     28  N   LIG    1        1.312  -0.434  -1.305  0.00  0.00    -0.281 N 
ATOM     29  H   LIG    1        1.705  -1.166  -0.731  0.00  0.00    +0.155 HD
BRANCH  28  30
ATOM     30  C   LIG    1        2.285   0.468  -1.764  0.00  0.00    +0.221 A 
ATOM     31  N   LIG    1        3.541   0.239  -1.307  0.00  0.00    -0.221 NA
ATOM     32  C   LIG    1        4.516   1.083  -1.731  0.00  0.00    +0.141 A 
ATOM     33  C   LIG    1        4.271   2.142  -2.621  0.00  0.00    +0.095 A 
ATOM     34  C   LIG    1        2.940   2.297  -3.049  0.00  0.00    +0.149 A 
ATOM     35  N   LIG    1        2.663   3.354  -3.919  0.00  0.00    -0.299 N 
ATOM     36  C   LIG    1        3.753   3.779  -4.850  0.00  0.00    +0.161 C 
ATOM     37  C   LIG    1        5.114   3.928  -4.083  0.00  0.00    +0.240 C 
ATOM     38  O   LIG    1        5.945   4.778  -4.412  0.00  0.00    -0.273 OA
ATOM     39  N   LIG    1        5.258   3.067  -3.033  0.00  0.00    -0.269 N 
ATOM     40  C   LIG    1        6.545   3.056  -2.316  0.00  0.00    +0.138 C 
ATOM     41  N   LIG    1        1.949   1.469  -2.617  0.00  0.00    -0.197 NA
BRANCH  35  42
ATOM     42  C   LIG    1        1.289   3.723  -4.329  0.00  0.00    +0.070 C 
ATOM     43  C   LIG    1        1.086   5.234  -4.564  0.00  0.00    +0.028 C 
ATOM     44  C   LIG    1        0.716   2.853  -5.466  0.00  0.00    +0.028 C 
ENDBRANCH  35  42
BRANCH  36  45
ATOM     45  C   LIG    1        4.003   2.914  -6.125  0.00  0.00    +0.028 C 
ATOM     46  C   LIG    1        4.198   1.399  -5.922  0.00  0.00    +0.006 C 
ENDBRANCH  36  45
ENDBRANCH  28  30
ENDBRANCH   4  28
BRANCH   5  47
ATOM     47  O   LIG    1        0.102  -2.658  -0.327  0.00  0.00    -0.493 OA
ATOM     48  C   LIG    1       -0.474  -3.844   0.210  0.00  0.00    +0.277 C 
ENDBRANCH   5  47
TORSDOF 10
