REMARK  Name = DB12674
REMARK                            x       y       z     vdW  Elec       q    Type
REMARK                         _______ _______ _______ _____ _____    ______ ____
ROOT
ATOM      1  C   LIG    1        1.503  -0.048  -0.087  0.00  0.00    +0.121 A 
ATOM      2  C   LIG    1        2.282  -1.204  -0.112  0.00  0.00    +0.047 A 
ATOM      3  C   LIG    1        3.675  -1.175  -0.150  0.00  0.00    +0.030 A 
ATOM      4  C   LIG    1        4.281   0.084  -0.162  0.00  0.00    +0.047 A 
ATOM      5  N   LIG    1        5.609   0.449  -0.205  0.00  0.00    -0.356 N 
ATOM      6  H   LIG    1        6.412  -0.164  -0.235  0.00  0.00    +0.166 HD
ATOM      7  C   LIG    1        5.733   1.819  -0.198  0.00  0.00    +0.052 A 
ATOM      8  C   LIG    1        7.051   2.615  -0.239  0.00  0.00    +0.167 C 
ATOM      9  C   LIG    1        7.738   2.512   1.155  0.00  0.00    +0.334 C 
ATOM     10  O   LIG    1        8.061   3.499   1.824  0.00  0.00    -0.248 OA
ATOM     11  O   LIG    1        8.025   1.230   1.486  0.00  0.00    -0.461 OA
ATOM     12  C   LIG    1        9.056   0.910   2.410  0.00  0.00    +0.256 C 
ATOM     13  C   LIG    1       10.446   0.959   1.718  0.00  0.00    +0.131 C 
ATOM     14  N   LIG    1       10.960   2.343   1.563  0.00  0.00    -0.260 NA
ATOM     15  C   LIG    1       11.727   2.654   0.339  0.00  0.00    +0.099 C 
ATOM     16  C   LIG    1       12.223   4.164   0.288  0.00  0.00    +0.109 C 
ATOM     17  N   LIG    1       12.972   4.498   1.508  0.00  0.00    -0.290 NA
ATOM     18  C   LIG    1       14.296   3.884   1.608  0.00  0.00    +0.106 C 
ATOM     19  C   LIG    1       12.088   4.318   2.675  0.00  0.00    +0.105 C 
ATOM     20  C   LIG    1       10.917   5.343   2.634  0.00  0.00    +0.058 C 
ATOM     21  C   LIG    1       10.444   5.720   1.229  0.00  0.00    -0.037 A 
ATOM     22  C   LIG    1        9.375   6.603   1.064  0.00  0.00    +0.011 A 
ATOM     23  C   LIG    1        8.996   7.056  -0.198  0.00  0.00    -0.005 A 
ATOM     24  C   LIG    1        9.719   6.643  -1.321  0.00  0.00    +0.164 A 
ATOM     25  C   LIG    1       10.800   5.765  -1.165  0.00  0.00    +0.164 A 
ATOM     26  C   LIG    1        7.826   8.017  -0.337  0.00  0.00    +0.047 C 
ATOM     27  C   LIG    1       11.132   5.237   0.096  0.00  0.00    +0.020 A 
ATOM     28  C   LIG    1       11.046   2.076  -0.949  0.00  0.00    +0.099 C 
ATOM     29  C   LIG    1       10.815   0.573  -0.815  0.00  0.00    +0.018 A 
ATOM     30  C   LIG    1       10.858  -0.294  -1.940  0.00  0.00    +0.143 A 
ATOM     31  C   LIG    1       10.574  -1.669  -1.809  0.00  0.00    +0.038 A 
ATOM     32  C   LIG    1       10.287  -2.136  -0.533  0.00  0.00    +0.173 A 
ATOM     33  C   LIG    1       10.263  -1.311   0.551  0.00  0.00    +0.172 A 
ATOM     34  O   LIG    1        9.932  -2.039   1.652  0.00  0.00    -0.452 OA
ATOM     35  C   LIG    1        9.957  -3.380   1.251  0.00  0.00    +0.466 C 
ATOM     36  O   LIG    1        9.961  -3.399  -0.148  0.00  0.00    -0.452 OA
ATOM     37  C   LIG    1       10.563  -2.595  -3.017  0.00  0.00    +0.051 C 
ATOM     38  S   LIG    1        9.573   2.920  -1.665  0.00  0.00    -0.148 S 
ATOM     39  C   LIG    1       11.588   2.847   2.806  0.00  0.00    +0.204 C 
ATOM     40  C   LIG    1       10.517   0.059   0.468  0.00  0.00    +0.026 A 
ATOM     41  C   LIG    1        8.033   2.004  -1.289  0.00  0.00    +0.109 C 
ATOM     42  N   LIG    1        6.736   4.026  -0.565  0.00  0.00    -0.296 NA
ATOM     43  H   LIG    1        7.567   4.588  -0.444  0.00  0.00    +0.123 HD
ATOM     44  C   LIG    1        5.593   4.610   0.149  0.00  0.00    +0.087 C 
ATOM     45  C   LIG    1        4.260   3.884  -0.167  0.00  0.00    +0.053 C 
ATOM     46  C   LIG    1        4.465   2.378  -0.149  0.00  0.00    -0.015 A 
ATOM     47  C   LIG    1        3.526   1.292  -0.131  0.00  0.00    +0.007 A 
ATOM     48  C   LIG    1        2.125   1.212  -0.096  0.00  0.00    +0.056 A 
ENDROOT
BRANCH   1  50
ATOM     49  C   LIG    1       -0.724   0.902  -0.036  0.00  0.00    +0.277 C 
ATOM     50  O   LIG    1        0.134  -0.234  -0.054  0.00  0.00    -0.495 OA
ENDBRANCH   1  50
BRANCH  25  51
ATOM     51  O   LIG    1       11.538   5.416  -2.271  0.00  0.00    -0.503 OA
ATOM     52  H   LIG    1       11.223   5.842  -3.072  0.00  0.00    +0.292 HD
ENDBRANCH  25  51
BRANCH  24  53
ATOM     53  O   LIG    1        9.372   7.116  -2.566  0.00  0.00    -0.491 OA
ATOM     54  C   LIG    1        8.564   6.224  -3.325  0.00  0.00    +0.277 C 
ENDBRANCH  24  53
BRANCH  39  55
ATOM     55  O   LIG    1       12.624   2.050   3.362  0.00  0.00    -0.376 OA
ATOM     56  H   LIG    1       12.226   1.283   3.780  0.00  0.00    +0.212 HD
ENDBRANCH  39  55
BRANCH  30  57
ATOM     57  O   LIG    1       11.124   0.225  -3.191  0.00  0.00    -0.425 OA
BRANCH  57  58
ATOM     58  C   LIG    1       12.407   0.255  -3.644  0.00  0.00    +0.309 C 
ATOM     59  O   LIG    1       13.410  -0.148  -3.051  0.00  0.00    -0.251 OA
ATOM     60  C   LIG    1       12.508   0.873  -5.032  0.00  0.00    +0.136 C 
ENDBRANCH  57  58
ENDBRANCH  30  57
TORSDOF 6
