REMARK  Name = DB12524
REMARK                            x       y       z     vdW  Elec       q    Type
REMARK                         _______ _______ _______ _____ _____    ______ ____
ROOT
ATOM      1  C   LIG    1        1.760  -1.544  -0.490  0.00  0.00    -0.040 A 
ATOM      2  C   LIG    1        2.023  -2.785   0.092  0.00  0.00    +0.006 A 
ATOM      3  C   LIG    1        2.566  -3.812  -0.673  0.00  0.00    +0.023 A 
ATOM      4  C   LIG    1        2.851  -3.610  -2.026  0.00  0.00    +0.034 A 
ATOM      5  C   LIG    1        2.602  -2.355  -2.605  0.00  0.00    +0.023 A 
ATOM      6  C   LIG    1        2.059  -1.329  -1.837  0.00  0.00    +0.006 A 
ENDROOT
BRANCH   4   7
ATOM      7  N   LIG    1        3.404  -4.711  -2.707  0.00  0.00    -0.282 N 
ATOM      8  H   LIG    1        3.683  -5.472  -2.105  0.00  0.00    +0.155 HD
ATOM      9  C   LIG    1        3.589  -4.904  -4.034  0.00  0.00    +0.248 C 
ATOM     10  O   LIG    1        3.231  -4.118  -4.913  0.00  0.00    -0.270 OA
BRANCH   9  11
ATOM     11  C   LIG    1        4.243  -6.215  -4.415  0.00  0.00    +0.037 A 
ATOM     12  C   LIG    1        5.088  -6.898  -3.526  0.00  0.00    +0.013 A 
ATOM     13  C   LIG    1        5.680  -8.102  -3.897  0.00  0.00    +0.013 A 
ATOM     14  C   LIG    1        5.439  -8.647  -5.161  0.00  0.00    +0.055 A 
ATOM     15  C   LIG    1        4.607  -7.967  -6.054  0.00  0.00    +0.013 A 
ATOM     16  C   LIG    1        4.014  -6.763  -5.684  0.00  0.00    +0.013 A 
BRANCH  14  17
ATOM     17  C   LIG    1        6.107  -9.960  -5.568  0.00  0.00    +0.417 C 
ATOM     18  F   LIG    1        6.228 -10.065  -6.893  0.00  0.00    -0.166 F 
ATOM     19  F   LIG    1        5.367 -10.978  -5.129  0.00  0.00    -0.166 F 
ATOM     20  F   LIG    1        7.328 -10.063  -5.039  0.00  0.00    -0.166 F 
ENDBRANCH  14  17
ENDBRANCH   9  11
ENDBRANCH   4   7
BRANCH   1  21
ATOM     21  C   LIG    1        1.178  -0.412   0.349  0.00  0.00    +0.111 C 
BRANCH  21  24
ATOM     22  C   LIG    1       -2.451  -1.194   0.159  0.00  0.00    +0.130 A 
ATOM     23  N   LIG    1       -1.100  -1.338   0.270  0.00  0.00    -0.217 NA
ATOM     24  C   LIG    1       -0.332  -0.232   0.222  0.00  0.00    +0.137 A 
ATOM     25  N   LIG    1       -0.788   1.029   0.110  0.00  0.00    -0.217 NA
ATOM     26  C   LIG    1       -2.135   1.222   0.002  0.00  0.00    +0.130 A 
ATOM     27  C   LIG    1       -3.030   0.107   0.022  0.00  0.00    +0.043 A 
BRANCH  22  29
ATOM     28  C   LIG    1       -4.204  -2.699  -0.749  0.00  0.00    +0.130 C 
ATOM     29  N   LIG    1       -3.202  -2.403   0.273  0.00  0.00    -0.321 N 
ATOM     30  C   LIG    1       -2.563  -3.594   0.842  0.00  0.00    +0.130 C 
ENDBRANCH  22  29
BRANCH  26  31
ATOM     31  N   LIG    1       -2.551   2.587  -0.044  0.00  0.00    -0.321 N 
ATOM     32  C   LIG    1       -3.469   3.004  -1.103  0.00  0.00    +0.130 C 
ATOM     33  C   LIG    1       -1.622   3.636   0.386  0.00  0.00    +0.130 C 
ENDBRANCH  26  31
BRANCH  27  34
ATOM     34  C   LIG    1       -4.563   0.310   0.099  0.00  0.00    +0.162 C 
BRANCH  34  35
ATOM     35  C   LIG    1       -5.318   0.322  -1.259  0.00  0.00    +0.309 C 
ATOM     36  O   LIG    1       -6.558   0.480  -1.190  0.00  0.00    -0.251 OA
BRANCH  35  37
ATOM     37  O   LIG    1       -4.693   0.178  -2.335  0.00  0.00    -0.480 OA
ATOM     38  H   LIG    1       -3.763   0.063  -2.325  0.00  0.00    +0.295 HD
ENDBRANCH  35  37
ENDBRANCH  34  35
ENDBRANCH  27  34
ENDBRANCH  21  24
ENDBRANCH   1  21
TORSDOF 10
