REMARK  Name = DB12696
REMARK                            x       y       z     vdW  Elec       q    Type
REMARK                         _______ _______ _______ _____ _____    ______ ____
ROOT
ATOM      1  N   LIG    1       -2.334   1.584   1.477  0.00  0.00    -0.234 N 
ATOM      2  C   LIG    1       -2.910   2.746   1.040  0.00  0.00    +0.126 A 
ATOM      3  C   LIG    1       -1.926   3.553   0.461  0.00  0.00    +0.060 A 
ATOM      4  C   LIG    1       -0.682   2.903   0.577  0.00  0.00    -0.008 A 
ATOM      5  C   LIG    1        0.691   3.374   0.130  0.00  0.00    +0.047 C 
ATOM      6  N   LIG    1       -2.991   0.568   2.067  0.00  0.00    -0.155 NA
ATOM      7  C   LIG    1       -2.180  -0.462   2.406  0.00  0.00    +0.245 A 
ATOM      8  N   LIG    1       -0.844  -0.547   2.216  0.00  0.00    -0.217 NA
ATOM      9  C   LIG    1       -0.223   0.511   1.629  0.00  0.00    +0.151 A 
ATOM     10  C   LIG    1       -0.950   1.650   1.211  0.00  0.00    +0.109 A 
ENDROOT
BRANCH   3  11
ATOM     11  C   LIG    1       -2.156   4.884  -0.050  0.00  0.00    +0.246 C 
ATOM     12  N   LIG    1       -3.308   5.020  -0.734  0.00  0.00    -0.311 N 
ATOM     13  H   LIG    1       -3.888   4.205  -0.871  0.00  0.00    +0.149 HD
ATOM     14  O   LIG    1       -1.357   5.800   0.146  0.00  0.00    -0.270 OA
BRANCH  12  15
ATOM     15  C   LIG    1       -3.785   6.265  -1.333  0.00  0.00    +0.104 C 
BRANCH  15  16
ATOM     16  C   LIG    1       -4.373   7.259  -0.313  0.00  0.00    +0.015 C 
ATOM     17  C   LIG    1       -4.936   8.528  -0.968  0.00  0.00    +0.005 C 
ENDBRANCH  15  16
ENDBRANCH  12  15
ENDBRANCH   3  11
BRANCH   9  18
ATOM     18  N   LIG    1        1.162   0.466   1.401  0.00  0.00    -0.297 N 
ATOM     19  H   LIG    1        1.508   1.247   0.863  0.00  0.00    +0.154 HD
BRANCH  18  20
ATOM     20  C   LIG    1        2.171  -0.427   1.813  0.00  0.00    +0.036 A 
ATOM     21  C   LIG    1        3.334  -0.561   1.035  0.00  0.00    -0.029 A 
ATOM     22  C   LIG    1        3.524   0.222  -0.260  0.00  0.00    +0.045 C 
ATOM     23  C   LIG    1        4.343  -1.436   1.445  0.00  0.00    +0.006 A 
ATOM     24  C   LIG    1        4.212  -2.170   2.621  0.00  0.00    +0.013 A 
ATOM     25  C   LIG    1        3.069  -2.037   3.425  0.00  0.00    +0.038 A 
ATOM     26  C   LIG    1        2.061  -1.157   3.005  0.00  0.00    +0.036 A 
BRANCH  25  27
ATOM     27  C   LIG    1        2.903  -2.817   4.715  0.00  0.00    +0.244 C 
ATOM     28  O   LIG    1        1.819  -2.841   5.302  0.00  0.00    -0.270 OA
ATOM     29  N   LIG    1        3.991  -3.467   5.172  0.00  0.00    -0.308 N 
ATOM     30  H   LIG    1        4.881  -3.256   4.746  0.00  0.00    +0.149 HD
BRANCH  29  31
ATOM     31  C   LIG    1        4.037  -4.223   6.420  0.00  0.00    +0.073 C 
ATOM     32  C   LIG    1        3.219  -5.490   6.551  0.00  0.00    +0.024 C 
ATOM     33  C   LIG    1        4.723  -5.568   6.424  0.00  0.00    +0.024 C 
ENDBRANCH  29  31
ENDBRANCH  25  27
ENDBRANCH  18  20
ENDBRANCH   9  18
TORSDOF 7
