REMARK  Name = DB12779
REMARK                            x       y       z     vdW  Elec       q    Type
REMARK                         _______ _______ _______ _____ _____    ______ ____
ROOT
ATOM      1  C   LIG    1        1.578   0.009   0.028  0.00  0.00    -0.036 C 
ATOM      2  N   LIG    1        2.186   0.855   1.173  0.00  0.00    +0.384 N 
ATOM      3  H   LIG    1        1.668   0.671   2.021  0.00  0.00    -0.085 HD
ATOM      4  H   LIG    1        2.056   1.833   0.959  0.00  0.00    -0.085 HD
ATOM      5  C   LIG    1        3.671   0.580   1.434  0.00  0.00    -0.077 C 
ATOM      6  C   LIG    1        3.805  -0.883   1.872  0.00  0.00    +0.016 C 
ATOM      7  C   LIG    1        3.207  -1.840   0.847  0.00  0.00    -0.044 A 
ATOM      8  C   LIG    1        3.712  -3.141   0.735  0.00  0.00    +0.053 A 
ATOM      9  C   LIG    1        3.185  -4.048  -0.179  0.00  0.00    +0.158 A 
ATOM     10  C   LIG    1        2.137  -3.654  -1.011  0.00  0.00    +0.158 A 
ATOM     11  C   LIG    1        1.633  -2.358  -0.912  0.00  0.00    +0.051 A 
ATOM     12  C   LIG    1        2.138  -1.431   0.013  0.00  0.00    -0.054 A 
ENDROOT
BRANCH   9  13
ATOM     13  O   LIG    1        3.710  -5.315  -0.248  0.00  0.00    -0.503 OA
ATOM     14  H   LIG    1        4.425  -5.463   0.375  0.00  0.00    +0.292 HD
ENDBRANCH   9  13
BRANCH  10  15
ATOM     15  O   LIG    1        1.598  -4.517  -1.932  0.00  0.00    -0.503 OA
ATOM     16  H   LIG    1        0.886  -4.130  -2.446  0.00  0.00    +0.292 HD
ENDBRANCH  10  15
BRANCH   1  17
ATOM     17  C   LIG    1        0.032   0.089   0.164  0.00  0.00    +0.024 C 
BRANCH  17  22
ATOM     18  C   LIG    1       -1.553   3.411   1.168  0.00  0.00    +0.045 A 
ATOM     19  C   LIG    1       -1.583   4.078  -0.056  0.00  0.00    +0.117 A 
ATOM     20  C   LIG    1       -1.098   3.463  -1.209  0.00  0.00    +0.045 A 
ATOM     21  C   LIG    1       -0.579   2.173  -1.138  0.00  0.00    +0.007 A 
ATOM     22  C   LIG    1       -0.544   1.501   0.087  0.00  0.00    -0.048 A 
ATOM     23  C   LIG    1       -1.034   2.121   1.240  0.00  0.00    +0.007 A 
BRANCH  19  24
ATOM     24  O   LIG    1       -2.092   5.347  -0.123  0.00  0.00    -0.507 OA
ATOM     25  H   LIG    1       -2.076   5.713  -1.011  0.00  0.00    +0.292 HD
ENDBRANCH  19  24
ENDBRANCH  17  22
ENDBRANCH   1  17
TORSDOF 5
