REMARK  Name = DB12416
REMARK                            x       y       z     vdW  Elec       q    Type
REMARK                         _______ _______ _______ _____ _____    ______ ____
ROOT
ATOM      1  C   LIG    1        1.637   0.959  -0.227  0.00  0.00    +0.040 C 
ATOM      2  C   LIG    1        2.616  -0.243  -0.341  0.00  0.00    +0.009 C 
ATOM      3  C   LIG    1        4.098   0.183  -0.253  0.00  0.00    +0.019 C 
ATOM      4  C   LIG    1        4.364   1.116   0.956  0.00  0.00    +0.109 C 
ATOM      5  N   LIG    1        3.430   2.254   0.852  0.00  0.00    -0.285 N 
ATOM      6  C   LIG    1        3.765   3.316   0.063  0.00  0.00    +0.302 C 
ATOM      7  N   LIG    1        2.837   4.294  -0.001  0.00  0.00    -0.301 N 
ATOM      8  H   LIG    1        2.007   4.204   0.568  0.00  0.00    +0.150 HD
ATOM      9  O   LIG    1        4.877   3.452  -0.453  0.00  0.00    -0.253 OA
ATOM     10  C   LIG    1        2.024   1.819   1.012  0.00  0.00    +0.115 C 
ENDROOT
BRANCH   1  11
ATOM     11  C   LIG    1        0.146   0.537  -0.189  0.00  0.00    +0.153 C 
BRANCH  11  12
ATOM     12  C   LIG    1       -0.288  -0.211  -1.452  0.00  0.00    -0.017 A 
ATOM     13  C   LIG    1       -0.473  -1.597  -1.425  0.00  0.00    +0.006 A 
ATOM     14  C   LIG    1       -0.872  -2.277  -2.576  0.00  0.00    +0.002 A 
ATOM     15  C   LIG    1       -1.089  -1.575  -3.762  0.00  0.00    +0.020 A 
ATOM     16  C   LIG    1       -0.908  -0.192  -3.797  0.00  0.00    +0.041 A 
ATOM     17 CL   LIG    1       -1.175   0.682  -5.261  0.00  0.00    -0.084 Cl
ATOM     18  C   LIG    1       -0.510   0.487  -2.645  0.00  0.00    +0.026 A 
ENDBRANCH  11  12
BRANCH  11  19
ATOM     19  O   LIG    1       -0.625   1.730  -0.042  0.00  0.00    -0.370 OA
BRANCH  19  20
ATOM     20  C   LIG    1       -1.973   1.555   0.380  0.00  0.00    +0.179 C 
BRANCH  20  21
ATOM     21  C   LIG    1       -2.648   2.930   0.529  0.00  0.00    +0.135 C 
BRANCH  21  24
ATOM     22  C   LIG    1       -0.927   4.609   1.242  0.00  0.00    +0.400 C 
ATOM     23  O   LIG    1       -0.390   4.749   0.140  0.00  0.00    -0.226 OA
ATOM     24  N   LIG    1       -2.011   3.791   1.527  0.00  0.00    -0.279 N 
ATOM     25  H   LIG    1       -2.348   3.753   2.478  0.00  0.00    +0.152 HD
BRANCH  22  26
ATOM     26  O   LIG    1       -0.541   5.231   2.372  0.00  0.00    -0.454 OA
ATOM     27  C   LIG    1        0.570   6.117   2.372  0.00  0.00    +0.282 C 
ENDBRANCH  22  26
ENDBRANCH  21  24
ENDBRANCH  20  21
ENDBRANCH  19  20
ENDBRANCH  11  19
ENDBRANCH   1  11
BRANCH   7  28
ATOM     28  C   LIG    1        2.870   5.437  -0.915  0.00  0.00    +0.090 C 
BRANCH  28  29
ATOM     29  C   LIG    1        2.680   5.053  -2.409  0.00  0.00    -0.054 C 
BRANCH  29  30
ATOM     30  N   LIG    1        1.181   4.755  -2.631  0.00  0.00    +0.380 N 
ATOM     31  H   LIG    1        0.667   5.625  -2.633  0.00  0.00    -0.086 HD
ATOM     32  H   LIG    1        0.857   4.220  -1.837  0.00  0.00    -0.086 HD
ATOM     33  C   LIG    1        0.836   3.949  -3.894  0.00  0.00    -0.100 C 
ENDBRANCH  29  30
BRANCH  29  34
ATOM     34  C   LIG    1        3.151   6.140  -3.415  0.00  0.00    -0.009 C 
BRANCH  34  35
ATOM     35  C   LIG    1        4.670   6.446  -3.415  0.00  0.00    +0.013 C 
ATOM     36  C   LIG    1        5.548   5.212  -3.731  0.00  0.00    +0.008 C 
ATOM     37  C   LIG    1        7.037   5.584  -3.824  0.00  0.00    +0.028 C 
ATOM     38  C   LIG    1        7.243   6.781  -4.772  0.00  0.00    +0.160 C 
ATOM     39  O   LIG    1        6.423   7.873  -4.359  0.00  0.00    -0.379 OA
ATOM     40  C   LIG    1        5.023   7.596  -4.390  0.00  0.00    +0.163 C 
ENDBRANCH  34  35
ENDBRANCH  29  34
ENDBRANCH  28  29
ENDBRANCH   7  28
TORSDOF 12
