REMARK  Name = DB12946
REMARK                            x       y       z     vdW  Elec       q    Type
REMARK                         _______ _______ _______ _____ _____    ______ ____
ROOT
ATOM      1  N   LIG    1        1.401  -0.122  -0.230  0.00  0.00    -0.276 N 
ATOM      2  C   LIG    1        2.015   0.521  -1.284  0.00  0.00    +0.334 A 
ATOM      3  O   LIG    1        1.367   0.958  -2.243  0.00  0.00    -0.246 OA
ATOM      4  N   LIG    1        3.401   0.631  -1.183  0.00  0.00    -0.259 N 
ATOM      5  C   LIG    1        4.265   0.153  -0.206  0.00  0.00    +0.282 A 
ATOM      6  O   LIG    1        5.491   0.285  -0.218  0.00  0.00    -0.265 OA
ATOM      7  C   LIG    1        3.508  -0.516   0.820  0.00  0.00    +0.149 A 
ATOM      8  N   LIG    1        3.919  -1.130   1.971  0.00  0.00    -0.336 N 
ATOM      9  H   LIG    1        4.869  -1.217   2.304  0.00  0.00    +0.167 HD
ATOM     10  C   LIG    1        2.784  -1.604   2.584  0.00  0.00    +0.113 A 
ATOM     11  N   LIG    1        1.700  -1.313   1.892  0.00  0.00    -0.214 NA
ATOM     12  C   LIG    1        2.135  -0.660   0.823  0.00  0.00    +0.168 A 
ENDROOT
BRANCH  10  13
ATOM     13  C   LIG    1        2.807  -2.331   3.923  0.00  0.00    +0.055 C 
ATOM     14  C   LIG    1        1.530  -3.109   4.281  0.00  0.00    +0.011 C 
ATOM     15  C   LIG    1        1.981  -4.110   5.344  0.00  0.00    +0.001 C 
ATOM     16  C   LIG    1        3.385  -4.531   4.904  0.00  0.00    +0.001 C 
ATOM     17  C   LIG    1        3.956  -3.345   4.109  0.00  0.00    +0.011 C 
ENDBRANCH  10  13
BRANCH   1  18
ATOM     18  C   LIG    1       -0.072  -0.242  -0.224  0.00  0.00    +0.128 C 
BRANCH  18  20
ATOM     19  C   LIG    1       -0.472   1.447   1.698  0.00  0.00    +0.005 C 
ATOM     20  C   LIG    1       -0.810   1.026   0.259  0.00  0.00    +0.018 C 
ENDBRANCH  18  20
ENDBRANCH   1  18
BRANCH   4  21
ATOM     21  C   LIG    1        4.062   1.356  -2.300  0.00  0.00    +0.130 C 
BRANCH  21  22
ATOM     22  C   LIG    1        4.431   0.452  -3.495  0.00  0.00    +0.018 C 
ATOM     23  C   LIG    1        5.103   1.230  -4.633  0.00  0.00    +0.005 C 
ENDBRANCH  21  22
ENDBRANCH   4  21
TORSDOF 5
