REMARK  Name = DB12601
REMARK                            x       y       z     vdW  Elec       q    Type
REMARK                         _______ _______ _______ _____ _____    ______ ____
ROOT
ATOM      1  C   LIG    1       -0.814   6.021   1.767  0.00  0.00    +0.205 C 
ATOM      2  C   LIG    1       -0.159   5.036   0.748  0.00  0.00    -0.008 C 
ATOM      3  C   LIG    1       -0.782   3.610   0.661  0.00  0.00    +0.061 C 
ATOM      4  C   LIG    1       -0.861   3.046   2.114  0.00  0.00    +0.025 C 
ATOM      5  C   LIG    1        0.063   2.665  -0.208  0.00  0.00    +0.027 C 
ATOM      6  C   LIG    1        1.073   3.127  -1.009  0.00  0.00    +0.169 C 
ATOM      7  C   LIG    1        1.514   4.549  -1.056  0.00  0.00    +0.224 C 
ATOM      8  O   LIG    1        2.292   5.020  -1.898  0.00  0.00    -0.284 OA
ATOM      9  C   LIG    1       -0.437   1.278  -0.228  0.00  0.00    +0.080 C 
ATOM     10  C   LIG    1        0.265   0.150   0.068  0.00  0.00    +0.086 C 
ATOM     11  C   LIG    1       -1.879   1.113  -0.507  0.00  0.00    +0.341 C 
ATOM     12  O   LIG    1       -2.476   0.088  -0.840  0.00  0.00    -0.245 OA
ATOM     13  O   LIG    1       -2.694   2.210  -0.294  0.00  0.00    -0.454 OA
ATOM     14  C   LIG    1       -2.191   3.542  -0.034  0.00  0.00    +0.217 C 
ATOM     15  C   LIG    1        0.928   5.414  -0.001  0.00  0.00    +0.011 C 
ATOM     16  C   LIG    1        1.569   6.816   0.196  0.00  0.00    +0.037 C 
ATOM     17  C   LIG    1        3.059   7.104  -0.041  0.00  0.00    +0.017 C 
ATOM     18  C   LIG    1        3.305   8.464   0.628  0.00  0.00    +0.075 C 
ATOM     19  C   LIG    1        2.119   8.662   1.583  0.00  0.00    +0.140 C 
ATOM     20  O   LIG    1        1.840   9.700   2.182  0.00  0.00    -0.297 OA
ATOM     21  C   LIG    1        1.333   7.338   1.627  0.00  0.00    +0.037 C 
ATOM     22  C   LIG    1        2.001   6.484   2.757  0.00  0.00    +0.020 C 
ATOM     23  C   LIG    1       -0.188   7.441   1.790  0.00  0.00    +0.064 C 
ENDROOT
BRANCH   6  24
ATOM     24  O   LIG    1        1.678   2.363  -1.865  0.00  0.00    -0.503 OA
ATOM     25  H   LIG    1        1.467   1.451  -1.910  0.00  0.00    +0.292 HD
ENDBRANCH   6  24
BRANCH   1  26
ATOM     26  O   LIG    1       -2.217   6.127   1.520  0.00  0.00    -0.457 OA
BRANCH  26  28
ATOM     27  C   LIG    1       -4.542   6.376   1.999  0.00  0.00    +0.136 C 
ATOM     28  C   LIG    1       -3.111   6.310   2.517  0.00  0.00    +0.305 C 
ATOM     29  O   LIG    1       -2.857   6.414   3.718  0.00  0.00    -0.251 OA
ENDBRANCH  26  28
ENDBRANCH   1  26
BRANCH  10  30
ATOM     30  N   LIG    1        1.552  -0.070   0.547  0.00  0.00    -0.327 N 
BRANCH  30  31
ATOM     31  C   LIG    1        2.258  -1.274   0.097  0.00  0.00    +0.131 C 
BRANCH  31  32
ATOM     32  C   LIG    1        2.686  -1.281  -1.359  0.00  0.00    -0.016 C 
ATOM     33  C   LIG    1        2.280  -2.178  -2.271  0.00  0.00    +0.005 C 
ENDBRANCH  31  32
ENDBRANCH  30  31
BRANCH  30  34
ATOM     34  C   LIG    1        2.414   0.976   1.110  0.00  0.00    +0.131 C 
BRANCH  34  35
ATOM     35  C   LIG    1        3.391   0.576   2.203  0.00  0.00    -0.016 C 
ATOM     36  C   LIG    1        4.723   0.721   2.127  0.00  0.00    +0.005 C 
ENDBRANCH  34  35
ENDBRANCH  30  34
ENDBRANCH  10  30
BRANCH  14  37
ATOM     37  C   LIG    1       -2.301   4.353  -1.350  0.00  0.00    +0.205 C 
BRANCH  37  38
ATOM     38  O   LIG    1       -3.667   4.437  -1.736  0.00  0.00    -0.379 OA
ATOM     39  C   LIG    1       -3.868   5.153  -2.944  0.00  0.00    +0.194 C 
ENDBRANCH  37  38
ENDBRANCH  14  37
TORSDOF 10
