REMARK  Name = DB12968
REMARK                            x       y       z     vdW  Elec       q    Type
REMARK                         _______ _______ _______ _____ _____    ______ ____
ROOT
ATOM      1  C   LIG    1       -4.289  -3.203   0.749  0.00  0.00    +0.005 C 
ATOM      2  C   LIG    1       -4.012  -1.954   1.607  0.00  0.00    +0.033 C 
ATOM      3  C   LIG    1       -2.503  -1.650   1.723  0.00  0.00    +0.137 C 
ATOM      4  C   LIG    1       -1.815  -1.550   0.334  0.00  0.00    +0.131 C 
ATOM      5  C   LIG    1       -2.092  -2.829  -0.510  0.00  0.00    +0.137 C 
ATOM      6  C   LIG    1       -3.601  -3.132  -0.628  0.00  0.00    +0.033 C 
ENDROOT
BRANCH   4   7
ATOM      7  N   LIG    1       -0.406  -1.131   0.406  0.00  0.00    -0.290 N 
ATOM      8  H   LIG    1        0.109  -1.470   1.206  0.00  0.00    +0.151 HD
ATOM      9  C   LIG    1        0.269  -0.408  -0.514  0.00  0.00    +0.325 C 
ATOM     10  N   LIG    1        1.567  -0.191  -0.198  0.00  0.00    -0.140 N 
ATOM     11  O   LIG    1       -0.274   0.104  -1.496  0.00  0.00    -0.251 OA
BRANCH  10  12
ATOM     12  N   LIG    1        2.353  -1.308   0.031  0.00  0.00    +0.053 NA
ATOM     13  O   LIG    1        3.524  -1.093   0.274  0.00  0.00    -0.126 OA
ENDBRANCH  10  12
BRANCH  10  14
ATOM     14  C   LIG    1        2.111   1.184  -0.232  0.00  0.00    +0.155 C 
BRANCH  14  15
ATOM     15  C   LIG    1        2.300   1.773   1.176  0.00  0.00    +0.130 C 
ATOM     16 CL   LIG    1        2.971   3.421   1.075  0.00  0.00    -0.124 Cl
ENDBRANCH  14  15
ENDBRANCH  10  14
ENDBRANCH   4   7
BRANCH   3  17
ATOM     17  O   LIG    1       -2.299  -0.494   2.515  0.00  0.00    -0.390 OA
ATOM     18  H   LIG    1       -2.000  -0.769   3.385  0.00  0.00    +0.210 HD
ENDBRANCH   3  17
BRANCH   5  19
ATOM     19  O   LIG    1       -1.499  -2.798  -1.794  0.00  0.00    -0.390 OA
ATOM     20  H   LIG    1       -1.859  -2.051  -2.278  0.00  0.00    +0.210 HD
ENDBRANCH   5  19
TORSDOF 6
