REMARK  Name = DB12979
REMARK                            x       y       z     vdW  Elec       q    Type
REMARK                         _______ _______ _______ _____ _____    ______ ____
ROOT
ATOM      1  C   LIG    1        0.512   5.360   2.191  0.00  0.00    +0.042 A 
ATOM      2  C   LIG    1       -0.203   4.726   1.170  0.00  0.00    -0.037 A 
ATOM      3  C   LIG    1       -0.633   3.269   1.274  0.00  0.00    +0.060 C 
ATOM      4  C   LIG    1       -0.403   2.486  -0.046  0.00  0.00    +0.094 C 
ATOM      5  C   LIG    1       -0.703   3.315  -1.336  0.00  0.00    +0.030 C 
ATOM      6  C   LIG    1       -1.295   4.724  -1.099  0.00  0.00    +0.040 C 
ATOM      7  C   LIG    1       -0.549   5.451   0.015  0.00  0.00    -0.009 A 
ATOM      8  C   LIG    1       -0.192   6.803  -0.077  0.00  0.00    +0.130 A 
ATOM      9  F   LIG    1       -0.524   7.521  -1.176  0.00  0.00    -0.205 F 
ATOM     10  C   LIG    1        0.512   7.425   0.952  0.00  0.00    +0.077 A 
ATOM     11  C   LIG    1        0.868   6.702   2.086  0.00  0.00    +0.126 A 
ATOM     12  F   LIG    1        1.554   7.302   3.085  0.00  0.00    -0.205 F 
ENDROOT
BRANCH   4  13
ATOM     13  N   LIG    1       -0.919   1.091  -0.045  0.00  0.00    -0.322 N 
ATOM     14  C   LIG    1       -2.239   0.698  -0.082  0.00  0.00    +0.158 A 
ATOM     15  S   LIG    1       -3.655   1.573  -0.134  0.00  0.00    -0.013 S 
ATOM     16  N   LIG    1       -2.147  -0.653  -0.071  0.00  0.00    -0.340 N 
ATOM     17  H   LIG    1       -2.969  -1.239  -0.097  0.00  0.00    +0.167 HD
ATOM     18  C   LIG    1       -0.889  -1.081  -0.016  0.00  0.00    +0.104 A 
ATOM     19  C   LIG    1       -0.098  -0.010   0.003  0.00  0.00    +0.020 A 
BRANCH  19  20
ATOM     20  C   LIG    1        1.423   0.150   0.071  0.00  0.00    -0.030 C 
BRANCH  20  21
ATOM     21  N   LIG    1        2.205  -1.166   0.167  0.00  0.00    +0.382 N 
ATOM     22  H   LIG    1        1.942  -1.668   1.003  0.00  0.00    -0.090 HD
ATOM     23  H   LIG    1        2.015  -1.744  -0.640  0.00  0.00    -0.090 HD
ATOM     24  H   LIG    1        3.197  -0.978   0.202  0.00  0.00    -0.090 HD
ENDBRANCH  20  21
ENDBRANCH  19  20
ENDBRANCH   4  13
TORSDOF 3
