REMARK  Name = DB12890
REMARK                            x       y       z     vdW  Elec       q    Type
REMARK                         _______ _______ _______ _____ _____    ______ ____
ROOT
ATOM      1  C   LIG    1       -2.167   5.606   3.075  0.00  0.00    +0.000 A 
ATOM      2  C   LIG    1       -3.099   5.791   2.058  0.00  0.00    +0.002 A 
ATOM      3  C   LIG    1       -3.326   4.796   1.100  0.00  0.00    -0.061 A 
ATOM      4  C   LIG    1       -4.372   4.987  -0.004  0.00  0.00    -0.046 C 
ATOM      5  N   LIG    1       -5.162   3.677  -0.261  0.00  0.00    +0.384 N 
ATOM      6  H   LIG    1       -5.410   3.654  -1.240  0.00  0.00    -0.085 HD
ATOM      7  H   LIG    1       -6.031   3.708   0.252  0.00  0.00    -0.085 HD
ATOM      8  C   LIG    1       -4.436   2.358   0.096  0.00  0.00    -0.059 C 
ATOM      9  C   LIG    1       -4.908   1.187  -0.771  0.00  0.00    -0.010 C 
ATOM     10  C   LIG    1       -4.298  -0.108  -0.214  0.00  0.00    +0.034 C 
ATOM     11  C   LIG    1       -2.774  -0.021  -0.123  0.00  0.00    -0.040 A 
ATOM     12  C   LIG    1       -2.013  -1.193  -0.216  0.00  0.00    +0.053 A 
ATOM     13  C   LIG    1       -0.622  -1.166  -0.160  0.00  0.00    +0.158 A 
ATOM     14  C   LIG    1        0.035   0.057  -0.024  0.00  0.00    +0.159 A 
ATOM     15  C   LIG    1       -0.711   1.229   0.067  0.00  0.00    +0.053 A 
ATOM     16  C   LIG    1       -2.114   1.222   0.050  0.00  0.00    -0.035 A 
ATOM     17  C   LIG    1       -2.897   2.554   0.069  0.00  0.00    +0.036 C 
ATOM     18  C   LIG    1       -2.584   3.597   1.155  0.00  0.00    -0.040 A 
ATOM     19  C   LIG    1       -1.665   3.418   2.200  0.00  0.00    +0.004 A 
ATOM     20  C   LIG    1       -1.453   4.415   3.150  0.00  0.00    +0.000 A 
ENDROOT
BRANCH  13  21
ATOM     21  O   LIG    1        0.078  -2.343  -0.252  0.00  0.00    -0.503 OA
ATOM     22  H   LIG    1       -0.486  -3.114  -0.345  0.00  0.00    +0.292 HD
ENDBRANCH  13  21
BRANCH  14  23
ATOM     23  O   LIG    1        1.405   0.127   0.012  0.00  0.00    -0.503 OA
ATOM     24  H   LIG    1        1.737   1.024   0.092  0.00  0.00    +0.292 HD
ENDBRANCH  14  23
TORSDOF 2
