REMARK  Name = DB12219
REMARK                            x       y       z     vdW  Elec       q    Type
REMARK                         _______ _______ _______ _____ _____    ______ ____
ROOT
ATOM      1  N   LIG    1       -0.706  -1.203   0.013  0.00  0.00    -0.298 N 
ATOM      2  C   LIG    1       -0.177   0.054   0.104  0.00  0.00    +0.217 C 
ATOM      3  O   LIG    1       -0.885   1.056   0.185  0.00  0.00    -0.276 OA
ATOM      4  C   LIG    1        0.129  -2.394  -0.222  0.00  0.00    +0.132 C 
ENDROOT
BRANCH   1   6
ATOM      5  C   LIG    1       -3.136  -0.617   0.714  0.00  0.00    +0.033 C 
ATOM      6  C   LIG    1       -2.159  -1.531  -0.065  0.00  0.00    +0.103 C 
BRANCH   6   7
ATOM      7  C   LIG    1       -2.672  -1.785  -1.495  0.00  0.00    -0.018 A 
ATOM      8  C   LIG    1       -3.587  -2.858  -1.773  0.00  0.00    -0.013 A 
ATOM      9  C   LIG    1       -4.112  -3.731  -0.773  0.00  0.00    +0.009 A 
ATOM     10  C   LIG    1       -4.991  -4.758  -1.106  0.00  0.00    +0.001 A 
ATOM     11  C   LIG    1       -5.382  -4.954  -2.423  0.00  0.00    +0.001 A 
ATOM     12  C   LIG    1       -4.904  -4.124  -3.430  0.00  0.00    +0.008 A 
ATOM     13  C   LIG    1       -4.008  -3.068  -3.127  0.00  0.00    -0.016 A 
ATOM     14  C   LIG    1       -3.526  -2.217  -4.150  0.00  0.00    +0.028 A 
ATOM     15  C   LIG    1       -2.653  -1.180  -3.850  0.00  0.00    +0.042 A 
ATOM     16 CL   LIG    1       -2.084  -0.146  -5.110  0.00  0.00    -0.084 Cl
ATOM     17  C   LIG    1       -2.234  -0.969  -2.544  0.00  0.00    +0.026 A 
ENDBRANCH   6   7
ENDBRANCH   1   6
BRANCH   2  18
ATOM     18  C   LIG    1        1.366   0.227   0.080  0.00  0.00    +0.107 C 
BRANCH  18  19
ATOM     19  C   LIG    1        2.011   1.658   0.082  0.00  0.00    +0.001 C 
ATOM     20  C   LIG    1        1.597   2.505   1.337  0.00  0.00    -0.007 C 
ATOM     21  C   LIG    1        2.283   3.890   1.379  0.00  0.00    -0.078 C 
ATOM     22  N   LIG    1        1.876   4.676   0.110  0.00  0.00    +0.378 N 
ATOM     23  H   LIG    1        0.873   4.799   0.139  0.00  0.00    -0.082 HD
ATOM     24  C   LIG    1        2.546   6.064   0.101  0.00  0.00    -0.096 C 
ATOM     25  C   LIG    1        2.211   3.911  -1.192  0.00  0.00    -0.078 C 
ATOM     26  C   LIG    1        1.527   2.526  -1.133  0.00  0.00    -0.007 C 
BRANCH  19  27
ATOM     27  C   LIG    1        3.554   1.416   0.037  0.00  0.00    -0.041 A 
ATOM     28  C   LIG    1        4.296   1.252   1.220  0.00  0.00    +0.007 A 
ATOM     29  C   LIG    1        5.664   0.999   1.181  0.00  0.00    +0.038 A 
ATOM     30  C   LIG    1        6.311   0.884  -0.045  0.00  0.00    +0.123 A 
ATOM     31  F   LIG    1        7.640   0.637  -0.085  0.00  0.00    -0.205 F 
ATOM     32  C   LIG    1        5.595   1.010  -1.230  0.00  0.00    +0.038 A 
ATOM     33  C   LIG    1        4.226   1.263  -1.189  0.00  0.00    +0.007 A 
ENDBRANCH  19  27
ENDBRANCH  18  19
ENDBRANCH   2  18
TORSDOF 5
