REMARK  Name = DB12112
REMARK                            x       y       z     vdW  Elec       q    Type
REMARK                         _______ _______ _______ _____ _____    ______ ____
ROOT
ATOM      1  C   LIG    1        3.562  -1.100   0.701  0.00  0.00    +0.044 C 
ATOM      2  C   LIG    1        2.066  -1.251   0.445  0.00  0.00    -0.050 C 
ATOM      3  C   LIG    1        1.328  -0.126   0.280  0.00  0.00    +0.003 C 
ENDROOT
BRANCH   2   4
ATOM      4  C   LIG    1        1.466  -2.586   0.380  0.00  0.00    +0.003 C 
ATOM      5  C   LIG    1        2.122  -3.746   0.591  0.00  0.00    +0.004 C 
BRANCH   5   6
ATOM      6  C   LIG    1        1.511  -5.075   0.504  0.00  0.00    -0.043 C 
ATOM      7  C   LIG    1        2.173  -6.077  -0.487  0.00  0.00    -0.010 C 
ATOM      8  C   LIG    1        1.268  -7.322  -0.726  0.00  0.00    +0.011 C 
ATOM      9  C   LIG    1        0.622  -7.854   0.553  0.00  0.00    +0.005 C 
ATOM     10  C   LIG    1       -0.268  -6.776   1.179  0.00  0.00    +0.031 C 
ATOM     11  C   LIG    1        2.363  -5.390  -1.865  0.00  0.00    +0.016 C 
ATOM     12  C   LIG    1        3.516  -6.539   0.132  0.00  0.00    +0.016 C 
ATOM     13  C   LIG    1        0.430  -5.417   1.273  0.00  0.00    -0.069 C 
ATOM     14  C   LIG    1       -0.241  -4.481   2.280  0.00  0.00    +0.039 C 
ENDBRANCH   5   6
ENDBRANCH   2   4
BRANCH   3  15
ATOM     15  C   LIG    1       -0.106  -0.035   0.041  0.00  0.00    +0.001 C 
ATOM     16  C   LIG    1       -0.739   1.139  -0.153  0.00  0.00    +0.003 C 
BRANCH  16  17
ATOM     17  C   LIG    1       -2.170   1.296  -0.388  0.00  0.00    -0.051 C 
ATOM     18  C   LIG    1       -2.834   0.402  -1.158  0.00  0.00    +0.017 C 
ATOM     19  C   LIG    1       -2.874   2.450   0.313  0.00  0.00    +0.043 C 
BRANCH  18  20
ATOM     20  C   LIG    1       -4.311   0.398  -1.506  0.00  0.00    +0.260 C 
BRANCH  20  21
ATOM     21  O   LIG    1       -4.961  -0.690  -0.864  0.00  0.00    -0.461 OA
BRANCH  21  22
ATOM     22  C   LIG    1       -6.278  -0.909  -1.050  0.00  0.00    +0.304 C 
ATOM     23  O   LIG    1       -7.037  -0.247  -1.759  0.00  0.00    -0.251 OA
ATOM     24  C   LIG    1       -6.778  -2.114  -0.264  0.00  0.00    +0.136 C 
ENDBRANCH  21  22
ENDBRANCH  20  21
ENDBRANCH  18  20
ENDBRANCH  16  17
ENDBRANCH   3  15
TORSDOF 7
