REMARK  Name = DB12547
REMARK                            x       y       z     vdW  Elec       q    Type
REMARK                         _______ _______ _______ _____ _____    ______ ____
ROOT
ATOM      1  C   LIG    1       -2.946  -0.113   0.761  0.00  0.00    +0.026 A 
ATOM      2  C   LIG    1       -2.283  -1.260   0.301  0.00  0.00    +0.034 A 
ATOM      3  C   LIG    1       -0.885  -1.277   0.286  0.00  0.00    +0.032 A 
ATOM      4  C   LIG    1       -0.126  -0.188   0.752  0.00  0.00    +0.019 A 
ATOM      5  C   LIG    1       -0.820   0.955   1.192  0.00  0.00    +0.129 A 
ATOM      6  F   LIG    1       -0.157   2.059   1.598  0.00  0.00    -0.205 F 
ATOM      7  C   LIG    1       -2.213   0.985   1.200  0.00  0.00    +0.040 A 
ENDROOT
BRANCH   4   8
ATOM      8  C   LIG    1        1.426  -0.229   0.734  0.00  0.00    +0.121 C 
ATOM      9  N   LIG    1        1.773   0.481  -0.512  0.00  0.00    -0.249 NA
ATOM     10  C   LIG    1        2.663   1.385  -0.572  0.00  0.00    +0.148 C 
ATOM     11  S   LIG    1        3.908   1.816   0.623  0.00  0.00    -0.091 S 
ATOM     12  C   LIG    1        2.834   1.640   2.058  0.00  0.00    +0.085 C 
ATOM     13  C   LIG    1        2.095   0.275   2.072  0.00  0.00    +0.059 C 
ATOM     14  C   LIG    1        3.016  -0.866   2.532  0.00  0.00    +0.167 C 
ATOM     15  O   LIG    1        3.240  -1.647   1.374  0.00  0.00    -0.377 OA
ATOM     16  C   LIG    1        2.019  -1.664   0.653  0.00  0.00    +0.195 C 
BRANCH  10  17
ATOM     17  N   LIG    1        2.990   1.878  -1.811  0.00  0.00    -0.338 N 
ATOM     18  H   LIG    1        3.582   2.691  -1.898  0.00  0.00    +0.144 HD
ATOM     19  H   LIG    1        2.582   1.479  -2.644  0.00  0.00    +0.144 HD
ENDBRANCH  10  17
ENDBRANCH   4   8
BRANCH   2  20
ATOM     20  N   LIG    1       -2.929  -2.407  -0.195  0.00  0.00    -0.280 N 
ATOM     21  H   LIG    1       -2.338  -3.024  -0.732  0.00  0.00    +0.155 HD
ATOM     22  C   LIG    1       -4.207  -2.818  -0.012  0.00  0.00    +0.267 C 
ATOM     23  O   LIG    1       -5.026  -2.229   0.697  0.00  0.00    -0.268 OA
BRANCH  22  24
ATOM     24  C   LIG    1       -4.607  -4.095  -0.727  0.00  0.00    +0.126 A 
ATOM     25  N   LIG    1       -3.683  -4.713  -1.524  0.00  0.00    -0.248 NA
ATOM     26  C   LIG    1       -4.035  -5.853  -2.170  0.00  0.00    +0.149 A 
ATOM     27  C   LIG    1       -5.301  -6.424  -2.056  0.00  0.00    +0.141 A 
ATOM     28  F   LIG    1       -5.608  -7.562  -2.718  0.00  0.00    -0.204 F 
ATOM     29  C   LIG    1       -6.244  -5.797  -1.242  0.00  0.00    +0.042 A 
ATOM     30  C   LIG    1       -5.900  -4.622  -0.571  0.00  0.00    +0.036 A 
ENDBRANCH  22  24
ENDBRANCH   2  20
TORSDOF 4
