REMARK  Name = DB12108
REMARK                            x       y       z     vdW  Elec       q    Type
REMARK                         _______ _______ _______ _____ _____    ______ ____
ROOT
ATOM      1  C   LIG    1        1.523   0.065   0.160  0.00  0.00    +0.126 A 
ATOM      2  N   LIG    1        2.244   0.948  -0.503  0.00  0.00    -0.224 NA
ATOM      3  C   LIG    1        3.515   0.605  -0.394  0.00  0.00    +0.145 A 
ATOM      4  C   LIG    1        4.628   1.396  -1.042  0.00  0.00    +0.059 A 
ATOM      5  C   LIG    1        5.913   0.878  -1.314  0.00  0.00    +0.132 A 
ATOM      6  O   LIG    1        6.309  -0.373  -0.920  0.00  0.00    -0.489 OA
ATOM      7  C   LIG    1        6.167  -0.646   0.463  0.00  0.00    +0.250 C 
ATOM      8  C   LIG    1        4.824  -1.303   0.774  0.00  0.00    +0.164 C 
ATOM      9  C   LIG    1        6.856   1.658  -1.987  0.00  0.00    +0.055 A 
ATOM     10  C   LIG    1        6.569   2.964  -2.391  0.00  0.00    -0.011 A 
ATOM     11  C   LIG    1        5.308   3.487  -2.106  0.00  0.00    +0.009 A 
ATOM     12  C   LIG    1        4.356   2.714  -1.446  0.00  0.00    +0.016 A 
ATOM     13  N   LIG    1        3.643  -0.548   0.373  0.00  0.00    -0.326 N 
ATOM     14  C   LIG    1        2.358  -0.884   0.715  0.00  0.00    +0.119 A 
ENDROOT
BRANCH   1  19
ATOM     15  C   LIG    1       -3.118  -1.367   0.630  0.00  0.00    +0.090 C 
ATOM     16  C   LIG    1       -1.917  -0.475   0.411  0.00  0.00    +0.149 A 
ATOM     17  N   LIG    1       -2.044   0.807   0.152  0.00  0.00    -0.154 NA
ATOM     18  N   LIG    1       -0.767   1.208   0.064  0.00  0.00    -0.241 N 
ATOM     19  C   LIG    1        0.059   0.117   0.246  0.00  0.00    +0.179 A 
ATOM     20  N   LIG    1       -0.681  -0.938   0.494  0.00  0.00    -0.210 NA
BRANCH  18  21
ATOM     21  C   LIG    1       -0.447   2.614  -0.235  0.00  0.00    +0.103 C 
ATOM     22  C   LIG    1       -0.635   2.883  -1.739  0.00  0.00    +0.032 C 
ATOM     23  C   LIG    1       -1.269   3.582   0.643  0.00  0.00    +0.032 C 
ENDBRANCH  18  21
ENDBRANCH   1  19
BRANCH  10  24
ATOM     24  C   LIG    1        7.590   3.782  -3.109  0.00  0.00    +0.020 A 
ATOM     25  C   LIG    1        7.617   5.156  -3.302  0.00  0.00    +0.118 A 
ATOM     26  N   LIG    1        8.760   5.451  -4.013  0.00  0.00    -0.256 N 
ATOM     27  N   LIG    1        9.444   4.329  -4.304  0.00  0.00    -0.178 NA
ATOM     28  C   LIG    1        8.758   3.353  -3.758  0.00  0.00    +0.143 A 
BRANCH  26  29
ATOM     29  C   LIG    1        9.245   6.770  -4.515  0.00  0.00    +0.133 C 
ATOM     30  C   LIG    1       10.736   6.925  -4.093  0.00  0.00    +0.046 C 
ATOM     31  C   LIG    1        8.438   7.924  -3.857  0.00  0.00    +0.046 C 
BRANCH  29  32
ATOM     32  C   LIG    1        9.117   6.916  -6.063  0.00  0.00    +0.238 C 
ATOM     33  N   LIG    1        8.226   6.160  -6.716  0.00  0.00    -0.327 N 
ATOM     34  H   LIG    1        8.104   6.271  -7.712  0.00  0.00    +0.145 HD
ATOM     35  H   LIG    1        7.679   5.471  -6.220  0.00  0.00    +0.145 HD
ATOM     36  O   LIG    1        9.748   7.787  -6.663  0.00  0.00    -0.273 OA
ENDBRANCH  29  32
ENDBRANCH  26  29
ENDBRANCH  10  24
TORSDOF 5
