REMARK  Name = DB12149
REMARK                            x       y       z     vdW  Elec       q    Type
REMARK                         _______ _______ _______ _____ _____    ______ ____
ROOT
ATOM      1  N   LIG    1        1.645  -0.006   0.007  0.00  0.00    -0.175 NA
ATOM      2  H   LIG    1        2.130   0.166  -0.877  0.00  0.00    +0.149 HD
ENDROOT
BRANCH   1   3
ATOM      3  S   LIG    1       -0.117  -0.049  -0.061  0.00  0.00    +0.065 S 
ATOM      4  O   LIG    1       -0.522  -0.616  -1.353  0.00  0.00    -0.153 OA
ATOM      5  O   LIG    1       -0.642  -0.558   1.211  0.00  0.00    -0.153 OA
BRANCH   3   8
ATOM      6  C   LIG    1       -0.731   4.116  -0.687  0.00  0.00    +0.064 A 
ATOM      7  S   LIG    1       -0.008   2.731  -1.447  0.00  0.00    -0.060 S 
ATOM      8  C   LIG    1       -0.505   1.716  -0.128  0.00  0.00    +0.144 A 
ATOM      9  C   LIG    1       -1.218   2.423   0.831  0.00  0.00    +0.037 A 
ATOM     10  C   LIG    1       -1.340   3.781   0.517  0.00  0.00    +0.026 A 
BRANCH   6  12
ATOM     11  C   LIG    1       -0.579   6.526  -1.834  0.00  0.00    -0.061 C 
ATOM     12  C   LIG    1       -0.650   5.421  -1.318  0.00  0.00    -0.054 C 
BRANCH  11  17
ATOM     13  C   LIG    1       -0.213  11.762  -4.200  0.00  0.00    +0.044 C 
ATOM     14  C   LIG    1       -0.316  10.382  -3.578  0.00  0.00    -0.050 A 
ATOM     15  C   LIG    1       -1.525   9.946  -3.031  0.00  0.00    +0.004 A 
ATOM     16  C   LIG    1       -1.612   8.679  -2.459  0.00  0.00    +0.017 A 
ATOM     17  C   LIG    1       -0.489   7.849  -2.434  0.00  0.00    +0.025 A 
ATOM     18  C   LIG    1        0.721   8.284  -2.982  0.00  0.00    +0.017 A 
ATOM     19  C   LIG    1        0.806   9.551  -3.553  0.00  0.00    +0.004 A 
ENDBRANCH  11  17
ENDBRANCH   6  12
ENDBRANCH   3   8
ENDBRANCH   1   3
BRANCH   1  20
ATOM     20  C   LIG    1        2.334   0.496   1.225  0.00  0.00    +0.189 C 
BRANCH  20  21
ATOM     21  C   LIG    1        3.356  -0.633   1.629  0.00  0.00    +0.324 C 
ATOM     22  O   LIG    1        2.834  -1.612   2.212  0.00  0.00    -0.249 OA
BRANCH  21  23
ATOM     23  O   LIG    1        4.556  -0.467   1.305  0.00  0.00    -0.479 OA
ATOM     24  H   LIG    1        4.819   0.319   0.868  0.00  0.00    +0.295 HD
ENDBRANCH  21  23
ENDBRANCH  20  21
BRANCH  20  25
ATOM     25  C   LIG    1        2.965   1.892   0.951  0.00  0.00    +0.069 C 
BRANCH  25  26
ATOM     26  C   LIG    1        3.526   2.620   2.140  0.00  0.00    -0.020 A 
ATOM     27  C   LIG    1        2.803   3.334   3.190  0.00  0.00    +0.003 A 
ATOM     28  C   LIG    1        1.439   3.608   3.447  0.00  0.00    +0.010 A 
ATOM     29  C   LIG    1        1.043   4.353   4.577  0.00  0.00    +0.001 A 
ATOM     30  C   LIG    1        2.005   4.844   5.481  0.00  0.00    +0.002 A 
ATOM     31  C   LIG    1        3.370   4.586   5.258  0.00  0.00    +0.026 A 
ATOM     32  C   LIG    1        3.753   3.840   4.129  0.00  0.00    +0.047 A 
ATOM     33  N   LIG    1        4.973   3.417   3.643  0.00  0.00    -0.360 N 
ATOM     34  H   LIG    1        5.871   3.593   4.071  0.00  0.00    +0.165 HD
ATOM     35  C   LIG    1        4.833   2.690   2.479  0.00  0.00    +0.087 A 
ENDBRANCH  25  26
ENDBRANCH  20  25
ENDBRANCH   1  20
TORSDOF 9
