REMARK  Name = DB12935
REMARK                            x       y       z     vdW  Elec       q    Type
REMARK                         _______ _______ _______ _____ _____    ______ ____
ROOT
ATOM      1  O   LIG    1        0.130   0.160   0.104  0.00  0.00    -0.443 OA
ENDROOT
BRANCH   1   4
ATOM      2  C   LIG    1       -0.934   3.381   1.270  0.00  0.00    +0.191 C 
ATOM      3  O   LIG    1       -0.352   2.075   1.266  0.00  0.00    -0.330 OA
ATOM      4  C   LIG    1       -0.527   1.396   0.048  0.00  0.00    +0.341 C 
ATOM      5  C   LIG    1       -2.021   1.088  -0.147  0.00  0.00    +0.214 C 
ATOM      6  C   LIG    1       -2.866   2.382  -0.035  0.00  0.00    +0.180 C 
ATOM      7  C   LIG    1       -2.472   3.225   1.199  0.00  0.00    +0.178 C 
BRANCH   5   8
ATOM      8  O   LIG    1       -2.256   0.428  -1.379  0.00  0.00    -0.383 OA
ATOM      9  H   LIG    1       -3.195   0.476  -1.573  0.00  0.00    +0.210 HD
ENDBRANCH   5   8
BRANCH   6  10
ATOM     10  O   LIG    1       -4.253   2.085  -0.041  0.00  0.00    -0.386 OA
ATOM     11  H   LIG    1       -4.458   1.564   0.739  0.00  0.00    +0.210 HD
ENDBRANCH   6  10
BRANCH   7  12
ATOM     12  O   LIG    1       -3.123   4.485   1.193  0.00  0.00    -0.386 OA
ATOM     13  H   LIG    1       -3.039   4.879   2.064  0.00  0.00    +0.210 HD
ENDBRANCH   7  12
BRANCH   2  14
ATOM     14  C   LIG    1       -0.464   4.106   2.545  0.00  0.00    +0.270 C 
BRANCH  14  15
ATOM     15  O   LIG    1        0.951   4.255   2.516  0.00  0.00    -0.431 OA
BRANCH  15  16
ATOM     16  C   LIG    1        1.601   4.825   3.547  0.00  0.00    +0.510 C 
ATOM     17  O   LIG    1        1.088   5.255   4.585  0.00  0.00    -0.203 OA
BRANCH  16  18
ATOM     18  O   LIG    1        2.915   4.842   3.239  0.00  0.00    -0.434 OA
BRANCH  18  20
ATOM     19  C   LIG    1        4.255   4.345   5.234  0.00  0.00    +0.048 C 
ATOM     20  C   LIG    1        3.888   5.362   4.142  0.00  0.00    +0.232 C 
ENDBRANCH  18  20
ENDBRANCH  16  18
ENDBRANCH  15  16
ENDBRANCH  14  15
ENDBRANCH   2  14
ENDBRANCH   1   4
BRANCH   1  21
ATOM     21  C   LIG    1        1.509   0.128   0.057  0.00  0.00    +0.240 A 
ATOM     22  N   LIG    1        2.248   1.218   0.037  0.00  0.00    -0.133 NA
ATOM     23  N   LIG    1        3.513   0.784   0.029  0.00  0.00    -0.262 N 
ATOM     24  C   LIG    1        3.595  -0.592   0.010  0.00  0.00    +0.044 A 
ATOM     25  C   LIG    1        4.913  -1.339  -0.031  0.00  0.00    +0.065 C 
ATOM     26  C   LIG    1        2.281  -1.053   0.039  0.00  0.00    +0.040 A 
BRANCH  23  27
ATOM     27  C   LIG    1        4.614   1.762  -0.008  0.00  0.00    +0.101 C 
ATOM     28  C   LIG    1        4.719   2.380  -1.416  0.00  0.00    +0.032 C 
ATOM     29  C   LIG    1        4.447   2.836   1.089  0.00  0.00    +0.032 C 
ENDBRANCH  23  27
BRANCH  26  30
ATOM     30  C   LIG    1        1.829  -2.510   0.050  0.00  0.00    +0.077 C 
BRANCH  30  31
ATOM     31  C   LIG    1        0.320  -2.706   0.123  0.00  0.00    -0.043 A 
ATOM     32  C   LIG    1       -0.328  -2.682   1.360  0.00  0.00    +0.007 A 
ATOM     33  C   LIG    1       -1.715  -2.783   1.423  0.00  0.00    +0.046 A 
ATOM     34  C   LIG    1       -2.469  -2.914   0.246  0.00  0.00    +0.121 A 
ATOM     35  C   LIG    1       -1.809  -2.965  -0.983  0.00  0.00    +0.046 A 
ATOM     36  C   LIG    1       -0.423  -2.858  -1.049  0.00  0.00    +0.007 A 
BRANCH  34  37
ATOM     37  O   LIG    1       -3.849  -3.000   0.199  0.00  0.00    -0.489 OA
BRANCH  37  38
ATOM     38  C   LIG    1       -4.640  -2.829   1.378  0.00  0.00    +0.167 C 
ATOM     39  C   LIG    1       -4.701  -1.345   1.791  0.00  0.00    +0.051 C 
ATOM     40  C   LIG    1       -6.035  -3.386   1.062  0.00  0.00    +0.051 C 
ENDBRANCH  37  38
ENDBRANCH  34  37
ENDBRANCH  30  31
ENDBRANCH  26  30
ENDBRANCH   1  21
TORSDOF 15
