REMARK  Name = DB12545
REMARK                            x       y       z     vdW  Elec       q    Type
REMARK                         _______ _______ _______ _____ _____    ______ ____
ROOT
ATOM      1  C   LIG    1        2.003   0.691  -1.305  0.00  0.00    -0.034 A 
ATOM      2  C   LIG    1        1.633   0.256  -2.584  0.00  0.00    +0.006 A 
ATOM      3  C   LIG    1        2.088   0.931  -3.713  0.00  0.00    +0.024 A 
ATOM      4  C   LIG    1        2.912   2.049  -3.562  0.00  0.00    +0.037 A 
ATOM      5  C   LIG    1        3.289   2.488  -2.291  0.00  0.00    +0.024 A 
ATOM      6  C   LIG    1        2.831   1.810  -1.166  0.00  0.00    +0.006 A 
ENDROOT
BRANCH   4   7
ATOM      7  N   LIG    1        3.384   2.719  -4.693  0.00  0.00    -0.263 N 
ATOM      8  C   LIG    1        2.710   3.728  -5.302  0.00  0.00    +0.251 C 
ATOM      9  O   LIG    1        1.622   4.205  -4.975  0.00  0.00    -0.270 OA
ATOM     10  C   LIG    1        3.572   4.136  -6.453  0.00  0.00    +0.042 A 
ATOM     11  C   LIG    1        4.712   3.357  -6.477  0.00  0.00    -0.018 A 
ATOM     12  C   LIG    1        5.676   3.553  -7.467  0.00  0.00    +0.006 A 
ATOM     13  C   LIG    1        5.476   4.544  -8.432  0.00  0.00    +0.000 A 
ATOM     14  C   LIG    1        4.321   5.331  -8.403  0.00  0.00    +0.001 A 
ATOM     15  C   LIG    1        3.359   5.131  -7.410  0.00  0.00    +0.013 A 
ATOM     16  C   LIG    1        4.655   2.391  -5.336  0.00  0.00    +0.149 C 
ENDBRANCH   4   7
BRANCH   1  17
ATOM     17  C   LIG    1        1.495  -0.043  -0.052  0.00  0.00    +0.127 C 
BRANCH  17  19
ATOM     18  C   LIG    1       -0.660   1.387   0.154  0.00  0.00    +0.005 C 
ATOM     19  C   LIG    1       -0.059  -0.026   0.075  0.00  0.00    +0.016 C 
ENDBRANCH  17  19
BRANCH  17  20
ATOM     20  C   LIG    1        2.129  -1.467   0.025  0.00  0.00    +0.312 C 
ATOM     21  O   LIG    1        3.362  -1.531   0.243  0.00  0.00    -0.250 OA
BRANCH  20  22
ATOM     22  O   LIG    1        1.403  -2.479  -0.123  0.00  0.00    -0.480 OA
ATOM     23  H   LIG    1        0.486  -2.378  -0.284  0.00  0.00    +0.295 HD
ENDBRANCH  20  22
ENDBRANCH  17  20
ENDBRANCH   1  17
TORSDOF 5
