REMARK  Name = DB12934
REMARK                            x       y       z     vdW  Elec       q    Type
REMARK                         _______ _______ _______ _____ _____    ______ ____
ROOT
ATOM      1  C   LIG    1        3.811  -1.237   1.534  0.00  0.00    -0.036 A 
ATOM      2  C   LIG    1        3.710  -1.625   2.870  0.00  0.00    +0.019 A 
ATOM      3  C   LIG    1        4.201  -0.815   3.906  0.00  0.00    +0.058 A 
ATOM      4  C   LIG    1        4.853   0.402   3.579  0.00  0.00    +0.046 A 
ATOM      5  C   LIG    1        4.976   0.761   2.223  0.00  0.00    +0.024 A 
ATOM      6  C   LIG    1        4.456  -0.045   1.216  0.00  0.00    +0.006 A 
ENDROOT
BRANCH   3   7
ATOM      7  C   LIG    1        4.052  -1.301   5.337  0.00  0.00    +0.248 C 
ATOM      8  N   LIG    1        2.830  -1.708   5.777  0.00  0.00    -0.304 N 
ATOM      9  C   LIG    1        2.668  -2.433   7.040  0.00  0.00    +0.132 C 
ATOM     10  C   LIG    1        1.555  -1.445   5.104  0.00  0.00    +0.132 C 
ATOM     11  O   LIG    1        5.064  -1.370   6.038  0.00  0.00    -0.270 OA
ENDBRANCH   3   7
BRANCH   4  12
ATOM     12  N   LIG    1        5.341   1.220   4.629  0.00  0.00    -0.281 N 
ATOM     13  H   LIG    1        5.266   0.795   5.543  0.00  0.00    +0.155 HD
ATOM     14  C   LIG    1        5.860   2.468   4.606  0.00  0.00    +0.249 C 
ATOM     15  O   LIG    1        5.967   3.187   3.612  0.00  0.00    -0.270 OA
BRANCH  14  16
ATOM     16  C   LIG    1        6.280   2.999   5.956  0.00  0.00    +0.045 A 
ATOM     17  C   LIG    1        7.163   2.305   6.825  0.00  0.00    -0.006 A 
ATOM     18  C   LIG    1        7.455   2.874   8.074  0.00  0.00    +0.009 A 
ATOM     19  C   LIG    1        6.914   4.097   8.460  0.00  0.00    +0.001 A 
ATOM     20  C   LIG    1        6.065   4.780   7.598  0.00  0.00    +0.001 A 
ATOM     21  C   LIG    1        5.752   4.235   6.357  0.00  0.00    +0.013 A 
BRANCH  17  22
ATOM     22  C   LIG    1        7.814   1.002   6.487  0.00  0.00    -0.017 A 
ATOM     23  C   LIG    1        8.575   0.858   5.321  0.00  0.00    +0.009 A 
ATOM     24  C   LIG    1        9.162  -0.363   5.003  0.00  0.00    +0.013 A 
ATOM     25  C   LIG    1        9.006  -1.461   5.856  0.00  0.00    +0.055 A 
ATOM     26  C   LIG    1        8.264  -1.317   7.032  0.00  0.00    +0.013 A 
ATOM     27  C   LIG    1        7.678  -0.094   7.345  0.00  0.00    +0.009 A 
BRANCH  25  28
ATOM     28  C   LIG    1        9.633  -2.813   5.520  0.00  0.00    +0.417 C 
ATOM     29  F   LIG    1        8.679  -3.639   5.090  0.00  0.00    -0.166 F 
ATOM     30  F   LIG    1       10.205  -3.346   6.600  0.00  0.00    -0.166 F 
ATOM     31  F   LIG    1       10.562  -2.716   4.567  0.00  0.00    -0.166 F 
ENDBRANCH  25  28
ENDBRANCH  17  22
ENDBRANCH  14  16
ENDBRANCH   4  12
BRANCH   1  32
ATOM     32  C   LIG    1        3.206  -2.097   0.430  0.00  0.00    +0.155 C 
BRANCH  32  33
ATOM     33  C   LIG    1        1.677  -1.973   0.436  0.00  0.00    +0.311 C 
ATOM     34  O   LIG    1        0.957  -2.971   0.490  0.00  0.00    -0.250 OA
BRANCH  33  35
ATOM     35  O   LIG    1        1.256  -0.693   0.370  0.00  0.00    -0.462 OA
BRANCH  35  36
ATOM     36  C   LIG    1       -0.131  -0.368   0.428  0.00  0.00    +0.266 C 
BRANCH  36  37
ATOM     37  C   LIG    1       -0.372   1.179   0.461  0.00  0.00    +0.222 C 
BRANCH  37  38
ATOM     38  C   LIG    1        0.590   1.835   1.520  0.00  0.00    -0.017 A 
ATOM     39  C   LIG    1        1.589   2.774   1.192  0.00  0.00    +0.005 A 
ATOM     40  C   LIG    1        2.429   3.304   2.168  0.00  0.00    +0.000 A 
ATOM     41  C   LIG    1        2.295   2.897   3.490  0.00  0.00    +0.000 A 
ATOM     42  C   LIG    1        1.338   1.953   3.841  0.00  0.00    +0.000 A 
ATOM     43  C   LIG    1        0.501   1.424   2.863  0.00  0.00    +0.005 A 
ENDBRANCH  37  38
BRANCH  37  44
ATOM     44  C   LIG    1       -0.141   1.775  -0.972  0.00  0.00    +0.332 C 
ATOM     45  O   LIG    1        0.461   1.150  -1.850  0.00  0.00    -0.249 OA
BRANCH  44  46
ATOM     46  O   LIG    1       -0.650   3.026  -1.135  0.00  0.00    -0.464 OA
BRANCH  46  48
ATOM     47  C   LIG    1       -1.184   5.088  -2.255  0.00  0.00    +0.048 C 
ATOM     48  C   LIG    1       -0.524   3.712  -2.372  0.00  0.00    +0.229 C 
ENDBRANCH  46  48
ENDBRANCH  44  46
ENDBRANCH  37  44
BRANCH  37  49
ATOM     49  C   LIG    1       -1.867   1.413   0.873  0.00  0.00    +0.332 C 
ATOM     50  O   LIG    1       -2.196   2.148   1.809  0.00  0.00    -0.249 OA
BRANCH  49  51
ATOM     51  O   LIG    1       -2.744   0.735   0.087  0.00  0.00    -0.464 OA
BRANCH  51  52
ATOM     52  C   LIG    1       -4.145   0.831   0.305  0.00  0.00    +0.229 C 
ATOM     53  C   LIG    1       -4.882   0.025  -0.769  0.00  0.00    +0.048 C 
ENDBRANCH  51  52
ENDBRANCH  49  51
ENDBRANCH  37  49
ENDBRANCH  36  37
ENDBRANCH  35  36
ENDBRANCH  33  35
ENDBRANCH  32  33
ENDBRANCH   1  32
TORSDOF 17
