REMARK  Name = DB12897
REMARK                            x       y       z     vdW  Elec       q    Type
REMARK                         _______ _______ _______ _____ _____    ______ ____
ROOT
ATOM      1  C   LIG    1        1.527   0.056   0.184  0.00  0.00    -0.034 A 
ATOM      2  C   LIG    1        2.217   0.438   1.381  0.00  0.00    -0.012 A 
ATOM      3  C   LIG    1        1.544   0.976   2.517  0.00  0.00    +0.009 A 
ATOM      4  C   LIG    1        2.242   1.341   3.661  0.00  0.00    +0.001 A 
ATOM      5  C   LIG    1        3.619   1.190   3.723  0.00  0.00    +0.001 A 
ATOM      6  C   LIG    1        4.318   0.669   2.641  0.00  0.00    +0.010 A 
ATOM      7  C   LIG    1        3.643   0.279   1.446  0.00  0.00    +0.009 A 
ATOM      8  C   LIG    1        4.331  -0.263   0.314  0.00  0.00    +0.086 A 
ATOM      9  N   LIG    1        5.731  -0.416   0.362  0.00  0.00    -0.236 NA
ATOM     10  C   LIG    1        6.360  -0.906  -0.641  0.00  0.00    +0.203 A 
ATOM     11  N   LIG    1        5.737  -1.316  -1.808  0.00  0.00    -0.293 N 
ATOM     12  C   LIG    1        4.371  -1.206  -2.023  0.00  0.00    +0.262 A 
ATOM     13  O   LIG    1        3.810  -1.529  -3.075  0.00  0.00    -0.267 OA
ATOM     14  C   LIG    1        3.615  -0.633  -0.831  0.00  0.00    +0.066 A 
ATOM     15  C   LIG    1        2.234  -0.477  -0.892  0.00  0.00    +0.020 A 
ENDROOT
BRANCH  11  16
ATOM     16  C   LIG    1        6.546  -1.864  -2.940  0.00  0.00    +0.120 C 
ATOM     17  C   LIG    1        7.777  -2.769  -2.604  0.00  0.00    +0.137 C 
ATOM     18  C   LIG    1        8.444  -3.365  -3.860  0.00  0.00    +0.033 C 
ATOM     19  C   LIG    1        8.824  -2.272  -4.874  0.00  0.00    +0.003 C 
ATOM     20  C   LIG    1        7.616  -1.398  -5.248  0.00  0.00    +0.002 C 
ATOM     21  C   LIG    1        6.904  -0.803  -4.016  0.00  0.00    +0.028 C 
BRANCH  17  22
ATOM     22  O   LIG    1        7.452  -3.794  -1.685  0.00  0.00    -0.390 OA
ATOM     23  H   LIG    1        6.782  -4.358  -2.081  0.00  0.00    +0.210 HD
ENDBRANCH  17  22
ENDBRANCH  11  16
BRANCH   1  24
ATOM     24  C   LIG    1        0.006   0.199   0.070  0.00  0.00    +0.072 C 
BRANCH  24  29
ATOM     25  C   LIG    1       -1.984   5.610  -0.531  0.00  0.00    +0.065 C 
ATOM     26  C   LIG    1       -1.425   4.205  -0.425  0.00  0.00    +0.038 A 
ATOM     27  N   LIG    1       -1.956   3.430   0.556  0.00  0.00    -0.260 NA
ATOM     28  C   LIG    1       -1.486   2.164   0.691  0.00  0.00    +0.115 A 
ATOM     29  C   LIG    1       -0.484   1.629  -0.128  0.00  0.00    -0.025 A 
ATOM     30  C   LIG    1        0.046   2.445  -1.135  0.00  0.00    +0.007 A 
ATOM     31  C   LIG    1       -0.424   3.750  -1.289  0.00  0.00    +0.023 A 
ENDBRANCH  24  29
ENDBRANCH   1  24
TORSDOF 4
