REMARK  Name = DB12123
REMARK                            x       y       z     vdW  Elec       q    Type
REMARK                         _______ _______ _______ _____ _____    ______ ____
ROOT
ATOM      1  C   LIG    1        3.660  -0.935   0.274  0.00  0.00    +0.239 C 
ATOM      2  N   LIG    1        4.399  -2.082   0.252  0.00  0.00    -0.302 N 
ATOM      3  C   LIG    1        5.875  -2.034   0.319  0.00  0.00    +0.089 C 
ATOM      4  C   LIG    1        6.321  -2.778   1.601  0.00  0.00    -0.059 C 
ATOM      5  N   LIG    1        5.777  -4.227   1.602  0.00  0.00    +0.387 N 
ATOM      6  H   LIG    1        6.170  -4.703   0.801  0.00  0.00    -0.081 HD
ATOM      7  C   LIG    1        4.236  -4.195   1.461  0.00  0.00    -0.059 C 
ATOM      8  C   LIG    1        3.860  -3.456   0.160  0.00  0.00    +0.089 C 
ATOM      9  O   LIG    1        4.187   0.181   0.265  0.00  0.00    -0.271 OA
ENDROOT
BRANCH   1  11
ATOM     10  C   LIG    1        1.378  -0.099  -0.094  0.00  0.00    +0.013 C 
ATOM     11  C   LIG    1        2.216  -1.062   0.350  0.00  0.00    +0.068 C 
BRANCH  10  16
ATOM     12  C   LIG    1       -2.214   1.065  -0.259  0.00  0.00    +0.166 A 
ATOM     13  C   LIG    1       -2.906  -0.121   0.017  0.00  0.00    +0.204 A 
ATOM     14  C   LIG    1       -2.218  -1.321   0.242  0.00  0.00    +0.166 A 
ATOM     15  C   LIG    1       -0.814  -1.316   0.206  0.00  0.00    +0.057 A 
ATOM     16  C   LIG    1       -0.100  -0.141  -0.059  0.00  0.00    -0.018 A 
ATOM     17  C   LIG    1       -0.811   1.039  -0.291  0.00  0.00    +0.057 A 
BRANCH  12  19
ATOM     18  C   LIG    1       -2.319   3.433  -0.765  0.00  0.00    +0.277 C 
ATOM     19  O   LIG    1       -2.972   2.201  -0.482  0.00  0.00    -0.491 OA
ENDBRANCH  12  19
BRANCH  13  20
ATOM     20  O   LIG    1       -4.280  -0.113   0.040  0.00  0.00    -0.488 OA
ATOM     21  C   LIG    1       -4.837   0.133   1.324  0.00  0.00    +0.277 C 
ENDBRANCH  13  20
BRANCH  14  22
ATOM     22  O   LIG    1       -2.981  -2.449   0.490  0.00  0.00    -0.491 OA
ATOM     23  C   LIG    1       -2.334  -3.695   0.723  0.00  0.00    +0.277 C 
ENDBRANCH  14  22
ENDBRANCH  10  16
ENDBRANCH   1  11
BRANCH   5  24
ATOM     24  C   LIG    1        6.223  -4.965   2.893  0.00  0.00    +0.019 C 
BRANCH  24  25
ATOM     25  C   LIG    1        6.029  -6.497   2.780  0.00  0.00    +0.199 C 
ATOM     26  N   LIG    1        5.985  -7.225   3.921  0.00  0.00    -0.303 N 
ATOM     27  C   LIG    1        5.834  -8.687   3.919  0.00  0.00    +0.108 C 
ATOM     28  C   LIG    1        6.227  -9.069   5.344  0.00  0.00    +0.020 C 
ATOM     29  C   LIG    1        5.809  -7.869   6.172  0.00  0.00    +0.020 C 
ATOM     30  C   LIG    1        6.120  -6.671   5.275  0.00  0.00    +0.108 C 
ATOM     31  O   LIG    1        5.940  -7.022   1.667  0.00  0.00    -0.278 OA
ENDBRANCH  24  25
ENDBRANCH   5  24
TORSDOF 7
