REMARK  Name = DB12438
REMARK                            x       y       z     vdW  Elec       q    Type
REMARK                         _______ _______ _______ _____ _____    ______ ____
ROOT
ATOM      1  C   LIG    1       -0.782  -0.428   1.348  0.00  0.00    +0.206 A 
ATOM      2  N   LIG    1        0.018   0.516   0.794  0.00  0.00    -0.290 N 
ATOM      3  C   LIG    1       -0.847   1.458   0.313  0.00  0.00    +0.173 A 
ATOM      4  N   LIG    1       -0.510   2.611  -0.338  0.00  0.00    -0.196 NA
ATOM      5  C   LIG    1       -1.536   3.316  -0.686  0.00  0.00    +0.195 A 
ATOM      6  N   LIG    1       -2.840   2.929  -0.417  0.00  0.00    -0.293 N 
ATOM      7  H   LIG    1       -3.580   3.543  -0.724  0.00  0.00    +0.172 HD
ATOM      8  C   LIG    1       -3.263   1.793   0.229  0.00  0.00    +0.280 A 
ATOM      9  O   LIG    1       -4.452   1.543   0.418  0.00  0.00    -0.265 OA
ATOM     10  C   LIG    1       -2.105   1.011   0.612  0.00  0.00    +0.172 A 
ATOM     11  N   LIG    1       -2.063  -0.162   1.257  0.00  0.00    -0.228 NA
ENDROOT
BRANCH   2  12
ATOM     12  C   LIG    1        1.462   0.464   0.763  0.00  0.00    +0.094 C 
ATOM     13  C   LIG    1        2.196  -0.543   1.269  0.00  0.00    -0.041 C 
ATOM     14  C   LIG    1        2.273  -1.870   1.972  0.00  0.00    +0.043 C 
ATOM     15  C   LIG    1        3.548  -1.132   1.531  0.00  0.00    +0.048 C 
BRANCH  14  16
ATOM     16  C   LIG    1        1.878  -3.128   1.171  0.00  0.00    +0.169 C 
BRANCH  16  17
ATOM     17  O   LIG    1        2.710  -4.219   1.510  0.00  0.00    -0.394 OA
ATOM     18  H   LIG    1        2.447  -4.978   0.985  0.00  0.00    +0.209 HD
ENDBRANCH  16  17
ENDBRANCH  14  16
BRANCH  14  19
ATOM     19  C   LIG    1        1.960  -1.966   3.488  0.00  0.00    +0.169 C 
BRANCH  19  20
ATOM     20  O   LIG    1        2.171  -0.761   4.201  0.00  0.00    -0.394 OA
ATOM     21  H   LIG    1        1.939  -0.906   5.121  0.00  0.00    +0.209 HD
ENDBRANCH  19  20
ENDBRANCH  14  19
ENDBRANCH   2  12
BRANCH   5  22
ATOM     22  N   LIG    1       -1.388   4.478  -1.337  0.00  0.00    -0.329 N 
ATOM     23  H   LIG    1       -2.192   5.014  -1.627  0.00  0.00    +0.145 HD
ATOM     24  H   LIG    1       -0.464   4.826  -1.548  0.00  0.00    +0.145 HD
ENDBRANCH   5  22
TORSDOF 6
