REMARK  Name = DB12387
REMARK                            x       y       z     vdW  Elec       q    Type
REMARK                         _______ _______ _______ _____ _____    ______ ____
ROOT
ATOM      1  C   LIG    1        1.439  -0.089  -0.034  0.00  0.00    +0.118 A 
ATOM      2  C   LIG    1        2.302  -1.194   0.230  0.00  0.00    +0.134 A 
ATOM      3  C   LIG    1        2.259  -2.577   0.513  0.00  0.00    +0.146 A 
ATOM      4  N   LIG    1        3.390  -3.303   0.693  0.00  0.00    -0.217 NA
ATOM      5  C   LIG    1        4.570  -2.644   0.601  0.00  0.00    +0.245 A 
ATOM      6  N   LIG    1        4.756  -1.324   0.355  0.00  0.00    -0.153 NA
ATOM      7  N   LIG    1        3.600  -0.650   0.186  0.00  0.00    -0.211 N 
ATOM      8  C   LIG    1        3.438   0.695  -0.065  0.00  0.00    +0.135 A 
ATOM      9  N   LIG    1        2.161   1.009  -0.159  0.00  0.00    -0.228 NA
ENDROOT
BRANCH   1  16
ATOM     10  C   LIG    1       -3.170   1.790   0.089  0.00  0.00    +0.144 A 
ATOM     11  C   LIG    1       -4.442   1.265  -0.190  0.00  0.00    +0.048 A 
ATOM     12  C   LIG    1       -4.619  -0.052  -0.604  0.00  0.00    +0.004 A 
ATOM     13  C   LIG    1       -3.534  -0.912  -0.758  0.00  0.00    +0.010 A 
ATOM     14  C   LIG    1       -2.244  -0.434  -0.487  0.00  0.00    +0.004 A 
ATOM     15  C   LIG    1       -0.933  -1.008  -0.539  0.00  0.00    +0.038 A 
ATOM     16  C   LIG    1       -0.020  -0.045  -0.144  0.00  0.00    +0.068 A 
ATOM     17  N   LIG    1       -0.730   1.106   0.117  0.00  0.00    -0.350 N 
ATOM     18  H   LIG    1       -0.273   1.958   0.408  0.00  0.00    +0.166 HD
ATOM     19  C   LIG    1       -2.085   0.917  -0.066  0.00  0.00    +0.089 A 
BRANCH  10  21
ATOM     20  C   LIG    1       -3.979   3.991   0.644  0.00  0.00    +0.277 C 
ATOM     21  O   LIG    1       -2.896   3.079   0.499  0.00  0.00    -0.493 OA
ENDBRANCH  10  21
ENDBRANCH   1  16
BRANCH   8  22
ATOM     22  C   LIG    1        4.590   1.692  -0.154  0.00  0.00    +0.057 C 
ATOM     23  C   LIG    1        5.455   1.826   1.141  0.00  0.00    +0.012 C 
ATOM     24  C   LIG    1        6.471   2.989   1.118  0.00  0.00    +0.015 C 
ATOM     25  C   LIG    1        5.771   4.282   0.653  0.00  0.00    +0.098 C 
ATOM     26  C   LIG    1        5.389   4.082  -0.831  0.00  0.00    +0.015 C 
ATOM     27  C   LIG    1        4.284   3.011  -0.937  0.00  0.00    +0.012 C 
BRANCH  25  28
ATOM     28  C   LIG    1        6.723   5.500   0.831  0.00  0.00    +0.308 C 
ATOM     29  O   LIG    1        7.722   5.606   0.080  0.00  0.00    -0.251 OA
BRANCH  28  30
ATOM     30  O   LIG    1        6.487   6.271   1.788  0.00  0.00    -0.480 OA
ATOM     31  H   LIG    1        5.723   6.143   2.316  0.00  0.00    +0.295 HD
ENDBRANCH  28  30
ENDBRANCH  25  28
ENDBRANCH   8  22
BRANCH   3  32
ATOM     32  N   LIG    1        1.056  -3.262   0.644  0.00  0.00    -0.341 N 
ATOM     33  H   LIG    1        1.070  -4.249   0.858  0.00  0.00    +0.144 HD
ATOM     34  H   LIG    1        0.186  -2.760   0.545  0.00  0.00    +0.144 HD
ENDBRANCH   3  32
TORSDOF 6
