REMARK  Name = DB12151
REMARK                            x       y       z     vdW  Elec       q    Type
REMARK                         _______ _______ _______ _____ _____    ______ ____
ROOT
ATOM      1  P   LIG    1       -3.645   1.705  -2.602  0.00  0.00    +0.356 P 
ATOM      2  O   LIG    1       -4.969   1.856  -1.936  0.00  0.00    -0.256 OA
ENDROOT
BRANCH   1   3
ATOM      3  O   LIG    1       -3.736   1.395  -4.193  0.00  0.00    -0.322 OA
ATOM      4  H   LIG    1       -4.637   1.358  -4.567  0.00  0.00    +0.220 HD
ENDBRANCH   1   3
BRANCH   1   5
ATOM      5  C   LIG    1       -2.459   3.109  -2.560  0.00  0.00    +0.286 C 
BRANCH   5   6
ATOM      6  O   LIG    1       -2.957   4.162  -3.382  0.00  0.00    -0.360 OA
BRANCH   6   7
ATOM      7  C   LIG    1       -3.852   5.085  -2.755  0.00  0.00    +0.164 C 
BRANCH   7   8
ATOM      8  C   LIG    1       -4.879   5.526  -3.814  0.00  0.00    +0.189 C 
BRANCH   8   9
ATOM      9  O   LIG    1       -5.681   4.436  -4.220  0.00  0.00    -0.392 OA
ATOM     10  H   LIG    1       -5.122   3.807  -4.683  0.00  0.00    +0.210 HD
ENDBRANCH   8   9
ENDBRANCH   7   8
BRANCH   7  11
ATOM     11  C   LIG    1       -3.091   6.311  -2.184  0.00  0.00    +0.160 C 
BRANCH  11  12
ATOM     12  N   LIG    1       -2.061   5.987  -1.178  0.00  0.00    -0.296 N 
ATOM     13  C   LIG    1       -2.393   5.814   0.141  0.00  0.00    +0.094 A 
ATOM     14  C   LIG    1       -1.508   5.463   1.086  0.00  0.00    +0.061 A 
ATOM     15  C   LIG    1       -0.156   5.265   0.656  0.00  0.00    +0.123 A 
ATOM     16  N   LIG    1        0.184   5.443  -0.573  0.00  0.00    -0.178 NA
ATOM     17  C   LIG    1       -0.736   5.843  -1.569  0.00  0.00    +0.350 A 
ATOM     18  O   LIG    1       -0.439   6.051  -2.748  0.00  0.00    -0.244 OA
BRANCH  15  19
ATOM     19  N   LIG    1        0.741   4.882   1.575  0.00  0.00    -0.343 N 
ATOM     20  H   LIG    1        1.704   4.731   1.313  0.00  0.00    +0.144 HD
ATOM     21  H   LIG    1        0.466   4.745   2.537  0.00  0.00    +0.144 HD
ENDBRANCH  15  19
ENDBRANCH  11  12
ENDBRANCH   7  11
ENDBRANCH   6   7
ENDBRANCH   5   6
ENDBRANCH   1   5
BRANCH   1  22
ATOM     22  O   LIG    1       -2.724   0.477  -2.044  0.00  0.00    -0.306 OA
BRANCH  22  23
ATOM     23  C   LIG    1       -2.832   0.014  -0.703  0.00  0.00    +0.172 C 
BRANCH  23  24
ATOM     24  C   LIG    1       -2.402   1.046   0.362  0.00  0.00    +0.056 C 
BRANCH  24  25
ATOM     25  C   LIG    1       -0.934   1.492   0.270  0.00  0.00    +0.162 C 
BRANCH  25  26
ATOM     26  O   LIG    1       -0.078   0.366   0.385  0.00  0.00    -0.380 OA
BRANCH  26  27
ATOM     27  C   LIG    1        1.304   0.691   0.319  0.00  0.00    +0.160 C 
BRANCH  27  28
ATOM     28  C   LIG    1        2.126  -0.601   0.175  0.00  0.00    +0.028 C 
BRANCH  28  29
ATOM     29  C   LIG    1        1.763  -1.463  -1.053  0.00  0.00    +0.002 C 
BRANCH  29  30
ATOM     30  C   LIG    1        1.992  -0.765  -2.409  0.00  0.00    +0.000 C 
BRANCH  30  31
ATOM     31  C   LIG    1        1.696  -1.677  -3.612  0.00  0.00    +0.000 C 
BRANCH  31  32
ATOM     32  C   LIG    1        1.940  -0.982  -4.964  0.00  0.00    +0.000 C 
BRANCH  32  33
ATOM     33  C   LIG    1        1.651  -1.894  -6.170  0.00  0.00    -0.000 C 
BRANCH  33  34
ATOM     34  C   LIG    1        1.910  -1.202  -7.520  0.00  0.00    -0.000 C 
BRANCH  34  35
ATOM     35  C   LIG    1        1.617  -2.113  -8.726  0.00  0.00    -0.000 C 
BRANCH  35  36
ATOM     36  C   LIG    1        1.881  -1.424 -10.077  0.00  0.00    -0.000 C 
BRANCH  36  37
ATOM     37  C   LIG    1        1.591  -2.337 -11.282  0.00  0.00    -0.000 C 
BRANCH  37  38
ATOM     38  C   LIG    1        1.863  -1.654 -12.634  0.00  0.00    -0.000 C 
BRANCH  38  39
ATOM     39  C   LIG    1        1.572  -2.572 -13.838  0.00  0.00    -0.000 C 
BRANCH  39  40
ATOM     40  C   LIG    1        1.734  -1.892 -15.212  0.00  0.00    -0.000 C 
BRANCH  40  41
ATOM     41  C   LIG    1        3.178  -1.474 -15.550  0.00  0.00    -0.003 C 
ATOM     42  C   LIG    1        3.313  -0.883 -16.959  0.00  0.00    +0.004 C 
ENDBRANCH  40  41
ENDBRANCH  39  40
ENDBRANCH  38  39
ENDBRANCH  37  38
ENDBRANCH  36  37
ENDBRANCH  35  36
ENDBRANCH  34  35
ENDBRANCH  33  34
ENDBRANCH  32  33
ENDBRANCH  31  32
ENDBRANCH  30  31
ENDBRANCH  29  30
ENDBRANCH  28  29
ENDBRANCH  27  28
ENDBRANCH  26  27
ENDBRANCH  25  26
ENDBRANCH  24  25
ENDBRANCH  23  24
ENDBRANCH  22  23
ENDBRANCH   1  22
TORSDOF 29
