REMARK  Name = DB12218
REMARK                            x       y       z     vdW  Elec       q    Type
REMARK                         _______ _______ _______ _____ _____    ______ ____
ROOT
ATOM      1  N   LIG    1       -5.105   0.434   0.956  0.00  0.00    -0.314 N 
ATOM      2  C   LIG    1       -4.194   0.207   2.099  0.00  0.00    +0.109 C 
ATOM      3  C   LIG    1       -2.691   0.456   1.843  0.00  0.00    +0.050 C 
ATOM      4  C   LIG    1       -2.144  -0.274   0.596  0.00  0.00    +0.096 C 
ATOM      5  C   LIG    1       -3.017   0.298  -0.542  0.00  0.00    +0.050 C 
ATOM      6  C   LIG    1       -4.525   0.029  -0.350  0.00  0.00    +0.109 C 
ENDROOT
BRANCH   1   8
ATOM      7  N   LIG    1       -7.242   0.651  -0.022  0.00  0.00    -0.220 NA
ATOM      8  C   LIG    1       -6.498   0.524   1.117  0.00  0.00    +0.134 A 
ATOM      9  C   LIG    1       -7.161   0.524   2.379  0.00  0.00    +0.059 A 
ATOM     10  C   LIG    1       -6.832   0.401   3.779  0.00  0.00    +0.032 A 
ATOM     11  C   LIG    1       -8.011   0.493   4.492  0.00  0.00    +0.085 A 
ATOM     12  N   LIG    1       -9.059   0.655   3.623  0.00  0.00    -0.346 N 
ATOM     13  H   LIG    1      -10.018   0.739   3.930  0.00  0.00    +0.167 HD
ATOM     14  C   LIG    1       -8.583   0.672   2.331  0.00  0.00    +0.143 A 
ATOM     15  N   LIG    1       -9.323   0.803   1.226  0.00  0.00    -0.218 NA
ATOM     16  C   LIG    1       -8.585   0.780   0.090  0.00  0.00    +0.225 A 
ENDBRANCH   1   8
BRANCH   4  17
ATOM     17  C   LIG    1       -0.679   0.222   0.346  0.00  0.00    +0.234 C 
ATOM     18  N   LIG    1        0.283  -0.702   0.138  0.00  0.00    -0.307 N 
ATOM     19  H   LIG    1        0.025  -1.674   0.229  0.00  0.00    +0.149 HD
ATOM     20  O   LIG    1       -0.424   1.430   0.335  0.00  0.00    -0.274 OA
BRANCH  18  21
ATOM     21  C   LIG    1        1.709  -0.440  -0.111  0.00  0.00    +0.105 C 
BRANCH  21  22
ATOM     22  C   LIG    1        1.997   0.396  -1.367  0.00  0.00    -0.027 A 
ATOM     23  C   LIG    1        1.255   0.210  -2.541  0.00  0.00    +0.007 A 
ATOM     24  C   LIG    1        1.518   0.987  -3.666  0.00  0.00    +0.020 A 
ATOM     25  C   LIG    1        2.522   1.953  -3.619  0.00  0.00    +0.041 A 
ATOM     26 CL   LIG    1        2.850   2.916  -5.014  0.00  0.00    -0.084 Cl
ATOM     27  C   LIG    1        3.263   2.148  -2.455  0.00  0.00    +0.020 A 
ATOM     28  C   LIG    1        2.999   1.371  -1.330  0.00  0.00    +0.007 A 
ENDBRANCH  21  22
BRANCH  21  29
ATOM     29  C   LIG    1        2.534  -1.749  -0.134  0.00  0.00    +0.055 C 
BRANCH  29  30
ATOM     30  C   LIG    1        2.350  -2.647   1.106  0.00  0.00    +0.158 C 
BRANCH  30  31
ATOM     31  O   LIG    1        3.198  -3.774   1.039  0.00  0.00    -0.395 OA
ATOM     32  H   LIG    1        2.889  -4.350   0.336  0.00  0.00    +0.209 HD
ENDBRANCH  30  31
ENDBRANCH  29  30
ENDBRANCH  21  29
ENDBRANCH  18  21
ENDBRANCH   4  17
BRANCH   4  33
ATOM     33  N   LIG    1       -2.252  -1.729   0.715  0.00  0.00    -0.317 NA
ATOM     34  H   LIG    1       -3.177  -1.966   1.042  0.00  0.00    +0.119 HD
ATOM     35  H   LIG    1       -1.608  -2.055   1.421  0.00  0.00    +0.119 HD
ENDBRANCH   4  33
TORSDOF 8
