REMARK  Name = DB12318
REMARK                            x       y       z     vdW  Elec       q    Type
REMARK                         _______ _______ _______ _____ _____    ______ ____
ROOT
ATOM      1  C   LIG    1        0.420  -2.860  -0.862  0.00  0.00    +0.048 C 
ATOM      2  C   LIG    1       -1.012  -2.366  -0.873  0.00  0.00    +0.001 A 
ATOM      3  C   LIG    1       -1.437  -1.036  -1.177  0.00  0.00    +0.110 A 
ATOM      4  C   LIG    1       -0.843   0.195  -1.542  0.00  0.00    +0.151 A 
ATOM      5  N   LIG    1       -1.600   1.303  -1.756  0.00  0.00    -0.217 NA
ATOM      6  C   LIG    1       -2.939   1.188  -1.607  0.00  0.00    +0.245 A 
ATOM      7  N   LIG    1       -3.632   0.076  -1.264  0.00  0.00    -0.155 NA
ATOM      8  N   LIG    1       -2.843  -0.995  -1.064  0.00  0.00    -0.233 N 
ATOM      9  C   LIG    1       -3.280  -2.243  -0.709  0.00  0.00    +0.136 A 
ATOM     10  C   LIG    1       -2.178  -3.097  -0.604  0.00  0.00    +0.060 A 
ENDROOT
BRANCH  10  11
ATOM     11  N   LIG    1       -2.173  -4.437  -0.250  0.00  0.00    -0.249 N 
ATOM     12  H   LIG    1       -1.309  -4.832   0.090  0.00  0.00    +0.158 HD
ATOM     13  C   LIG    1       -3.257  -5.295  -0.414  0.00  0.00    +0.405 C 
ATOM     14  O   LIG    1       -4.362  -5.020  -0.890  0.00  0.00    -0.226 OA
BRANCH  13  15
ATOM     15  O   LIG    1       -2.903  -6.523   0.032  0.00  0.00    -0.452 OA
BRANCH  15  16
ATOM     16  C   LIG    1       -3.797  -7.634  -0.035  0.00  0.00    +0.220 C 
BRANCH  16  17
ATOM     17  C   LIG    1       -4.883  -7.582   1.062  0.00  0.00    -0.007 C 
ATOM     18  N   LIG    1       -5.852  -8.746   0.780  0.00  0.00    +0.386 N 
ATOM     19  H   LIG    1       -5.327  -9.607   0.734  0.00  0.00    -0.085 HD
ATOM     20  H   LIG    1       -6.284  -8.614  -0.124  0.00  0.00    -0.085 HD
ATOM     21  C   LIG    1       -6.947  -8.862   1.859  0.00  0.00    -0.054 C 
ATOM     22  C   LIG    1       -6.310  -8.840   3.266  0.00  0.00    +0.141 C 
ATOM     23  O   LIG    1       -5.430  -7.726   3.419  0.00  0.00    -0.383 OA
ATOM     24  C   LIG    1       -4.344  -7.746   2.499  0.00  0.00    +0.147 C 
ENDBRANCH  16  17
ENDBRANCH  15  16
ENDBRANCH  13  15
ENDBRANCH  10  11
BRANCH   4  25
ATOM     25  N   LIG    1        0.555   0.247  -1.683  0.00  0.00    -0.298 N 
ATOM     26  H   LIG    1        0.991  -0.645  -1.499  0.00  0.00    +0.154 HD
BRANCH  25  27
ATOM     27  C   LIG    1        1.488   1.244  -2.025  0.00  0.00    +0.033 A 
ATOM     28  C   LIG    1        1.147   2.573  -2.314  0.00  0.00    +0.034 A 
ATOM     29  C   LIG    1        2.164   3.481  -2.644  0.00  0.00    +0.021 A 
ATOM     30  C   LIG    1        2.233   4.866  -2.977  0.00  0.00    +0.143 A 
ATOM     31  N   LIG    1        3.466   5.248  -3.187  0.00  0.00    -0.178 NA
ATOM     32  N   LIG    1        4.245   4.155  -3.051  0.00  0.00    -0.259 N 
ATOM     33  C   LIG    1        3.508   3.041  -2.685  0.00  0.00    +0.069 A 
ATOM     34  C   LIG    1        3.865   1.721  -2.395  0.00  0.00    +0.030 A 
ATOM     35  C   LIG    1        2.828   0.847  -2.067  0.00  0.00    +0.025 A 
BRANCH  32  36
ATOM     36  C   LIG    1        5.692   4.296  -3.157  0.00  0.00    +0.179 C 
BRANCH  36  37
ATOM     37  C   LIG    1        6.349   4.720  -1.851  0.00  0.00    -0.023 A 
ATOM     38  C   LIG    1        6.642   6.068  -1.617  0.00  0.00    +0.043 A 
ATOM     39  C   LIG    1        7.236   6.461  -0.417  0.00  0.00    +0.124 A 
ATOM     40  F   LIG    1        7.517   7.765  -0.196  0.00  0.00    -0.205 F 
ATOM     41  C   LIG    1        7.538   5.508   0.556  0.00  0.00    +0.038 A 
ATOM     42  C   LIG    1        7.245   4.163   0.330  0.00  0.00    +0.003 A 
ATOM     43  C   LIG    1        6.653   3.769  -0.871  0.00  0.00    +0.005 A 
ENDBRANCH  36  37
ENDBRANCH  32  36
ENDBRANCH  25  27
ENDBRANCH   4  25
TORSDOF 8
