REMARK  Name = DB12491
REMARK                            x       y       z     vdW  Elec       q    Type
REMARK                         _______ _______ _______ _____ _____    ______ ____
ROOT
ATOM      1  C   LIG    1       -4.393  -0.082  -0.084  0.00  0.00    -0.017 A 
ATOM      2  C   LIG    1       -5.142   0.046   1.091  0.00  0.00    +0.015 A 
ATOM      3  C   LIG    1       -6.535  -0.076   1.070  0.00  0.00    -0.010 A 
ATOM      4  C   LIG    1       -7.186  -0.320  -0.143  0.00  0.00    +0.007 A 
ATOM      5  C   LIG    1       -6.449  -0.447  -1.320  0.00  0.00    +0.001 A 
ATOM      6  C   LIG    1       -5.060  -0.332  -1.289  0.00  0.00    +0.008 A 
ENDROOT
BRANCH   1   9
ATOM      7  C   LIG    1       -2.700  -2.508  -0.124  0.00  0.00    +0.044 C 
ATOM      8  C   LIG    1       -2.097  -1.109  -0.082  0.00  0.00    -0.039 A 
ATOM      9  C   LIG    1       -2.910   0.041  -0.053  0.00  0.00    -0.012 A 
ATOM     10  C   LIG    1       -2.297   1.307   0.005  0.00  0.00    -0.039 A 
ATOM     11  C   LIG    1       -3.125   2.587   0.022  0.00  0.00    +0.044 C 
ATOM     12  C   LIG    1       -0.903   1.412   0.030  0.00  0.00    +0.049 A 
ATOM     13  C   LIG    1       -0.094   0.268  -0.000  0.00  0.00    +0.121 A 
ATOM     14  C   LIG    1       -0.706  -0.982  -0.054  0.00  0.00    +0.049 A 
BRANCH  13  15
ATOM     15  O   LIG    1        1.288   0.282   0.019  0.00  0.00    -0.492 OA
BRANCH  15  16
ATOM     16  C   LIG    1        1.975   1.530   0.043  0.00  0.00    +0.230 C 
BRANCH  16  17
ATOM     17  C   LIG    1        3.486   1.256   0.032  0.00  0.00    +0.063 C 
BRANCH  17  18
ATOM     18  C   LIG    1        4.327   2.543   0.033  0.00  0.00    +0.169 C 
BRANCH  18  19
ATOM     19  S   LIG    1        6.168   2.117   0.024  0.00  0.00    -0.034 S 
ATOM     20  C   LIG    1        7.014   3.801   0.021  0.00  0.00    +0.194 C 
ATOM     21  O   LIG    1        6.477   1.454  -1.248  0.00  0.00    -0.175 OA
ATOM     22  O   LIG    1        6.490   1.451   1.290  0.00  0.00    -0.175 OA
ENDBRANCH  18  19
ENDBRANCH  17  18
ENDBRANCH  16  17
ENDBRANCH  15  16
ENDBRANCH  13  15
ENDBRANCH   1   9
BRANCH   3  23
ATOM     23  C   LIG    1       -7.328   0.049   2.360  0.00  0.00    +0.264 C 
BRANCH  23  24
ATOM     24  O   LIG    1       -6.969  -1.019   3.233  0.00  0.00    -0.487 OA
BRANCH  24  25
ATOM     25  C   LIG    1       -7.583  -1.122   4.466  0.00  0.00    +0.124 A 
ATOM     26  C   LIG    1       -7.209  -2.210   5.263  0.00  0.00    +0.091 A 
ATOM     27  C   LIG    1       -7.793  -2.367   6.516  0.00  0.00    +0.128 A 
ATOM     28  O   LIG    1       -7.523  -3.402   7.370  0.00  0.00    -0.491 OA
ATOM     29  C   LIG    1       -8.242  -3.163   8.582  0.00  0.00    +0.238 C 
ATOM     30  C   LIG    1       -9.190  -1.964   8.347  0.00  0.00    +0.071 C 
ATOM     31  C   LIG    1       -8.742  -1.487   6.998  0.00  0.00    +0.001 A 
ATOM     32  C   LIG    1       -9.128  -0.400   6.214  0.00  0.00    +0.011 A 
ATOM     33  C   LIG    1       -8.547  -0.217   4.955  0.00  0.00    +0.046 A 
BRANCH  30  34
ATOM     34  C   LIG    1       -9.141  -0.874   9.457  0.00  0.00    +0.132 C 
BRANCH  34  35
ATOM     35  C   LIG    1       -9.656  -1.317  10.850  0.00  0.00    +0.305 C 
ATOM     36  O   LIG    1       -9.301  -0.613  11.821  0.00  0.00    -0.251 OA
BRANCH  35  37
ATOM     37  O   LIG    1      -10.410  -2.313  10.947  0.00  0.00    -0.481 OA
ATOM     38  H   LIG    1      -10.641  -2.802  10.182  0.00  0.00    +0.295 HD
ENDBRANCH  35  37
ENDBRANCH  34  35
ENDBRANCH  30  34
ENDBRANCH  24  25
ENDBRANCH  23  24
ENDBRANCH   3  23
TORSDOF 12
