REMARK  Name = DB12991
REMARK                            x       y       z     vdW  Elec       q    Type
REMARK                         _______ _______ _______ _____ _____    ______ ____
ROOT
ATOM      1  C   LIG    1        1.730  -0.121   0.211  0.00  0.00    +0.290 C 
ENDROOT
BRANCH   1   4
ATOM      2  N   LIG    1        1.878  -0.200  -2.263  0.00  0.00    -0.312 N 
ATOM      3  H   LIG    1        0.950   0.197  -2.237  0.00  0.00    +0.149 HD
ATOM      4  C   LIG    1        2.491  -0.474  -1.095  0.00  0.00    +0.260 C 
ATOM      5  O   LIG    1        3.618  -0.972  -1.030  0.00  0.00    -0.271 OA
BRANCH   2   6
ATOM      6  C   LIG    1        2.439  -0.451  -3.591  0.00  0.00    +0.104 C 
BRANCH   6   7
ATOM      7  C   LIG    1        3.165   0.767  -4.202  0.00  0.00    +0.017 C 
BRANCH   7   8
ATOM      8  C   LIG    1        4.405   1.241  -3.420  0.00  0.00    -0.018 C 
BRANCH   8   9
ATOM      9  C   LIG    1        5.133   2.401  -4.114  0.00  0.00    -0.083 C 
BRANCH   9  10
ATOM     10  N   LIG    1        6.328   2.833  -3.250  0.00  0.00    +0.379 N 
ATOM     11  H   LIG    1        6.946   2.042  -3.134  0.00  0.00    -0.086 HD
ATOM     12  H   LIG    1        5.985   3.096  -2.336  0.00  0.00    -0.086 HD
BRANCH  10  13
ATOM     13  C   LIG    1        7.125   4.007  -3.840  0.00  0.00    -0.084 C 
BRANCH  13  14
ATOM     14  C   LIG    1        8.281   4.365  -2.889  0.00  0.00    -0.039 C 
BRANCH  14  15
ATOM     15  C   LIG    1        9.193   5.495  -3.403  0.00  0.00    -0.088 C 
BRANCH  15  16
ATOM     16  N   LIG    1        8.458   6.842  -3.406  0.00  0.00    +0.378 N 
ATOM     17  H   LIG    1        7.652   6.803  -4.014  0.00  0.00    -0.090 HD
ATOM     18  H   LIG    1        8.153   7.077  -2.472  0.00  0.00    -0.090 HD
ATOM     19  H   LIG    1        9.075   7.571  -3.735  0.00  0.00    -0.090 HD
ENDBRANCH  15  16
ENDBRANCH  14  15
ENDBRANCH  13  14
ENDBRANCH  10  13
ENDBRANCH   9  10
ENDBRANCH   8   9
ENDBRANCH   7   8
ENDBRANCH   6   7
ENDBRANCH   2   6
ENDBRANCH   1   4
BRANCH   1  20
ATOM     20  N   LIG    1        0.270  -0.092   0.061  0.00  0.00    -0.283 N 
ATOM     21  H   LIG    1       -0.149  -0.963  -0.232  0.00  0.00    +0.152 HD
ATOM     22  C   LIG    1       -0.523   0.973   0.269  0.00  0.00    +0.215 C 
ATOM     23  O   LIG    1       -0.091   2.079   0.596  0.00  0.00    -0.276 OA
BRANCH  22  24
ATOM     24  C   LIG    1       -2.030   0.741   0.069  0.00  0.00    +0.096 C 
BRANCH  24  25
ATOM     25  C   LIG    1       -2.928   1.761   0.804  0.00  0.00    +0.009 C 
BRANCH  25  26
ATOM     26  C   LIG    1       -4.429   1.459   0.645  0.00  0.00    +0.001 C 
BRANCH  26  27
ATOM     27  C   LIG    1       -5.323   2.465   1.396  0.00  0.00    +0.001 C 
BRANCH  27  28
ATOM     28  C   LIG    1       -6.830   2.152   1.328  0.00  0.00    +0.015 C 
BRANCH  28  29
ATOM     29  C   LIG    1       -7.434   2.296  -0.084  0.00  0.00    +0.084 C 
BRANCH  29  30
ATOM     30  N   LIG    1       -8.888   2.068  -0.112  0.00  0.00    -0.283 NA
ATOM     31  H   LIG    1       -9.307   1.745   0.748  0.00  0.00    +0.125 HD
BRANCH  30  32
ATOM     32  C   LIG    1       -9.718   2.225  -1.149  0.00  0.00    +0.167 C 
BRANCH  32  33
ATOM     33  N   LIG    1      -11.005   1.973  -0.967  0.00  0.00    -0.297 NA
ATOM     34  H   LIG    1      -11.690   2.372  -1.593  0.00  0.00    +0.121 HD
ATOM     35  H   LIG    1      -11.301   1.383  -0.202  0.00  0.00    +0.121 HD
ENDBRANCH  32  33
BRANCH  32  36
ATOM     36  N   LIG    1       -9.323   2.622  -2.356  0.00  0.00    -0.297 NA
ATOM     37  H   LIG    1       -8.348   2.826  -2.524  0.00  0.00    +0.121 HD
ATOM     38  H   LIG    1       -9.997   2.715  -3.102  0.00  0.00    +0.121 HD
ENDBRANCH  32  36
ENDBRANCH  30  32
ENDBRANCH  29  30
ENDBRANCH  28  29
ENDBRANCH  27  28
ENDBRANCH  26  27
ENDBRANCH  25  26
ENDBRANCH  24  25
ENDBRANCH  22  24
ENDBRANCH   1  20
BRANCH   1  39
ATOM     39  O   LIG    1        2.143  -0.985   1.255  0.00  0.00    -0.367 OA
ATOM     40  H   LIG    1        3.101  -1.044   1.238  0.00  0.00    +0.212 HD
ENDBRANCH   1  39
TORSDOF 22
