REMARK  Name = DB12115
REMARK                            x       y       z     vdW  Elec       q    Type
REMARK                         _______ _______ _______ _____ _____    ______ ____
ROOT
ATOM      1  O   LIG    1        2.123  -0.519   0.890  0.00  0.00    -0.461 OA
ENDROOT
BRANCH   1   2
ATOM      2  C   LIG    1        3.547  -0.554   1.003  0.00  0.00    +0.164 C 
ATOM      3  C   LIG    1        3.956  -1.259   2.324  0.00  0.00    +0.025 C 
ATOM      4  C   LIG    1        5.503  -1.300   2.384  0.00  0.00    -0.011 C 
ATOM      5  C   LIG    1        6.120   0.123   2.339  0.00  0.00    -0.075 C 
ATOM      6  N   LIG    1        4.979   1.174   2.200  0.00  0.00    +0.383 N 
ATOM      7  C   LIG    1        4.027   1.044   3.430  0.00  0.00    -0.075 C 
ATOM      8  C   LIG    1        3.458  -0.395   3.506  0.00  0.00    -0.011 C 
ATOM      9  C   LIG    1        4.172   0.870   0.905  0.00  0.00    -0.030 C 
BRANCH   6  10
ATOM     10  C   LIG    1        5.534   2.632   2.199  0.00  0.00    -0.070 C 
BRANCH  10  11
ATOM     11  C   LIG    1        6.489   2.955   1.026  0.00  0.00    +0.017 C 
BRANCH  11  12
ATOM     12  C   LIG    1        6.959   4.402   1.069  0.00  0.00    -0.049 A 
ATOM     13  C   LIG    1        8.140   4.734   1.739  0.00  0.00    +0.006 A 
ATOM     14  C   LIG    1        8.565   6.059   1.782  0.00  0.00    +0.038 A 
ATOM     15  C   LIG    1        7.809   7.049   1.156  0.00  0.00    +0.123 A 
ATOM     16  F   LIG    1        8.221   8.336   1.198  0.00  0.00    -0.205 F 
ATOM     17  C   LIG    1        6.630   6.723   0.487  0.00  0.00    +0.038 A 
ATOM     18  C   LIG    1        6.205   5.398   0.443  0.00  0.00    +0.006 A 
ENDBRANCH  11  12
ENDBRANCH  10  11
ENDBRANCH   6  10
ENDBRANCH   1   2
BRANCH   1  19
ATOM     19  C   LIG    1        1.500  -0.341  -0.305  0.00  0.00    +0.332 C 
ATOM     20  O   LIG    1        2.090  -0.226  -1.384  0.00  0.00    -0.248 OA
BRANCH  19  22
ATOM     21  C   LIG    1       -0.602  -1.008   1.046  0.00  0.00    +0.045 C 
ATOM     22  C   LIG    1       -0.067  -0.233  -0.202  0.00  0.00    +0.142 C 
BRANCH  22  23
ATOM     23  N   LIG    1       -0.464   1.211  -0.097  0.00  0.00    -0.284 NA
ATOM     24  C   LIG    1       -0.102   1.917   1.154  0.00  0.00    +0.086 C 
ATOM     25  C   LIG    1       -0.769   3.304   1.264  0.00  0.00    +0.015 C 
ATOM     26  C   LIG    1       -0.488   4.186   0.041  0.00  0.00    +0.002 C 
ATOM     27  C   LIG    1       -0.826   3.417  -1.241  0.00  0.00    +0.015 C 
ATOM     28  C   LIG    1       -0.131   2.042  -1.279  0.00  0.00    +0.086 C 
ENDBRANCH  22  23
BRANCH  22  29
ATOM     29  C   LIG    1       -0.774  -0.927  -1.418  0.00  0.00    -0.017 A 
ATOM     30  C   LIG    1       -2.069  -0.527  -1.797  0.00  0.00    +0.006 A 
ATOM     31  C   LIG    1       -2.743  -1.154  -2.841  0.00  0.00    +0.000 A 
ATOM     32  C   LIG    1       -2.145  -2.219  -3.506  0.00  0.00    +0.000 A 
ATOM     33  C   LIG    1       -0.886  -2.668  -3.123  0.00  0.00    +0.000 A 
ATOM     34  C   LIG    1       -0.214  -2.038  -2.080  0.00  0.00    +0.006 A 
ENDBRANCH  22  29
ENDBRANCH  19  22
ENDBRANCH   1  19
TORSDOF 8
