REMARK  Name = DB12429
REMARK                            x       y       z     vdW  Elec       q    Type
REMARK                         _______ _______ _______ _____ _____    ______ ____
ROOT
ATOM      1  C   LIG    1       -2.031  -1.111  -2.142  0.00  0.00    +0.042 A 
ATOM      2  C   LIG    1       -2.763  -0.190  -1.401  0.00  0.00    +0.160 A 
ATOM      3  C   LIG    1       -2.122   0.891  -0.795  0.00  0.00    +0.180 A 
ATOM      4  F   LIG    1       -2.871   1.783  -0.102  0.00  0.00    -0.201 F 
ATOM      5  C   LIG    1       -0.728   1.050  -0.909  0.00  0.00    +0.082 A 
ATOM      6  C   LIG    1        0.008   0.123  -1.681  0.00  0.00    +0.063 A 
ATOM      7  F   LIG    1       -4.101  -0.343  -1.276  0.00  0.00    -0.202 F 
ATOM      8  C   LIG    1       -0.656  -0.952  -2.286  0.00  0.00    +0.018 A 
ENDROOT
BRANCH   6   9
ATOM      9  C   LIG    1        1.505   0.242  -1.867  0.00  0.00    +0.269 C 
ATOM     10  O   LIG    1        1.959   1.118  -2.600  0.00  0.00    -0.268 OA
ATOM     11  N   LIG    1        2.303  -0.678  -1.287  0.00  0.00    -0.191 N 
ATOM     12  H   LIG    1        3.309  -0.608  -1.306  0.00  0.00    +0.183 HD
BRANCH  11  13
ATOM     13  O   LIG    1        1.849  -1.351  -0.153  0.00  0.00    -0.279 OA
BRANCH  13  14
ATOM     14  C   LIG    1        1.762  -2.747  -0.407  0.00  0.00    +0.193 C 
BRANCH  14  15
ATOM     15  C   LIG    1        1.105  -3.416   0.809  0.00  0.00    +0.017 C 
ATOM     16  C   LIG    1       -0.378  -3.264   1.043  0.00  0.00    +0.006 C 
ATOM     17  C   LIG    1        0.197  -4.605   0.619  0.00  0.00    +0.006 C 
ENDBRANCH  14  15
ENDBRANCH  13  14
ENDBRANCH  11  13
ENDBRANCH   6   9
BRANCH   5  18
ATOM     18  N   LIG    1       -0.090   2.157  -0.311  0.00  0.00    -0.310 N 
ATOM     19  H   LIG    1        0.256   2.816  -0.994  0.00  0.00    +0.152 HD
BRANCH  18  20
ATOM     20  C   LIG    1       -0.333   2.724   0.951  0.00  0.00    +0.050 A 
ATOM     21  C   LIG    1       -0.337   4.120   1.037  0.00  0.00    +0.026 A 
ATOM     22  C   LIG    1       -0.539   4.758   2.260  0.00  0.00    +0.016 A 
ATOM     23  C   LIG    1       -0.715   4.002   3.417  0.00  0.00    +0.015 A 
ATOM     24  I   LIG    1       -1.017   4.955   5.254  0.00  0.00    -0.044 I 
ATOM     25  C   LIG    1       -0.679   2.611   3.351  0.00  0.00    +0.036 A 
ATOM     26  C   LIG    1       -0.476   1.964   2.129  0.00  0.00    +0.063 A 
ATOM     27 CL   LIG    1       -0.380   0.234   2.140  0.00  0.00    -0.082 Cl
ENDBRANCH  18  20
ENDBRANCH   5  18
TORSDOF 6
