REMARK  Name = DB12291
REMARK                            x       y       z     vdW  Elec       q    Type
REMARK                         _______ _______ _______ _____ _____    ______ ____
ROOT
ATOM      1  C   LIG    1        1.476   0.071  -0.232  0.00  0.00    +0.248 C 
ATOM      2  N   LIG    1        2.094   1.261  -0.412  0.00  0.00    -0.280 N 
ATOM      3  H   LIG    1        1.505   2.064  -0.574  0.00  0.00    +0.155 HD
ATOM      4  O   LIG    1        2.078  -1.001  -0.133  0.00  0.00    -0.270 OA
ENDROOT
BRANCH   1   8
ATOM      5  C   LIG    1       -2.855   0.112  -0.079  0.00  0.00    +0.033 A 
ATOM      6  C   LIG    1       -2.146   1.321  -0.116  0.00  0.00    +0.024 A 
ATOM      7  C   LIG    1       -0.754   1.315  -0.167  0.00  0.00    +0.015 A 
ATOM      8  C   LIG    1       -0.040   0.105  -0.179  0.00  0.00    +0.037 A 
ATOM      9  C   LIG    1       -0.760  -1.097  -0.133  0.00  0.00    +0.015 A 
ATOM     10  C   LIG    1       -2.151  -1.093  -0.082  0.00  0.00    +0.024 A 
BRANCH   5  13
ATOM     11  C   LIG    1       -6.645   0.478  -0.020  0.00  0.00    +0.109 C 
ATOM     12  C   LIG    1       -5.203   0.955  -0.166  0.00  0.00    +0.214 C 
ATOM     13  N   LIG    1       -4.258   0.003  -0.020  0.00  0.00    -0.286 N 
ATOM     14  H   LIG    1       -4.594  -0.938   0.123  0.00  0.00    +0.155 HD
ATOM     15  O   LIG    1       -4.995   2.142  -0.414  0.00  0.00    -0.276 OA
ENDBRANCH   5  13
ENDBRANCH   1   8
BRANCH   2  16
ATOM     16  C   LIG    1        3.481   1.511  -0.496  0.00  0.00    +0.055 A 
ATOM     17  C   LIG    1        3.949   2.521  -1.359  0.00  0.00    +0.046 A 
ATOM     18  C   LIG    1        5.317   2.799  -1.427  0.00  0.00    +0.024 A 
ATOM     19  C   LIG    1        6.223   2.089  -0.641  0.00  0.00    +0.002 A 
ATOM     20  C   LIG    1        5.766   1.099   0.225  0.00  0.00    +0.002 A 
ATOM     21  C   LIG    1        4.403   0.814   0.303  0.00  0.00    +0.025 A 
BRANCH  17  22
ATOM     22  N   LIG    1        3.084   3.269  -2.166  0.00  0.00    -0.357 N 
ATOM     23  H   LIG    1        2.295   2.765  -2.544  0.00  0.00    +0.142 HD
ATOM     24  H   LIG    1        3.523   3.967  -2.749  0.00  0.00    +0.142 HD
ENDBRANCH  17  22
ENDBRANCH   2  16
TORSDOF 4
