REMARK  Name = DB12122
REMARK                            x       y       z     vdW  Elec       q    Type
REMARK                         _______ _______ _______ _____ _____    ______ ____
ROOT
ATOM      1  C   LIG    1       -0.252   1.989   0.607  0.00  0.00    +0.132 C 
ATOM      2  N   LIG    1        0.414   0.705   0.355  0.00  0.00    -0.303 N 
ATOM      3  C   LIG    1       -0.296  -0.447   0.196  0.00  0.00    +0.237 C 
ATOM      4  O   LIG    1       -1.528  -0.464   0.276  0.00  0.00    -0.274 OA
ENDROOT
BRANCH   3   5
ATOM      5  C   LIG    1        0.428  -1.797  -0.123  0.00  0.00    +0.174 C 
BRANCH   5   6
ATOM      6  N   LIG    1        0.522  -2.665   1.079  0.00  0.00    -0.291 NA
ATOM      7  C   LIG    1       -0.692  -3.163   1.748  0.00  0.00    +0.067 C 
ATOM      8  C   LIG    1       -1.148  -2.281   2.940  0.00  0.00    -0.063 C 
ATOM      9  N   LIG    1        0.029  -2.059   3.921  0.00  0.00    +0.382 N 
ATOM     10  H   LIG    1        0.297  -2.960   4.290  0.00  0.00    -0.082 HD
ATOM     11  C   LIG    1        1.239  -1.470   3.156  0.00  0.00    -0.063 C 
ATOM     12  C   LIG    1        1.623  -2.446   2.024  0.00  0.00    +0.067 C 
BRANCH   9  13
ATOM     13  C   LIG    1       -0.429  -1.151   5.088  0.00  0.00    -0.075 C 
BRANCH  13  14
ATOM     14  C   LIG    1        0.647  -1.063   6.186  0.00  0.00    -0.028 C 
ATOM     15  C   LIG    1        1.681   0.038   6.164  0.00  0.00    +0.002 C 
ATOM     16  C   LIG    1        0.570   0.054   7.196  0.00  0.00    +0.002 C 
ENDBRANCH  13  14
ENDBRANCH   9  13
ENDBRANCH   5   6
BRANCH   5  17
ATOM     17  C   LIG    1       -0.139  -2.516  -1.376  0.00  0.00    -0.021 A 
ATOM     18  C   LIG    1       -0.176  -3.919  -1.457  0.00  0.00    +0.005 A 
ATOM     19  C   LIG    1       -0.642  -4.557  -2.603  0.00  0.00    +0.000 A 
ATOM     20  C   LIG    1       -1.056  -3.800  -3.695  0.00  0.00    +0.000 A 
ATOM     21  C   LIG    1       -0.998  -2.411  -3.652  0.00  0.00    +0.000 A 
ATOM     22  C   LIG    1       -0.532  -1.775  -2.504  0.00  0.00    +0.005 A 
ENDBRANCH   5  17
ENDBRANCH   3   5
BRANCH   2  23
ATOM     23  C   LIG    1        1.869   0.828   0.189  0.00  0.00    +0.112 C 
BRANCH  23  24
ATOM     24  C   LIG    1        2.288   0.983  -1.287  0.00  0.00    +0.054 C 
BRANCH  24  25
ATOM     25  C   LIG    1        3.800   0.990  -1.443  0.00  0.00    -0.045 A 
ATOM     26  C   LIG    1        4.498  -0.217  -1.529  0.00  0.00    +0.016 A 
ATOM     27  C   LIG    1        5.892  -0.226  -1.661  0.00  0.00    +0.056 A 
ATOM     28  C   LIG    1        6.580   0.992  -1.708  0.00  0.00    +0.024 A 
ATOM     29  C   LIG    1        5.894   2.210  -1.624  0.00  0.00    +0.056 A 
ATOM     30  C   LIG    1        4.501   2.198  -1.490  0.00  0.00    +0.016 A 
BRANCH  27  31
ATOM     31  C   LIG    1        6.671  -1.537  -1.753  0.00  0.00    +0.417 C 
ATOM     32  F   LIG    1        7.444  -1.667  -0.674  0.00  0.00    -0.166 F 
ATOM     33  F   LIG    1        7.447  -1.529  -2.838  0.00  0.00    -0.166 F 
ATOM     34  F   LIG    1        5.871  -2.602  -1.823  0.00  0.00    -0.166 F 
ENDBRANCH  27  31
BRANCH  29  35
ATOM     35  C   LIG    1        6.651   3.536  -1.676  0.00  0.00    +0.417 C 
ATOM     36  F   LIG    1        6.902   3.938  -0.431  0.00  0.00    -0.166 F 
ATOM     37  F   LIG    1        5.932   4.478  -2.290  0.00  0.00    -0.166 F 
ATOM     38  F   LIG    1        7.812   3.417  -2.324  0.00  0.00    -0.166 F 
ENDBRANCH  29  35
ENDBRANCH  24  25
ENDBRANCH  23  24
ENDBRANCH   2  23
TORSDOF 10
