REMARK  Name = DB12404
REMARK                            x       y       z     vdW  Elec       q    Type
REMARK                         _______ _______ _______ _____ _____    ______ ____
ROOT
ATOM      1  C   LIG    1       -3.411  -1.826   3.590  0.00  0.00    +0.065 C 
ATOM      2  C   LIG    1       -2.079  -1.506   2.942  0.00  0.00    +0.040 A 
ATOM      3  N   LIG    1       -1.922  -0.981   1.670  0.00  0.00    -0.298 N 
ATOM      4  C   LIG    1       -2.899  -0.655   0.691  0.00  0.00    +0.057 A 
ATOM      5  C   LIG    1       -2.803   0.532  -0.086  0.00  0.00    +0.027 A 
ATOM      6  C   LIG    1       -1.706   1.548   0.066  0.00  0.00    +0.094 C 
ATOM      7  N   LIG    1       -0.459   1.259   0.209  0.00  0.00    -0.270 NA
ATOM      8  C   LIG    1       -0.015  -0.130   0.258  0.00  0.00    +0.172 C 
ATOM      9  C   LIG    1       -3.782   0.748  -1.073  0.00  0.00    +0.027 A 
ATOM     10  C   LIG    1       -4.822  -0.153  -1.282  0.00  0.00    +0.019 A 
ATOM     11 BR   LIG    1       -6.126   0.193  -2.625  0.00  0.00    -0.050 Br
ATOM     12  C   LIG    1       -4.903  -1.309  -0.515  0.00  0.00    +0.017 A 
ATOM     13  C   LIG    1       -3.942  -1.561   0.458  0.00  0.00    +0.028 A 
ATOM     14  C   LIG    1       -0.561  -0.798   1.523  0.00  0.00    +0.139 A 
ATOM     15  N   LIG    1        0.120  -1.190   2.575  0.00  0.00    -0.238 NA
ATOM     16  C   LIG    1       -0.786  -1.622   3.427  0.00  0.00    +0.134 A 
ENDROOT
BRANCH   6  17
ATOM     17  C   LIG    1       -2.086   2.987   0.033  0.00  0.00    +0.089 A 
ATOM     18  N   LIG    1       -3.317   3.313   0.525  0.00  0.00    -0.253 NA
ATOM     19  C   LIG    1       -3.691   4.617   0.535  0.00  0.00    +0.111 A 
ATOM     20  C   LIG    1       -2.868   5.643   0.070  0.00  0.00    +0.020 A 
ATOM     21  C   LIG    1       -1.607   5.311  -0.423  0.00  0.00    +0.004 A 
ATOM     22  C   LIG    1       -1.203   3.974  -0.441  0.00  0.00    +0.030 A 
ENDBRANCH   6  17
BRANCH   8  23
ATOM     23  C   LIG    1        1.530  -0.173   0.160  0.00  0.00    +0.046 C 
BRANCH  23  24
ATOM     24  C   LIG    1        2.085   0.349  -1.187  0.00  0.00    +0.123 C 
BRANCH  24  25
ATOM     25  C   LIG    1        3.614   0.311  -1.309  0.00  0.00    +0.307 C 
ATOM     26  O   LIG    1        4.342  -0.070  -0.389  0.00  0.00    -0.251 OA
BRANCH  25  27
ATOM     27  O   LIG    1        4.028   0.739  -2.519  0.00  0.00    -0.468 OA
ATOM     28  C   LIG    1        5.412   0.781  -2.834  0.00  0.00    +0.280 C 
ENDBRANCH  25  27
ENDBRANCH  24  25
ENDBRANCH  23  24
ENDBRANCH   8  23
TORSDOF 5
