REMARK  Name = DB12553
REMARK                            x       y       z     vdW  Elec       q    Type
REMARK                         _______ _______ _______ _____ _____    ______ ____
ROOT
ATOM      1  C   LIG    1        0.452  -2.167   1.351  0.00  0.00    +0.015 C 
ATOM      2  C   LIG    1       -0.447  -0.885   1.234  0.00  0.00    +0.012 C 
ATOM      3  C   LIG    1       -0.030   0.010   0.001  0.00  0.00    +0.157 C 
ATOM      4  C   LIG    1       -0.592  -0.804  -1.220  0.00  0.00    +0.154 C 
ATOM      5  C   LIG    1       -1.845  -1.540  -0.689  0.00  0.00    +0.039 C 
ATOM      6  C   LIG    1       -1.903  -1.205   0.811  0.00  0.00    +0.007 C 
ATOM      7  C   LIG    1       -2.639  -2.156   1.797  0.00  0.00    +0.037 C 
ATOM      8  C   LIG    1       -4.065  -2.505   1.310  0.00  0.00    +0.048 C 
ATOM      9  C   LIG    1       -4.808  -3.436   2.282  0.00  0.00    +0.194 C 
ATOM     10  F   LIG    1       -6.042  -3.653   1.821  0.00  0.00    -0.241 F 
ATOM     11  C   LIG    1       -4.859  -2.774   3.669  0.00  0.00    -0.020 C 
ATOM     12  C   LIG    1       -3.456  -2.458   4.272  0.00  0.00    +0.047 C 
ATOM     13  C   LIG    1       -2.759  -3.813   4.582  0.00  0.00    +0.023 C 
ATOM     14  C   LIG    1       -3.652  -1.756   5.627  0.00  0.00    -0.009 C 
ATOM     15  C   LIG    1       -4.838  -1.485   6.205  0.00  0.00    +0.047 C 
ATOM     16  C   LIG    1       -6.128  -1.823   5.612  0.00  0.00    +0.179 C 
ATOM     17  O   LIG    1       -7.203  -1.580   6.157  0.00  0.00    -0.288 OA
ATOM     18  C   LIG    1       -6.020  -2.473   4.306  0.00  0.00    +0.054 C 
ATOM     19  C   LIG    1       -2.678  -1.533   3.243  0.00  0.00    +0.153 C 
ATOM     20  F   LIG    1       -3.418  -0.419   3.137  0.00  0.00    -0.238 F 
ATOM     21  C   LIG    1       -1.274  -0.983   3.713  0.00  0.00    +0.154 C 
ATOM     22  C   LIG    1       -0.550  -0.154   2.611  0.00  0.00    +0.044 C 
ENDROOT
BRANCH   3  23
ATOM     23  O   LIG    1       -0.610   1.314   0.043  0.00  0.00    -0.378 OA
ATOM     24  H   LIG    1       -1.559   1.228  -0.079  0.00  0.00    +0.211 HD
ENDBRANCH   3  23
BRANCH   3  25
ATOM     25  C   LIG    1        1.513   0.250  -0.093  0.00  0.00    +0.193 C 
ATOM     26  O   LIG    1        2.228  -0.497  -0.769  0.00  0.00    -0.292 OA
BRANCH  25  27
ATOM     27  C   LIG    1        2.120   1.443   0.680  0.00  0.00    +0.233 C 
BRANCH  27  28
ATOM     28  O   LIG    1        3.530   1.474   0.538  0.00  0.00    -0.387 OA
ATOM     29  H   LIG    1        3.869   2.240   1.007  0.00  0.00    +0.210 HD
ENDBRANCH  27  28
ENDBRANCH  25  27
ENDBRANCH   3  25
BRANCH   4  30
ATOM     30  O   LIG    1       -0.825  -0.063  -2.406  0.00  0.00    -0.388 OA
ATOM     31  H   LIG    1        0.022   0.134  -2.813  0.00  0.00    +0.210 HD
ENDBRANCH   4  30
BRANCH  21  32
ATOM     32  O   LIG    1       -0.404  -1.959   4.252  0.00  0.00    -0.389 OA
ATOM     33  H   LIG    1       -0.839  -2.377   5.000  0.00  0.00    +0.210 HD
ENDBRANCH  21  32
TORSDOF 6
