REMARK  Name = DB12678
REMARK                            x       y       z     vdW  Elec       q    Type
REMARK                         _______ _______ _______ _____ _____    ______ ____
ROOT
ATOM      1  C   LIG    1        1.509   0.074  -0.054  0.00  0.00    +0.163 C 
ENDROOT
BRANCH   1   4
ATOM      2  N   LIG    1       -0.551   1.385   0.037  0.00  0.00    -0.302 N 
ATOM      3  H   LIG    1        0.076   2.168   0.143  0.00  0.00    +0.150 HD
ATOM      4  C   LIG    1       -0.035   0.150  -0.086  0.00  0.00    +0.234 C 
ATOM      5  O   LIG    1       -0.717  -0.868  -0.218  0.00  0.00    -0.274 OA
BRANCH   2   6
ATOM      6  C   LIG    1       -1.976   1.711   0.042  0.00  0.00    +0.163 C 
BRANCH   6   7
ATOM      7  C   LIG    1       -2.587   1.580  -1.367  0.00  0.00    +0.234 C 
ATOM      8  N   LIG    1       -3.576   0.671  -1.497  0.00  0.00    -0.300 N 
ATOM      9  H   LIG    1       -3.762   0.093  -0.690  0.00  0.00    +0.150 HD
ATOM     10  O   LIG    1       -2.172   2.297  -2.279  0.00  0.00    -0.274 OA
BRANCH   8  11
ATOM     11  C   LIG    1       -4.298   0.275  -2.725  0.00  0.00    +0.107 C 
ATOM     12  C   LIG    1       -5.393  -0.776  -2.367  0.00  0.00    +0.016 C 
ATOM     13  C   LIG    1       -6.112  -1.426  -3.568  0.00  0.00    -0.080 C 
ATOM     14  N   LIG    1       -5.060  -2.096  -4.469  0.00  0.00    +0.379 N 
ATOM     15  H   LIG    1       -4.611  -2.841  -3.955  0.00  0.00    -0.086 HD
ATOM     16  H   LIG    1       -5.518  -2.519  -5.264  0.00  0.00    -0.086 HD
ATOM     17  C   LIG    1       -3.989  -1.110  -4.965  0.00  0.00    -0.080 C 
ATOM     18  C   LIG    1       -3.331  -0.408  -3.753  0.00  0.00    +0.016 C 
BRANCH  11  19
ATOM     19  C   LIG    1       -5.016   1.519  -3.369  0.00  0.00    +0.234 C 
ATOM     20  N   LIG    1       -5.812   2.256  -2.584  0.00  0.00    -0.328 N 
ATOM     21  H   LIG    1       -6.284   3.065  -2.960  0.00  0.00    +0.145 HD
ATOM     22  H   LIG    1       -5.908   2.037  -1.603  0.00  0.00    +0.145 HD
ATOM     23  O   LIG    1       -4.859   1.825  -4.550  0.00  0.00    -0.274 OA
ENDBRANCH  11  19
ENDBRANCH   8  11
ENDBRANCH   6   7
BRANCH   6  24
ATOM     24  C   LIG    1       -2.147   3.124   0.646  0.00  0.00    +0.067 C 
BRANCH  24  28
ATOM     25  C   LIG    1       -6.250   4.446   0.602  0.00  0.00    +0.000 A 
ATOM     26  C   LIG    1       -5.812   3.580   1.596  0.00  0.00    +0.000 A 
ATOM     27  C   LIG    1       -4.486   3.171   1.633  0.00  0.00    +0.004 A 
ATOM     28  C   LIG    1       -3.572   3.653   0.672  0.00  0.00    -0.045 A 
ATOM     29  C   LIG    1       -4.039   4.505  -0.352  0.00  0.00    +0.004 A 
ATOM     30  C   LIG    1       -5.369   4.904  -0.369  0.00  0.00    +0.000 A 
ENDBRANCH  24  28
ENDBRANCH   6  24
ENDBRANCH   2   6
ENDBRANCH   1   4
BRANCH   1  31
ATOM     31  N   LIG    1        2.062  -1.127  -0.699  0.00  0.00    -0.302 N 
ATOM     32  H   LIG    1        2.534  -0.949  -1.573  0.00  0.00    +0.150 HD
ATOM     33  C   LIG    1        2.000  -2.402  -0.271  0.00  0.00    +0.234 C 
ATOM     34  O   LIG    1        1.444  -2.758   0.769  0.00  0.00    -0.274 OA
BRANCH  33  35
ATOM     35  C   LIG    1        2.650  -3.449  -1.206  0.00  0.00    +0.163 C 
BRANCH  35  36
ATOM     36  N   LIG    1        2.406  -4.840  -0.791  0.00  0.00    -0.303 N 
ATOM     37  H   LIG    1        1.794  -5.360  -1.403  0.00  0.00    +0.149 HD
ATOM     38  C   LIG    1        2.933  -5.475   0.274  0.00  0.00    +0.217 C 
ATOM     39  O   LIG    1        3.677  -4.924   1.086  0.00  0.00    -0.275 OA
BRANCH  38  40
ATOM     40  C   LIG    1        2.574  -6.966   0.441  0.00  0.00    +0.071 C 
ATOM     41  C   LIG    1        3.871  -7.803   0.344  0.00  0.00    -0.007 C 
ATOM     42  C   LIG    1        3.534  -9.299   0.506  0.00  0.00    -0.082 C 
ATOM     43  N   LIG    1        2.803  -9.519   1.846  0.00  0.00    +0.379 N 
ATOM     44  H   LIG    1        2.559 -10.495   1.938  0.00  0.00    -0.086 HD
ATOM     45  H   LIG    1        3.435  -9.300   2.603  0.00  0.00    -0.086 HD
ATOM     46  C   LIG    1        1.532  -8.659   1.993  0.00  0.00    -0.082 C 
ATOM     47  C   LIG    1        1.895  -7.171   1.816  0.00  0.00    -0.007 C 
ENDBRANCH  38  40
ENDBRANCH  35  36
BRANCH  35  48
ATOM     48  C   LIG    1        4.151  -3.143  -1.494  0.00  0.00    +0.068 C 
BRANCH  48  49
ATOM     49  C   LIG    1        4.768  -4.107  -2.499  0.00  0.00    -0.030 A 
ATOM     50  C   LIG    1        5.758  -5.092  -2.167  0.00  0.00    -0.008 A 
ATOM     51  C   LIG    1        6.375  -5.378  -0.932  0.00  0.00    +0.009 A 
ATOM     52  C   LIG    1        7.309  -6.408  -0.840  0.00  0.00    +0.001 A 
ATOM     53  C   LIG    1        7.652  -7.167  -1.952  0.00  0.00    +0.001 A 
ATOM     54  C   LIG    1        7.077  -6.918  -3.195  0.00  0.00    +0.015 A 
ATOM     55  C   LIG    1        6.135  -5.885  -3.298  0.00  0.00    +0.020 A 
ATOM     56  S   LIG    1        5.285  -5.392  -4.750  0.00  0.00    -0.096 S 
ATOM     57  C   LIG    1        4.449  -4.166  -3.842  0.00  0.00    +0.050 A 
ENDBRANCH  48  49
ENDBRANCH  35  48
ENDBRANCH  33  35
ENDBRANCH   1  31
BRANCH   1  58
ATOM     58  C   LIG    1        2.117   0.282   1.361  0.00  0.00    +0.069 C 
BRANCH  58  59
ATOM     59  C   LIG    1        1.676   1.502   2.120  0.00  0.00    -0.020 A 
ATOM     60  C   LIG    1        1.920   2.909   1.808  0.00  0.00    +0.003 A 
ATOM     61  C   LIG    1        2.637   3.593   0.798  0.00  0.00    +0.010 A 
ATOM     62  C   LIG    1        2.673   5.002   0.754  0.00  0.00    +0.001 A 
ATOM     63  C   LIG    1        1.990   5.764   1.722  0.00  0.00    +0.002 A 
ATOM     64  C   LIG    1        1.267   5.117   2.740  0.00  0.00    +0.026 A 
ATOM     65  C   LIG    1        1.237   3.711   2.773  0.00  0.00    +0.047 A 
ATOM     66  N   LIG    1        0.626   2.798   3.606  0.00  0.00    -0.360 N 
ATOM     67  H   LIG    1        0.050   3.022   4.405  0.00  0.00    +0.165 HD
ATOM     68  C   LIG    1        0.879   1.500   3.214  0.00  0.00    +0.087 A 
ENDBRANCH  58  59
ENDBRANCH   1  58
TORSDOF 15
