REMARK  Name = DB12259
REMARK                            x       y       z     vdW  Elec       q    Type
REMARK                         _______ _______ _______ _____ _____    ______ ____
ROOT
ATOM      1  C   LIG    1        0.988   0.420  -0.408  0.00  0.00    +0.047 C 
ATOM      2  C   LIG    1        1.289   1.684  -0.797  0.00  0.00    -0.015 C 
ENDROOT
BRANCH   1   5
ATOM      3  N   LIG    1       -0.668  -1.114   0.362  0.00  0.00    -0.312 N 
ATOM      4  H   LIG    1        0.105  -1.551   0.843  0.00  0.00    +0.149 HD
ATOM      5  C   LIG    1       -0.417   0.009  -0.343  0.00  0.00    +0.243 C 
ATOM      6  O   LIG    1       -1.319   0.632  -0.910  0.00  0.00    -0.270 OA
BRANCH   3   7
ATOM      7  C   LIG    1       -1.957  -1.787   0.487  0.00  0.00    +0.102 C 
BRANCH   7   8
ATOM      8  C   LIG    1       -2.052  -3.002  -0.452  0.00  0.00    +0.000 C 
BRANCH   8   9
ATOM      9  C   LIG    1       -3.373  -3.774  -0.294  0.00  0.00    -0.078 C 
BRANCH   9  11
ATOM     10  C   LIG    1       -4.911  -5.473  -1.408  0.00  0.00    -0.097 C 
ATOM     11  N   LIG    1       -3.475  -4.920  -1.329  0.00  0.00    +0.376 N 
ATOM     12  H   LIG    1       -3.266  -4.521  -2.234  0.00  0.00    -0.083 HD
ATOM     13  C   LIG    1       -2.468  -6.063  -1.081  0.00  0.00    -0.097 C 
ENDBRANCH   9  11
ENDBRANCH   8   9
ENDBRANCH   7   8
ENDBRANCH   3   7
ENDBRANCH   1   5
BRANCH   1  14
ATOM     14  C   LIG    1        2.036  -0.637  -0.016  0.00  0.00    +0.269 C 
BRANCH  14  15
ATOM     15  O   LIG    1        1.923  -1.766  -0.883  0.00  0.00    -0.487 OA
BRANCH  15  16
ATOM     16  C   LIG    1        2.387  -3.004  -0.478  0.00  0.00    +0.129 A 
ATOM     17  C   LIG    1        1.971  -4.143  -1.229  0.00  0.00    +0.024 A 
ATOM     18  C   LIG    1        1.110  -4.032  -2.356  0.00  0.00    +0.012 A 
ATOM     19  C   LIG    1        0.716  -5.163  -3.065  0.00  0.00    +0.001 A 
ATOM     20  C   LIG    1        1.154  -6.425  -2.681  0.00  0.00    +0.001 A 
ATOM     21  C   LIG    1        1.995  -6.577  -1.583  0.00  0.00    +0.008 A 
ATOM     22  C   LIG    1        2.418  -5.446  -0.840  0.00  0.00    -0.014 A 
ATOM     23  C   LIG    1        3.273  -5.578   0.279  0.00  0.00    +0.009 A 
ATOM     24  C   LIG    1        3.675  -4.454   0.991  0.00  0.00    +0.004 A 
ATOM     25  C   LIG    1        3.241  -3.188   0.620  0.00  0.00    +0.046 A 
ENDBRANCH  15  16
ENDBRANCH  14  15
ENDBRANCH   1  14
BRANCH   2  26
ATOM     26  C   LIG    1        2.674   2.295  -0.961  0.00  0.00    +0.028 C 
BRANCH  26  27
ATOM     27  C   LIG    1        3.107   3.203   0.205  0.00  0.00    +0.005 C 
BRANCH  27  28
ATOM     28  C   LIG    1        3.333   2.444   1.527  0.00  0.00    +0.010 C 
BRANCH  28  29
ATOM     29  C   LIG    1        3.813   3.363   2.672  0.00  0.00    +0.098 C 
BRANCH  29  30
ATOM     30  C   LIG    1        4.070   2.642   4.006  0.00  0.00    +0.235 C 
ATOM     31  N   LIG    1        4.567   3.410   4.990  0.00  0.00    -0.197 N 
ATOM     32  H   LIG    1        4.827   4.386   4.955  0.00  0.00    +0.182 HD
ATOM     33  O   LIG    1        3.827   1.438   4.131  0.00  0.00    -0.274 OA
BRANCH  31  34
ATOM     34  O   LIG    1        4.853   2.811   6.222  0.00  0.00    -0.295 OA
ATOM     35  H   LIG    1        5.812   2.781   6.235  0.00  0.00    +0.241 HD
ENDBRANCH  31  34
ENDBRANCH  29  30
ENDBRANCH  28  29
ENDBRANCH  27  28
ENDBRANCH  26  27
ENDBRANCH   2  26
TORSDOF 14
