REMARK  Name = DB12819
REMARK                            x       y       z     vdW  Elec       q    Type
REMARK                         _______ _______ _______ _____ _____    ______ ____
ROOT
ATOM      1  N   LIG    1        2.252   0.492   1.083  0.00  0.00    -0.184 NA
ATOM      2  H   LIG    1        1.866   1.347   1.491  0.00  0.00    +0.148 HD
ENDROOT
BRANCH   1   3
ATOM      3  S   LIG    1        3.107  -0.632   2.134  0.00  0.00    +0.065 S 
ATOM      4  O   LIG    1        3.509   0.083   3.350  0.00  0.00    -0.153 OA
ATOM      5  O   LIG    1        4.062  -1.410   1.335  0.00  0.00    -0.153 OA
BRANCH   3   6
ATOM      6  C   LIG    1        1.754  -1.734   2.606  0.00  0.00    +0.144 A 
ATOM      7  S   LIG    1        1.688  -3.402   2.126  0.00  0.00    -0.057 S 
ATOM      8  C   LIG    1        0.165  -3.596   2.933  0.00  0.00    +0.080 A 
ATOM      9 CL   LIG    1       -0.642  -5.112   2.908  0.00  0.00    -0.076 Cl
ATOM     10  C   LIG    1       -0.253  -2.421   3.544  0.00  0.00    +0.030 A 
ATOM     11  C   LIG    1        0.648  -1.366   3.362  0.00  0.00    +0.038 A 
ENDBRANCH   3   6
ENDBRANCH   1   3
BRANCH   1  12
ATOM     12  C   LIG    1        1.731   0.058  -0.237  0.00  0.00    +0.105 C 
BRANCH  12  13
ATOM     13  C   LIG    1        0.178  -0.106  -0.183  0.00  0.00    +0.009 C 
BRANCH  13  15
ATOM     14  C   LIG    1        0.174  -2.276  -1.627  0.00  0.00    +0.004 C 
ATOM     15  C   LIG    1       -0.405  -0.869  -1.404  0.00  0.00    +0.002 C 
ENDBRANCH  13  15
BRANCH  13  16
ATOM     16  C   LIG    1       -0.563   1.236   0.075  0.00  0.00    +0.002 C 
ATOM     17  C   LIG    1       -2.027   1.089   0.521  0.00  0.00    +0.004 C 
ENDBRANCH  13  16
ENDBRANCH  12  13
BRANCH  12  18
ATOM     18  C   LIG    1        2.221   1.011  -1.352  0.00  0.00    +0.176 C 
BRANCH  18  19
ATOM     19  O   LIG    1        3.629   0.977  -1.479  0.00  0.00    -0.393 OA
ATOM     20  H   LIG    1        3.888   1.582  -2.179  0.00  0.00    +0.209 HD
ENDBRANCH  18  19
ENDBRANCH  12  18
ENDBRANCH   1  12
TORSDOF 8
