REMARK  Name = DB12686
REMARK                            x       y       z     vdW  Elec       q    Type
REMARK                         _______ _______ _______ _____ _____    ______ ____
ROOT
ATOM      1  C   LIG    1        1.490   0.238   0.165  0.00  0.00    +0.152 A 
ATOM      2  C   LIG    1        2.260  -0.921   0.331  0.00  0.00    +0.034 A 
ATOM      3  C   LIG    1        2.190  -2.402   0.545  0.00  0.00    +0.149 C 
ATOM      4  N   LIG    1        3.608  -2.816   0.613  0.00  0.00    -0.286 N 
ATOM      5  C   LIG    1        4.002  -4.107   0.807  0.00  0.00    +0.220 C 
ATOM      6  O   LIG    1        5.194  -4.419   0.861  0.00  0.00    -0.275 OA
ATOM      7  C   LIG    1        4.539  -1.659   0.447  0.00  0.00    +0.074 C 
ATOM      8  C   LIG    1        5.402  -1.410   1.708  0.00  0.00    +0.038 C 
ATOM      9  C   LIG    1        5.411  -1.781  -0.826  0.00  0.00    +0.038 C 
ATOM     10  C   LIG    1        3.555  -0.534   0.279  0.00  0.00    +0.066 A 
ATOM     11  N   LIG    1        3.533   0.817   0.085  0.00  0.00    -0.277 N 
ATOM     12  H   LIG    1        4.346   1.410   0.002  0.00  0.00    +0.189 HD
ATOM     13  N   LIG    1        2.281   1.294   0.014  0.00  0.00    -0.158 NA
ENDROOT
BRANCH   5  14
ATOM     14  C   LIG    1        2.953  -5.244   0.972  0.00  0.00    +0.072 C 
ATOM     15  C   LIG    1        3.177  -6.298  -0.139  0.00  0.00    -0.006 C 
ATOM     16  C   LIG    1        2.152  -7.439   0.017  0.00  0.00    -0.078 C 
ATOM     17  N   LIG    1        2.301  -8.060   1.426  0.00  0.00    +0.378 N 
ATOM     18  H   LIG    1        3.241  -8.423   1.507  0.00  0.00    -0.082 HD
ATOM     19  C   LIG    1        1.304  -9.224   1.598  0.00  0.00    -0.096 C 
ATOM     20  C   LIG    1        2.098  -7.017   2.551  0.00  0.00    -0.078 C 
ATOM     21  C   LIG    1        3.126  -5.882   2.372  0.00  0.00    -0.006 C 
ENDBRANCH   5  14
BRANCH   1  23
ATOM     22  C   LIG    1       -0.708   1.327   0.109  0.00  0.00    +0.219 C 
ATOM     23  N   LIG    1        0.101   0.245   0.165  0.00  0.00    -0.269 N 
ATOM     24  H   LIG    1       -0.341  -0.658   0.250  0.00  0.00    +0.156 HD
ATOM     25  O   LIG    1       -0.321   2.495   0.033  0.00  0.00    -0.275 OA
BRANCH  22  26
ATOM     26  C   LIG    1       -2.217   1.036   0.138  0.00  0.00    +0.099 C 
BRANCH  26  27
ATOM     27  C   LIG    1       -2.718   0.243   1.377  0.00  0.00    -0.008 C 
ATOM     28  C   LIG    1       -2.375   0.915   2.723  0.00  0.00    +0.008 C 
ATOM     29  C   LIG    1       -4.233  -0.016   1.274  0.00  0.00    +0.008 C 
ENDBRANCH  26  27
ENDBRANCH  22  26
ENDBRANCH   1  23
TORSDOF 4
