REMARK  Name = DB12148
REMARK                            x       y       z     vdW  Elec       q    Type
REMARK                         _______ _______ _______ _____ _____    ______ ____
ROOT
ATOM      1  C   LIG    1        6.163   1.189  -1.131  0.00  0.00    -0.076 C 
ATOM      2  C   LIG    1        6.762   2.094  -1.938  0.00  0.00    -0.023 C 
ATOM      3  C   LIG    1        6.894   0.101  -0.351  0.00  0.00    +0.039 C 
ENDROOT
BRANCH   1   4
ATOM      4  C   LIG    1        4.652   1.213  -0.925  0.00  0.00    +0.034 C 
BRANCH   4   5
ATOM      5  C   LIG    1        3.922  -0.063  -1.387  0.00  0.00    +0.031 C 
BRANCH   5   7
ATOM      6  C   LIG    1        1.627  -0.266  -0.247  0.00  0.00    -0.076 C 
ATOM      7  C   LIG    1        2.410   0.049  -1.301  0.00  0.00    -0.028 C 
ATOM      8  C   LIG    1        2.155  -0.785   1.085  0.00  0.00    +0.039 C 
BRANCH   6   9
ATOM      9  C   LIG    1        0.112  -0.112  -0.326  0.00  0.00    +0.034 C 
BRANCH   9  10
ATOM     10  C   LIG    1       -0.397   1.330  -0.136  0.00  0.00    +0.031 C 
BRANCH  10  12
ATOM     11  C   LIG    1        0.887   2.864   1.493  0.00  0.00    -0.076 C 
ATOM     12  C   LIG    1       -0.067   1.948   1.216  0.00  0.00    -0.028 C 
ATOM     13  C   LIG    1        1.868   3.418   0.466  0.00  0.00    +0.039 C 
BRANCH  11  14
ATOM     14  C   LIG    1        1.075   3.402   2.908  0.00  0.00    +0.034 C 
BRANCH  14  15
ATOM     15  C   LIG    1        0.767   4.903   3.056  0.00  0.00    +0.031 C 
BRANCH  15  18
ATOM     16  C   LIG    1        0.266   6.241   6.748  0.00  0.00    +0.038 C 
ATOM     17  C   LIG    1       -0.057   5.706   5.363  0.00  0.00    -0.080 C 
ATOM     18  C   LIG    1        0.922   5.414   4.480  0.00  0.00    -0.028 C 
ATOM     19  C   LIG    1       -1.545   5.525   5.098  0.00  0.00    +0.038 C 
ENDBRANCH  15  18
ENDBRANCH  14  15
ENDBRANCH  11  14
ENDBRANCH  10  12
ENDBRANCH   9  10
ENDBRANCH   6   9
ENDBRANCH   5   7
ENDBRANCH   4   5
ENDBRANCH   1   4
BRANCH   2  20
ATOM     20  C   LIG    1        8.240   2.229  -2.283  0.00  0.00    +0.066 C 
BRANCH  20  21
ATOM     21  C   LIG    1        8.537   2.028  -3.778  0.00  0.00    +0.010 C 
ATOM     22  C   LIG    1        8.620   0.594  -4.166  0.00  0.00    +0.191 C 
ATOM     23  O   LIG    1        8.461  -0.355  -3.394  0.00  0.00    -0.287 OA
ATOM     24  C   LIG    1        8.914   0.373  -5.624  0.00  0.00    +0.033 A 
ATOM     25  C   LIG    1        9.108   1.444  -6.526  0.00  0.00    +0.033 A 
ATOM     26  C   LIG    1        9.037   2.882  -6.092  0.00  0.00    +0.190 C 
ATOM     27  O   LIG    1        9.230   3.804  -6.891  0.00  0.00    -0.287 OA
ATOM     28  C   LIG    1        9.382   1.157  -7.875  0.00  0.00    +0.012 A 
ATOM     29  C   LIG    1        9.461  -0.155  -8.332  0.00  0.00    +0.001 A 
ATOM     30  C   LIG    1        9.269  -1.208  -7.446  0.00  0.00    +0.001 A 
ATOM     31  C   LIG    1        8.999  -0.945  -6.106  0.00  0.00    +0.012 A 
ATOM     32  C   LIG    1        8.728   3.062  -4.650  0.00  0.00    +0.004 C 
ATOM     33  C   LIG    1        8.564   4.537  -4.258  0.00  0.00    +0.048 C 
ENDBRANCH  20  21
ENDBRANCH   2  20
TORSDOF 11
