REMARK  Name = DB12638
REMARK                            x       y       z     vdW  Elec       q    Type
REMARK                         _______ _______ _______ _____ _____    ______ ____
ROOT
ATOM      1  N   LIG    1       -0.002   2.761   0.977  0.00  0.00    -0.303 N 
ATOM      2  C   LIG    1       -0.653   2.805   2.164  0.00  0.00    +0.176 A 
ATOM      3  N   LIG    1       -0.068   3.599   3.030  0.00  0.00    -0.216 NA
ATOM      4  C   LIG    1        1.016   4.068   2.395  0.00  0.00    +0.148 A 
ATOM      5  C   LIG    1        2.041   4.948   2.815  0.00  0.00    +0.147 A 
ATOM      6  N   LIG    1        3.038   5.242   1.936  0.00  0.00    -0.219 NA
ATOM      7  C   LIG    1        2.989   4.679   0.720  0.00  0.00    +0.225 A 
ATOM      8  N   LIG    1        2.076   3.836   0.211  0.00  0.00    -0.216 NA
ATOM      9  C   LIG    1        1.096   3.566   1.109  0.00  0.00    +0.166 A 
ENDROOT
BRANCH   5  10
ATOM     10  N   LIG    1        2.076   5.521   4.085  0.00  0.00    -0.341 N 
ATOM     11  H   LIG    1        2.833   6.146   4.324  0.00  0.00    +0.144 HD
ATOM     12  H   LIG    1        1.337   5.319   4.742  0.00  0.00    +0.144 HD
ENDBRANCH   5  10
BRANCH   1  13
ATOM     13  C   LIG    1       -0.368   1.985  -0.228  0.00  0.00    +0.124 C 
BRANCH  13  14
ATOM     14  C   LIG    1       -0.083   0.476  -0.081  0.00  0.00    +0.003 C 
BRANCH  14  15
ATOM     15  C   LIG    1        1.319   0.139   0.458  0.00  0.00    -0.081 C 
BRANCH  15  16
ATOM     16  N   LIG    1        1.452  -1.386   0.607  0.00  0.00    +0.381 N 
ATOM     17  H   LIG    1        1.265  -1.799  -0.295  0.00  0.00    -0.086 HD
ATOM     18  H   LIG    1        0.746  -1.719   1.248  0.00  0.00    -0.086 HD
BRANCH  16  20
ATOM     19  C   LIG    1        2.856  -3.421   0.912  0.00  0.00    -0.014 C 
ATOM     20  C   LIG    1        2.829  -1.893   1.081  0.00  0.00    -0.078 C 
ATOM     21  C   LIG    1        3.096  -1.452   2.534  0.00  0.00    -0.014 C 
ENDBRANCH  16  20
ENDBRANCH  15  16
ENDBRANCH  14  15
ENDBRANCH  13  14
ENDBRANCH   1  13
BRANCH   2  22
ATOM     22  S   LIG    1       -2.124   1.893   2.517  0.00  0.00    -0.050 S 
BRANCH  22  23
ATOM     23  C   LIG    1       -1.518   0.966   3.902  0.00  0.00    +0.032 A 
ATOM     24  C   LIG    1       -1.636   1.455   5.226  0.00  0.00    +0.031 A 
ATOM     25  I   LIG    1       -2.550   3.291   5.672  0.00  0.00    -0.043 I 
ATOM     26  C   LIG    1       -1.140   0.704   6.302  0.00  0.00    +0.065 A 
ATOM     27  C   LIG    1       -0.536  -0.516   6.023  0.00  0.00    +0.167 A 
ATOM     28  O   LIG    1       -0.010  -1.425   6.886  0.00  0.00    -0.453 OA
ATOM     29  C   LIG    1        0.618  -2.389   6.084  0.00  0.00    +0.466 C 
ATOM     30  O   LIG    1        0.161  -2.215   4.769  0.00  0.00    -0.453 OA
ATOM     31  C   LIG    1       -0.432  -0.992   4.748  0.00  0.00    +0.167 A 
ATOM     32  C   LIG    1       -0.920  -0.281   3.659  0.00  0.00    +0.065 A 
ENDBRANCH  22  23
ENDBRANCH   2  22
TORSDOF 8
