REMARK  Name = DB12338
REMARK                            x       y       z     vdW  Elec       q    Type
REMARK                         _______ _______ _______ _____ _____    ______ ____
ROOT
ATOM      1  C   LIG    1        0.040   0.028   0.242  0.00  0.00    +0.183 C 
ENDROOT
BRANCH   1   4
ATOM      2  C   LIG    1       -1.406   3.480   1.102  0.00  0.00    +0.000 A 
ATOM      3  C   LIG    1       -0.903   2.186   1.227  0.00  0.00    +0.008 A 
ATOM      4  C   LIG    1       -0.518   1.450   0.095  0.00  0.00    +0.002 A 
ATOM      5  C   LIG    1       -0.637   2.051  -1.173  0.00  0.00    +0.047 A 
ATOM      6 CL   LIG    1       -0.166   1.226  -2.621  0.00  0.00    -0.083 Cl
ATOM      7  C   LIG    1       -1.142   3.348  -1.291  0.00  0.00    +0.020 A 
ATOM      8  C   LIG    1       -1.528   4.061  -0.158  0.00  0.00    +0.001 A 
ENDBRANCH   1   4
BRANCH   1   9
ATOM      9  O   LIG    1       -0.384  -0.635   1.422  0.00  0.00    -0.384 OA
ATOM     10  H   LIG    1       -1.331  -0.782   1.364  0.00  0.00    +0.210 HD
ENDBRANCH   1   9
BRANCH   1  11
ATOM     11  C   LIG    1        1.582   0.026   0.208  0.00  0.00    +0.270 C 
BRANCH  11  12
ATOM     12  O   LIG    1        2.078  -1.288  -0.030  0.00  0.00    -0.448 OA
BRANCH  12  13
ATOM     13  C   LIG    1        3.402  -1.520  -0.099  0.00  0.00    +0.398 C 
ATOM     14  N   LIG    1        3.619  -2.859  -0.336  0.00  0.00    -0.295 N 
ATOM     15  H   LIG    1        4.566  -3.199  -0.416  0.00  0.00    +0.148 HD
ATOM     16  H   LIG    1        2.829  -3.481  -0.421  0.00  0.00    +0.148 HD
ATOM     17  O   LIG    1        4.285  -0.672   0.027  0.00  0.00    -0.227 OA
ENDBRANCH  12  13
ENDBRANCH  11  12
ENDBRANCH   1  11
TORSDOF 5
