REMARK  Name = DB12061
REMARK                            x       y       z     vdW  Elec       q    Type
REMARK                         _______ _______ _______ _____ _____    ______ ____
ROOT
ATOM      1  C   LIG    1        3.540   3.084   0.037  0.00  0.00    +0.075 A 
ATOM      2  C   LIG    1        4.029   3.876   1.091  0.00  0.00    +0.178 A 
ATOM      3  O   LIG    1        4.654   3.472   2.237  0.00  0.00    -0.406 OA
ATOM      4  C   LIG    1        4.977   4.566   2.980  0.00  0.00    +0.419 A 
ATOM      5  N   LIG    1        4.546   5.663   2.246  0.00  0.00    -0.288 N 
ATOM      6  H   LIG    1        4.660   6.619   2.547  0.00  0.00    +0.172 HD
ATOM      7  O   LIG    1        5.538   4.508   4.071  0.00  0.00    -0.223 OA
ATOM      8  C   LIG    1        3.972   5.247   1.074  0.00  0.00    +0.089 A 
ATOM      9  C   LIG    1        3.422   5.937   0.001  0.00  0.00    +0.029 A 
ATOM     10  C   LIG    1        2.937   5.191  -1.076  0.00  0.00    +0.004 A 
ATOM     11  C   LIG    1        3.002   3.791  -1.061  0.00  0.00    +0.027 A 
ENDROOT
BRANCH   1  17
ATOM     12  C   LIG    1       -0.064  -0.724  -0.071  0.00  0.00    -0.096 C 
ATOM     13  N   LIG    1        1.423  -0.328  -0.009  0.00  0.00    +0.380 N 
ATOM     14  H   LIG    1        1.994  -1.161   0.041  0.00  0.00    -0.082 HD
ATOM     15  C   LIG    1        1.831   0.471  -1.263  0.00  0.00    -0.060 C 
ATOM     16  C   LIG    1        3.323   0.856  -1.133  0.00  0.00    +0.086 C 
ATOM     17  N   LIG    1        3.611   1.688   0.052  0.00  0.00    -0.331 N 
ATOM     18  C   LIG    1        3.208   0.914   1.245  0.00  0.00    +0.086 C 
ATOM     19  C   LIG    1        1.708   0.536   1.236  0.00  0.00    -0.060 C 
ENDBRANCH   1  17
TORSDOF 1
