REMARK  Name = DB12146
REMARK                            x       y       z     vdW  Elec       q    Type
REMARK                         _______ _______ _______ _____ _____    ______ ____
ROOT
ATOM      1  S   LIG    1       -0.021  -0.305   0.080  0.00  0.00    -0.006 S 
ATOM      2  O   LIG    1       -0.335  -0.845  -1.249  0.00  0.00    -0.170 OA
ATOM      3  O   LIG    1       -0.604  -0.919   1.277  0.00  0.00    -0.170 OA
ENDROOT
BRANCH   1   4
ATOM      4  C   LIG    1        1.764  -0.298   0.304  0.00  0.00    +0.135 C 
ATOM      5  C   LIG    1        2.592  -0.747  -0.660  0.00  0.00    +0.034 C 
BRANCH   5   6
ATOM      6  C   LIG    1        4.080  -0.780  -0.618  0.00  0.00    +0.060 A 
ATOM      7  C   LIG    1        4.728  -1.887  -1.199  0.00  0.00    +0.134 A 
ATOM      8  C   LIG    1        6.128  -1.963  -1.159  0.00  0.00    +0.092 A 
ATOM      9  C   LIG    1        6.895  -0.971  -0.558  0.00  0.00    +0.127 A 
ATOM     10  C   LIG    1        6.244   0.131   0.008  0.00  0.00    +0.092 A 
ATOM     11  C   LIG    1        4.845   0.246  -0.018  0.00  0.00    +0.134 A 
BRANCH   7  12
ATOM     12  O   LIG    1        3.940  -2.868  -1.782  0.00  0.00    -0.494 OA
ATOM     13  C   LIG    1        4.550  -4.008  -2.379  0.00  0.00    +0.277 C 
ENDBRANCH   7  12
BRANCH   9  14
ATOM     14  O   LIG    1        8.265  -1.153  -0.569  0.00  0.00    -0.495 OA
ATOM     15  C   LIG    1        9.103  -0.181   0.048  0.00  0.00    +0.277 C 
ENDBRANCH   9  14
BRANCH  11  16
ATOM     16  O   LIG    1        4.179   1.345   0.501  0.00  0.00    -0.494 OA
ATOM     17  C   LIG    1        4.909   2.403   1.112  0.00  0.00    +0.277 C 
ENDBRANCH  11  16
ENDBRANCH   5   6
ENDBRANCH   1   4
BRANCH   1  18
ATOM     18  C   LIG    1       -0.445   1.538   0.086  0.00  0.00    +0.206 C 
BRANCH  18  22
ATOM     19  C   LIG    1       -4.723   2.214  -0.050  0.00  0.00    +0.141 A 
ATOM     20  C   LIG    1       -4.062   2.105   1.188  0.00  0.00    +0.070 A 
ATOM     21  C   LIG    1       -2.676   1.885   1.216  0.00  0.00    +0.032 A 
ATOM     22  C   LIG    1       -1.944   1.774   0.034  0.00  0.00    -0.024 A 
ATOM     23  C   LIG    1       -2.598   1.882  -1.192  0.00  0.00    +0.009 A 
ATOM     24  C   LIG    1       -3.973   2.099  -1.235  0.00  0.00    +0.048 A 
BRANCH  19  26
ATOM     25  C   LIG    1       -6.798   2.549  -1.269  0.00  0.00    +0.277 C 
ATOM     26  O   LIG    1       -6.092   2.433  -0.039  0.00  0.00    -0.493 OA
ENDBRANCH  19  26
BRANCH  20  27
ATOM     27  N   LIG    1       -4.815   2.220   2.372  0.00  0.00    -0.331 N 
ATOM     28  H   LIG    1       -5.811   2.380   2.310  0.00  0.00    +0.147 HD
BRANCH  27  29
ATOM     29  C   LIG    1       -4.219   2.128   3.707  0.00  0.00    +0.222 C 
BRANCH  29  30
ATOM     30  C   LIG    1       -5.115   2.266   4.954  0.00  0.00    +0.322 C 
ATOM     31  O   LIG    1       -4.529   2.268   6.060  0.00  0.00    -0.249 OA
BRANCH  30  32
ATOM     32  O   LIG    1       -6.357   2.365   4.811  0.00  0.00    -0.480 OA
ATOM     33  H   LIG    1       -6.732   2.357   3.953  0.00  0.00    +0.295 HD
ENDBRANCH  30  32
ENDBRANCH  29  30
ENDBRANCH  27  29
ENDBRANCH  20  27
ENDBRANCH  18  22
ENDBRANCH   1  18
TORSDOF 12
