REMARK  Name = DB12412
REMARK                            x       y       z     vdW  Elec       q    Type
REMARK                         _______ _______ _______ _____ _____    ______ ____
ROOT
ATOM      1  C   LIG    1       -3.811   0.664  -2.474  0.00  0.00    +0.058 C 
ATOM      2  C   LIG    1       -4.427   2.065  -2.464  0.00  0.00    +0.007 A 
ATOM      3  C   LIG    1       -5.084   2.652  -3.567  0.00  0.00    +0.151 A 
ATOM      4  N   LIG    1       -5.638   3.894  -3.504  0.00  0.00    -0.220 NA
ATOM      5  C   LIG    1       -5.518   4.558  -2.329  0.00  0.00    +0.235 A 
ATOM      6  N   LIG    1       -4.907   4.082  -1.215  0.00  0.00    -0.227 NA
ATOM      7  C   LIG    1       -4.360   2.840  -1.285  0.00  0.00    +0.066 A 
ATOM      8  C   LIG    1       -3.712   2.300  -0.007  0.00  0.00    +0.163 C 
ATOM      9  N   LIG    1       -3.044   1.000  -0.216  0.00  0.00    -0.295 N 
ATOM     10  C   LIG    1       -1.991   0.635   0.565  0.00  0.00    +0.214 C 
ATOM     11  O   LIG    1       -1.533   1.377   1.438  0.00  0.00    -0.276 OA
ATOM     12  C   LIG    1       -3.781   0.046  -1.063  0.00  0.00    +0.113 C 
ENDROOT
BRANCH   3  13
ATOM     13  C   LIG    1       -5.218   1.942  -4.920  0.00  0.00    +0.435 C 
ATOM     14  F   LIG    1       -5.580   2.772  -5.903  0.00  0.00    -0.164 F 
ATOM     15  F   LIG    1       -6.143   0.988  -4.822  0.00  0.00    -0.164 F 
ATOM     16  F   LIG    1       -4.061   1.384  -5.279  0.00  0.00    -0.164 F 
ENDBRANCH   3  13
BRANCH   5  17
ATOM     17  C   LIG    1       -6.151   5.946  -2.254  0.00  0.00    +0.452 C 
ATOM     18  F   LIG    1       -7.475   5.819  -2.162  0.00  0.00    -0.163 F 
ATOM     19  F   LIG    1       -5.867   6.651  -3.351  0.00  0.00    -0.163 F 
ATOM     20  F   LIG    1       -5.722   6.642  -1.198  0.00  0.00    -0.163 F 
ENDBRANCH   5  17
BRANCH  10  21
ATOM     21  C   LIG    1       -1.242  -0.684   0.247  0.00  0.00    +0.081 C 
BRANCH  21  22
ATOM     22  C   LIG    1        0.151  -0.891   0.913  0.00  0.00    -0.049 C 
BRANCH  22  23
ATOM     23  N   LIG    1        1.168   0.144   0.394  0.00  0.00    +0.381 N 
ATOM     24  H   LIG    1        0.831   1.079   0.578  0.00  0.00    -0.090 HD
ATOM     25  H   LIG    1        2.056   0.022   0.859  0.00  0.00    -0.090 HD
ATOM     26  H   LIG    1        1.302   0.036  -0.601  0.00  0.00    -0.090 HD
ENDBRANCH  22  23
BRANCH  22  27
ATOM     27  C   LIG    1        0.718  -2.318   0.678  0.00  0.00    +0.092 C 
BRANCH  27  28
ATOM     28  N   LIG    1        1.678  -2.796   1.692  0.00  0.00    -0.297 N 
ATOM     29  C   LIG    1        1.194  -3.144   2.928  0.00  0.00    +0.216 C 
ATOM     30  O   LIG    1       -0.010  -3.202   3.188  0.00  0.00    -0.276 OA
ATOM     31  C   LIG    1        2.239  -3.437   4.027  0.00  0.00    +0.102 C 
ATOM     32  C   LIG    1        3.576  -3.949   3.479  0.00  0.00    +0.086 C 
ATOM     33  C   LIG    1        4.151  -2.994   2.436  0.00  0.00    +0.265 C 
ATOM     34  F   LIG    1        4.532  -1.878   3.060  0.00  0.00    -0.204 F 
ATOM     35  F   LIG    1        5.226  -3.527   1.856  0.00  0.00    -0.204 F 
ATOM     36  C   LIG    1        3.109  -2.559   1.386  0.00  0.00    +0.183 C 
ENDBRANCH  27  28
ENDBRANCH  22  27
ENDBRANCH  21  22
ENDBRANCH  10  21
TORSDOF 7
