REMARK  Name = DB12625
REMARK                            x       y       z     vdW  Elec       q    Type
REMARK                         _______ _______ _______ _____ _____    ______ ____
ROOT
ATOM      1  C   LIG    1       -1.948  -2.001  -0.705  0.00  0.00    +0.187 C 
ATOM      2  N   LIG    1       -0.512  -1.632  -0.658  0.00  0.00    -0.286 N 
ATOM      3  C   LIG    1       -0.112  -0.424  -0.170  0.00  0.00    +0.215 C 
ATOM      4  O   LIG    1       -0.915   0.402   0.270  0.00  0.00    -0.276 OA
ATOM      5  C   LIG    1        0.413  -2.638  -1.195  0.00  0.00    +0.127 C 
ATOM      6  C   LIG    1        0.035  -2.835  -2.676  0.00  0.00    +0.123 C 
ATOM      7  N   LIG    1       -1.393  -3.150  -2.831  0.00  0.00    -0.312 N 
ATOM      8  H   LIG    1       -1.670  -3.657  -3.659  0.00  0.00    +0.149 HD
ATOM      9  C   LIG    1       -2.380  -2.779  -1.984  0.00  0.00    +0.236 C 
ATOM     10  O   LIG    1       -3.553  -3.032  -2.251  0.00  0.00    -0.274 OA
ENDROOT
BRANCH   1  11
ATOM     11  C   LIG    1       -2.460  -2.771   0.538  0.00  0.00    +0.192 C 
BRANCH  11  12
ATOM     12  O   LIG    1       -2.109  -2.044   1.716  0.00  0.00    -0.372 OA
BRANCH  12  14
ATOM     13  C   LIG    1       -1.907  -1.534   3.997  0.00  0.00    +0.041 C 
ATOM     14  C   LIG    1       -2.440  -2.582   3.002  0.00  0.00    +0.061 C 
ATOM     15  C   LIG    1       -3.971  -2.726   3.162  0.00  0.00    +0.041 C 
ATOM     16  C   LIG    1       -1.727  -3.934   3.237  0.00  0.00    +0.041 C 
ENDBRANCH  12  14
ENDBRANCH  11  12
ENDBRANCH   1  11
BRANCH   3  17
ATOM     17  C   LIG    1        1.398  -0.076  -0.147  0.00  0.00    +0.080 C 
BRANCH  17  18
ATOM     18  C   LIG    1        1.795   1.345   0.364  0.00  0.00    -0.062 C 
BRANCH  18  19
ATOM     19  N   LIG    1        1.274   2.433  -0.596  0.00  0.00    +0.381 N 
ATOM     20  H   LIG    1        0.270   2.356  -0.688  0.00  0.00    -0.090 HD
ATOM     21  H   LIG    1        1.497   3.350  -0.238  0.00  0.00    -0.090 HD
ATOM     22  H   LIG    1        1.693   2.325  -1.508  0.00  0.00    -0.090 HD
ENDBRANCH  18  19
BRANCH  18  23
ATOM     23  C   LIG    1        3.320   1.549   0.550  0.00  0.00    +0.022 C 
BRANCH  23  24
ATOM     24  C   LIG    1        3.916   0.682   1.655  0.00  0.00    -0.011 A 
ATOM     25  C   LIG    1        4.521  -0.547   1.359  0.00  0.00    +0.129 A 
ATOM     26  F   LIG    1        4.586  -0.992   0.082  0.00  0.00    -0.205 F 
ATOM     27  C   LIG    1        5.059  -1.328   2.383  0.00  0.00    +0.080 A 
ATOM     28  C   LIG    1        4.997  -0.889   3.705  0.00  0.00    +0.161 A 
ATOM     29  F   LIG    1        5.519  -1.651   4.694  0.00  0.00    -0.202 F 
ATOM     30  C   LIG    1        4.398   0.335   4.006  0.00  0.00    +0.159 A 
ATOM     31  F   LIG    1        4.337   0.765   5.287  0.00  0.00    -0.202 F 
ATOM     32  C   LIG    1        3.860   1.117   2.984  0.00  0.00    +0.047 A 
ENDBRANCH  23  24
ENDBRANCH  18  23
ENDBRANCH  17  18
ENDBRANCH   3  17
TORSDOF 8
