REMARK  Name = DB12585
REMARK                            x       y       z     vdW  Elec       q    Type
REMARK                         _______ _______ _______ _____ _____    ______ ____
ROOT
ATOM      1  C   LIG    1       -0.741   0.918   0.342  0.00  0.00    +0.005 A 
ATOM      2  C   LIG    1       -0.062  -0.235  -0.064  0.00  0.00    -0.061 A 
ATOM      3  C   LIG    1       -0.787  -1.393  -0.361  0.00  0.00    +0.044 A 
ATOM      4  C   LIG    1       -2.177  -1.408  -0.230  0.00  0.00    +0.166 A 
ATOM      5  F   LIG    1       -2.864  -2.536  -0.524  0.00  0.00    -0.202 F 
ATOM      6  C   LIG    1       -2.852  -0.259   0.204  0.00  0.00    +0.165 A 
ATOM      7  C   LIG    1       -2.130   0.905   0.472  0.00  0.00    +0.049 A 
ENDROOT
BRANCH   2   8
ATOM      8  C   LIG    1        1.449  -0.220  -0.217  0.00  0.00    -0.047 C 
BRANCH   8   9
ATOM      9  N   LIG    1        2.177  -0.666   1.060  0.00  0.00    +0.382 N 
ATOM     10  H   LIG    1        1.864  -1.596   1.301  0.00  0.00    -0.085 HD
ATOM     11  H   LIG    1        1.914  -0.048   1.815  0.00  0.00    -0.085 HD
BRANCH   9  12
ATOM     12  C   LIG    1        3.708  -0.675   0.934  0.00  0.00    -0.082 C 
BRANCH  12  13
ATOM     13  C   LIG    1        4.320  -1.143   2.265  0.00  0.00    -0.016 C 
BRANCH  13  14
ATOM     14  C   LIG    1        5.865  -1.145   2.284  0.00  0.00    -0.008 C 
ATOM     15  C   LIG    1        6.421  -1.467   3.688  0.00  0.00    +0.031 C 
ATOM     16  C   LIG    1        7.963  -1.497   3.687  0.00  0.00    +0.160 C 
ATOM     17  O   LIG    1        8.427  -2.431   2.712  0.00  0.00    -0.380 OA
ATOM     18  C   LIG    1        8.036  -2.122   1.374  0.00  0.00    +0.160 C 
ATOM     19  C   LIG    1        6.497  -2.122   1.265  0.00  0.00    +0.031 C 
ENDBRANCH  13  14
ENDBRANCH  12  13
ENDBRANCH   9  12
ENDBRANCH   8   9
ENDBRANCH   2   8
BRANCH   6  20
ATOM     20  O   LIG    1       -4.222  -0.238   0.330  0.00  0.00    -0.435 OA
BRANCH  20  21
ATOM     21  C   LIG    1       -4.857  -0.958   1.323  0.00  0.00    +0.221 A 
ATOM     22  N   LIG    1       -6.207  -0.984   1.193  0.00  0.00    -0.220 NA
ATOM     23  C   LIG    1       -6.935  -1.647   2.127  0.00  0.00    +0.127 A 
ATOM     24  C   LIG    1       -6.365  -2.302   3.231  0.00  0.00    +0.055 A 
ATOM     25  C   LIG    1       -4.968  -2.253   3.351  0.00  0.00    +0.020 A 
ATOM     26  C   LIG    1       -4.204  -1.576   2.400  0.00  0.00    +0.068 A 
BRANCH  24  27
ATOM     27  C   LIG    1       -7.198  -3.038   4.258  0.00  0.00    +0.243 C 
ATOM     28  N   LIG    1       -8.528  -2.986   4.126  0.00  0.00    -0.325 N 
ATOM     29  H   LIG    1       -9.119  -3.465   4.790  0.00  0.00    +0.145 HD
ATOM     30  H   LIG    1       -8.950  -2.462   3.373  0.00  0.00    +0.145 HD
ATOM     31  O   LIG    1       -6.674  -3.659   5.182  0.00  0.00    -0.270 OA
ENDBRANCH  24  27
ENDBRANCH  20  21
ENDBRANCH   6  20
TORSDOF 8
