REMARK  Name = DB12559
REMARK                            x       y       z     vdW  Elec       q    Type
REMARK                         _______ _______ _______ _____ _____    ______ ____
ROOT
ATOM      1  C   LIG    1        1.311  -0.006  -0.128  0.00  0.00    +0.247 C 
ATOM      2  N   LIG    1        1.650  -0.921  -1.093  0.00  0.00    -0.283 N 
ATOM      3  O   LIG    1        2.136   0.652   0.507  0.00  0.00    -0.270 OA
ENDROOT
BRANCH   1   5
ATOM      4  C   LIG    1       -1.012  -0.685   0.641  0.00  0.00    +0.015 A 
ATOM      5  C   LIG    1       -0.145   0.287   0.127  0.00  0.00    +0.037 A 
ATOM      6  C   LIG    1       -0.634   1.560  -0.170  0.00  0.00    +0.015 A 
ATOM      7  C   LIG    1       -1.994   1.824  -0.071  0.00  0.00    +0.023 A 
ATOM      8  C   LIG    1       -2.880   0.817   0.331  0.00  0.00    +0.027 A 
ATOM      9  C   LIG    1       -2.376  -0.419   0.737  0.00  0.00    +0.023 A 
BRANCH   8  10
ATOM     10  N   LIG    1       -4.278   0.981   0.296  0.00  0.00    -0.342 N 
ATOM     11  H   LIG    1       -4.864   0.265   0.703  0.00  0.00    +0.146 HD
BRANCH  10  12
ATOM     12  C   LIG    1       -4.930   2.090  -0.409  0.00  0.00    +0.127 C 
BRANCH  12  13
ATOM     13  C   LIG    1       -4.510   2.223  -1.878  0.00  0.00    +0.074 C 
ATOM     14  N   LIG    1       -4.230   1.083  -2.576  0.00  0.00    -0.289 NA
ATOM     15  H   LIG    1       -5.094   0.545  -2.641  0.00  0.00    +0.124 HD
ATOM     16  C   LIG    1       -3.742   1.223  -3.837  0.00  0.00    +0.161 C 
ATOM     17  C   LIG    1       -3.367  -0.045  -4.574  0.00  0.00    +0.241 C 
ATOM     18  N   LIG    1       -2.794   0.259  -5.902  0.00  0.00    -0.279 N 
ATOM     19  H   LIG    1       -2.506  -0.528  -6.463  0.00  0.00    +0.152 HD
ATOM     20  C   LIG    1       -2.627   1.503  -6.406  0.00  0.00    +0.190 C 
ATOM     21  N   LIG    1       -3.001   2.601  -5.715  0.00  0.00    -0.257 NA
ATOM     22  H   LIG    1       -2.846   3.502  -6.143  0.00  0.00    +0.127 HD
ATOM     23  O   LIG    1       -3.459  -1.223  -4.236  0.00  0.00    -0.273 OA
ATOM     24  C   LIG    1       -3.567   2.501  -4.407  0.00  0.00    +0.138 C 
ATOM     25  N   LIG    1       -3.894   3.635  -3.736  0.00  0.00    -0.288 NA
ATOM     26  H   LIG    1       -3.056   4.215  -3.686  0.00  0.00    +0.124 HD
ATOM     27  C   LIG    1       -4.368   3.486  -2.470  0.00  0.00    +0.098 C 
BRANCH  20  28
ATOM     28  N   LIG    1       -2.078   1.645  -7.605  0.00  0.00    -0.294 NA
ATOM     29  H   LIG    1       -1.798   0.830  -8.132  0.00  0.00    +0.122 HD
ATOM     30  H   LIG    1       -1.934   2.569  -7.988  0.00  0.00    +0.122 HD
ENDBRANCH  20  28
ENDBRANCH  12  13
ENDBRANCH  10  12
ENDBRANCH   8  10
ENDBRANCH   1   5
BRANCH   2  31
ATOM     31  C   LIG    1        3.056  -1.214  -1.508  0.00  0.00    +0.185 C 
BRANCH  31  32
ATOM     32  C   LIG    1        3.768  -2.156  -0.464  0.00  0.00    +0.325 C 
ATOM     33  O   LIG    1        3.576  -3.377  -0.668  0.00  0.00    -0.249 OA
BRANCH  32  34
ATOM     34  O   LIG    1        4.408  -1.599   0.459  0.00  0.00    -0.479 OA
ATOM     35  H   LIG    1        4.471  -0.664   0.488  0.00  0.00    +0.295 HD
ENDBRANCH  32  34
ENDBRANCH  31  32
BRANCH  31  36
ATOM     36  C   LIG    1        3.885   0.064  -1.888  0.00  0.00    +0.043 C 
BRANCH  36  37
ATOM     37  C   LIG    1        5.265  -0.185  -2.545  0.00  0.00    +0.098 C 
BRANCH  37  38
ATOM     38  C   LIG    1        5.241  -0.847  -3.932  0.00  0.00    +0.211 C 
ATOM     39  N   LIG    1        6.429  -1.071  -4.500  0.00  0.00    -0.329 N 
ATOM     40  H   LIG    1        6.482  -1.499  -5.413  0.00  0.00    +0.145 HD
ATOM     41  H   LIG    1        7.281  -0.814  -4.023  0.00  0.00    +0.145 HD
ATOM     42  O   LIG    1        4.191  -1.145  -4.497  0.00  0.00    -0.276 OA
ENDBRANCH  37  38
ENDBRANCH  36  37
ENDBRANCH  31  36
ENDBRANCH   2  31
BRANCH   2  43
ATOM     43  C   LIG    1        0.662  -1.819  -1.736  0.00  0.00    +0.127 C 
BRANCH  43  44
ATOM     44  C   LIG    1       -0.230  -1.177  -2.822  0.00  0.00    +0.122 C 
BRANCH  44  45
ATOM     45  N   LIG    1        0.494  -0.884  -4.066  0.00  0.00    -0.325 N 
ATOM     46  H   LIG    1        0.796  -1.686  -4.600  0.00  0.00    +0.148 HD
BRANCH  45  47
ATOM     47  C   LIG    1        0.878   0.349  -4.513  0.00  0.00    +0.135 C 
ATOM     48  S   LIG    1        0.501   1.811  -3.773  0.00  0.00    -0.019 S 
BRANCH  47  49
ATOM     49  N   LIG    1        1.622   0.232  -5.653  0.00  0.00    -0.297 N 
ATOM     50  H   LIG    1        1.627  -0.685  -6.076  0.00  0.00    +0.154 HD
BRANCH  49  51
ATOM     51  C   LIG    1        2.344   1.192  -6.378  0.00  0.00    +0.033 A 
ATOM     52  C   LIG    1        3.330   1.979  -5.765  0.00  0.00    +0.038 A 
ATOM     53  C   LIG    1        4.070   2.868  -6.544  0.00  0.00    +0.068 A 
ATOM     54  C   LIG    1        5.152   3.802  -6.173  0.00  0.00    +0.341 C 
ATOM     55  O   LIG    1        5.546   4.436  -7.311  0.00  0.00    -0.440 OA
ATOM     56  C   LIG    1        4.818   3.987  -8.455  0.00  0.00    +0.196 C 
ATOM     57  C   LIG    1        5.819   3.348  -9.436  0.00  0.00    +0.047 A 
ATOM     58  C   LIG    1        6.893   2.541  -9.033  0.00  0.00    +0.015 A 
ATOM     59  C   LIG    1        7.805   2.033  -9.958  0.00  0.00    +0.046 A 
ATOM     60  C   LIG    1        7.668   2.333 -11.316  0.00  0.00    +0.120 A 
ATOM     61  C   LIG    1        6.606   3.136 -11.741  0.00  0.00    +0.092 A 
ATOM     62  C   LIG    1        5.690   3.620 -10.808  0.00  0.00    +0.140 A 
ATOM     63  O   LIG    1        4.668   4.405 -11.295  0.00  0.00    -0.455 OA
ATOM     64  C   LIG    1        4.099   5.348 -10.469  0.00  0.00    +0.140 A 
ATOM     65  C   LIG    1        3.547   6.470 -11.087  0.00  0.00    +0.092 A 
ATOM     66  C   LIG    1        2.957   7.464 -10.309  0.00  0.00    +0.120 A 
ATOM     67  C   LIG    1        2.930   7.336  -8.921  0.00  0.00    +0.046 A 
ATOM     68  C   LIG    1        3.503   6.219  -8.311  0.00  0.00    +0.015 A 
ATOM     69  C   LIG    1        4.104   5.203  -9.071  0.00  0.00    +0.047 A 
ATOM     70  O   LIG    1        5.658   4.028  -5.076  0.00  0.00    -0.245 OA
ATOM     71  C   LIG    1        3.850   2.974  -7.906  0.00  0.00    +0.019 A 
ATOM     72  C   LIG    1        2.873   2.190  -8.524  0.00  0.00    +0.011 A 
ATOM     73  C   LIG    1        2.124   1.293  -7.757  0.00  0.00    +0.024 A 
BRANCH  60  74
ATOM     74  O   LIG    1        8.504   1.879 -12.159  0.00  0.00    -0.507 OA
ATOM     75  H   LIG    1        9.215   1.341 -11.871  0.00  0.00    +0.292 HD
ENDBRANCH  60  74
BRANCH  66  76
ATOM     76  O   LIG    1        2.407   8.566 -10.907  0.00  0.00    -0.507 OA
ATOM     77  H   LIG    1        2.493   8.553 -11.863  0.00  0.00    +0.292 HD
ENDBRANCH  66  76
ENDBRANCH  49  51
ENDBRANCH  47  49
ENDBRANCH  45  47
ENDBRANCH  44  45
ENDBRANCH  43  44
ENDBRANCH   2  43
TORSDOF 19
