REMARK  Name = DB12676
REMARK                            x       y       z     vdW  Elec       q    Type
REMARK                         _______ _______ _______ _____ _____    ______ ____
ROOT
ATOM      1  C   UNK A  0        3.387   0.553   0.004  0.00  0.00    +0.037 A 
ATOM      2  C   UNK A  0        3.755  -0.378   0.988  0.00  0.00    +0.015 A 
ATOM      3  C   UNK A  0        5.090  -0.544   1.344  0.00  0.00    +0.024 A 
ATOM      4  C   UNK A  0        6.096   0.213   0.732  0.00  0.00    +0.031 A 
ATOM      5  C   UNK A  0        5.728   1.141  -0.250  0.00  0.00    +0.024 A 
ATOM      6  C   UNK A  0        4.394   1.310  -0.608  0.00  0.00    +0.015 A 
ENDROOT
BRANCH   4   7
ATOM      7  N   UNK A  0        7.445   0.052   1.093  0.00  0.00    -0.312 N 
ATOM      8  C   UNK A  0        8.588   0.696   0.459  0.00  0.00    +0.130 C 
ATOM      9  C   UNK A  0        9.807   0.208   1.222  0.00  0.00    +0.109 C 
ATOM     10  N   UNK A  0        9.189  -0.116   2.509  0.00  0.00    -0.301 N 
ATOM     11  C   UNK A  0       10.011  -0.251   3.636  0.00  0.00    +0.137 A 
ATOM     12  C   UNK A  0        9.502  -0.843   4.882  0.00  0.00    +0.276 A 
ATOM     13  O   UNK A  0        8.363  -1.253   5.099  0.00  0.00    -0.266 OA
ATOM     14  N   UNK A  0       10.449  -0.908   5.860  0.00  0.00    -0.294 N 
ATOM     15  H   UNK A  0       10.144  -1.311   6.732  0.00  0.00    +0.172 HD
ATOM     16  C   UNK A  0       11.748  -0.477   5.757  0.00  0.00    +0.195 A 
ATOM     17  N   UNK A  0       12.177   0.045   4.658  0.00  0.00    -0.199 NA
ATOM     18  C   UNK A  0       11.315   0.163   3.603  0.00  0.00    +0.149 A 
ATOM     19  N   UNK A  0       11.840   0.761   2.478  0.00  0.00    -0.326 N 
ATOM     20  H   UNK A  0       12.761   1.172   2.500  0.00  0.00    +0.148 HD
ATOM     21  C   UNK A  0       10.957   1.240   1.414  0.00  0.00    +0.127 C 
ATOM     22  C   UNK A  0        7.981  -0.845   2.123  0.00  0.00    +0.214 C 
BRANCH  16  23
ATOM     23  N   UNK A  0       12.595  -0.626   6.875  0.00  0.00    -0.329 N 
ATOM     24  H   UNK A  0       12.183  -0.672   7.796  0.00  0.00    +0.145 HD
ATOM     25  H   UNK A  0       13.485  -0.150   6.874  0.00  0.00    +0.145 HD
ENDBRANCH  16  23
ENDBRANCH   4   7
BRANCH   1  26
ATOM     26  C   UNK A  0        1.940   0.757  -0.400  0.00  0.00    +0.245 C 
ATOM     27  O   UNK A  0        1.626   1.654  -1.185  0.00  0.00    -0.270 OA
ATOM     28  N   GLU A  1        1.041  -0.098   0.132  0.00  0.00    -0.298 N 
ATOM     29  H   GLU A  1        1.394  -0.858   0.694  0.00  0.00    +0.150 HD
BRANCH  28  30
ATOM     30  CA  GLU A  1       -0.418  -0.134  -0.083  0.00  0.00    +0.182 C 
BRANCH  30  31
ATOM     31  C   GLU A  1       -1.123   1.186   0.417  0.00  0.00    +0.325 C 
ATOM     32  O   GLU A  1       -1.650   1.867  -0.493  0.00  0.00    -0.249 OA
BRANCH  31  33
ATOM     33  OXT GLU A  1       -1.066   1.419   1.649  0.00  0.00    -0.479 OA
ATOM     34  HXT GLU A  1       -0.635   0.814   2.220  0.00  0.00    +0.295 HD
ENDBRANCH  31  33
ENDBRANCH  30  31
BRANCH  30  35
ATOM     35  CB  GLU A  1       -1.004  -1.366   0.667  0.00  0.00    +0.045 C 
BRANCH  35  36
ATOM     36  CG  GLU A  1       -0.507  -2.723   0.108  0.00  0.00    +0.123 C 
BRANCH  36  37
ATOM     37  CD  GLU A  1       -1.053  -3.982   0.808  0.00  0.00    +0.305 C 
ATOM     38  OE1 GLU A  1       -0.656  -5.079   0.356  0.00  0.00    -0.251 OA
BRANCH  37  39
ATOM     39  OE2 GLU A  1       -1.842  -3.857   1.772  0.00  0.00    -0.481 OA
ATOM     40  HE2 GLU A  1       -2.099  -3.003   2.060  0.00  0.00    +0.295 HD
ENDBRANCH  37  39
ENDBRANCH  36  37
ENDBRANCH  35  36
ENDBRANCH  30  35
ENDBRANCH  28  30
ENDBRANCH   1  26
TORSDOF 10
