REMARK  Name = DB12329
REMARK                            x       y       z     vdW  Elec       q    Type
REMARK                         _______ _______ _______ _____ _____    ______ ____
ROOT
ATOM      1  C   LIG    1        1.619   0.303  -0.587  0.00  0.00    +0.079 A 
ATOM      2  C   LIG    1        2.153  -0.870  -0.024  0.00  0.00    +0.149 A 
ATOM      3  C   LIG    1        3.544  -0.978   0.259  0.00  0.00    +0.071 A 
ATOM      4  C   LIG    1        4.370   0.133  -0.037  0.00  0.00    +0.003 A 
ATOM      5  C   LIG    1        3.820   1.286  -0.605  0.00  0.00    +0.129 A 
ATOM      6  F   LIG    1        4.609   2.348  -0.893  0.00  0.00    -0.205 F 
ATOM      7  C   LIG    1        5.859   0.080   0.263  0.00  0.00    +0.047 C 
ATOM      8  C   LIG    1        6.405  -1.339   0.044  0.00  0.00    +0.031 C 
ATOM      9  C   LIG    1        7.917  -1.382   0.336  0.00  0.00    +0.018 C 
ATOM     10  C   LIG    1        8.463  -2.825   0.436  0.00  0.00    +0.061 C 
ATOM     11  C   LIG    1       10.026  -2.839   0.483  0.00  0.00    +0.129 C 
ATOM     12  C   LIG    1       10.420  -2.246   1.850  0.00  0.00    +0.127 C 
ATOM     13  C   LIG    1        9.714  -2.389   3.009  0.00  0.00    +0.121 C 
ATOM     14  C   LIG    1        8.448  -3.179   3.019  0.00  0.00    +0.211 C 
ATOM     15  O   LIG    1        7.913  -3.521   4.078  0.00  0.00    -0.288 OA
ATOM     16  C   LIG    1        7.809  -3.574   1.648  0.00  0.00    +0.190 C 
ATOM     17  C   LIG    1        6.270  -3.313   1.640  0.00  0.00    +0.141 C 
ATOM     18  C   LIG    1        5.630  -2.341   0.919  0.00  0.00    +0.044 C 
ATOM     19  C   LIG    1        4.134  -2.241   0.884  0.00  0.00    +0.197 C 
ATOM     20  O   LIG    1        3.402  -3.144   1.295  0.00  0.00    -0.287 OA
ATOM     21  C   LIG    1        2.466   1.371  -0.882  0.00  0.00    +0.065 A 
ENDROOT
BRANCH  13  22
ATOM     22  C   LIG    1       10.211  -1.745   4.219  0.00  0.00    +0.248 C 
ATOM     23  O   LIG    1       10.450  -0.540   4.284  0.00  0.00    -0.270 OA
ATOM     24  N   LIG    1       10.420  -2.554   5.265  0.00  0.00    -0.325 N 
ATOM     25  H   LIG    1       10.216  -3.540   5.194  0.00  0.00    +0.145 HD
ATOM     26  H   LIG    1       10.773  -2.179   6.133  0.00  0.00    +0.145 HD
ENDBRANCH  13  22
BRANCH   1  28
ATOM     27  C   LIG    1       -0.582   1.420  -0.691  0.00  0.00    +0.231 C 
ATOM     28  N   LIG    1        0.242   0.370  -0.891  0.00  0.00    -0.281 N 
ATOM     29  H   LIG    1       -0.175  -0.488  -1.220  0.00  0.00    +0.155 HD
ATOM     30  O   LIG    1       -0.225   2.490  -0.189  0.00  0.00    -0.274 OA
BRANCH  27  31
ATOM     31  C   LIG    1       -2.041   1.208  -1.151  0.00  0.00    +0.180 C 
BRANCH  31  34
ATOM     32  C   LIG    1       -4.462   2.248   1.488  0.00  0.00    +0.017 C 
ATOM     33  C   LIG    1       -3.203   1.525   1.005  0.00  0.00    +0.085 C 
ATOM     34  N   LIG    1       -2.984   2.006  -0.356  0.00  0.00    -0.294 NA
ATOM     35  C   LIG    1       -4.329   2.022  -0.914  0.00  0.00    +0.085 C 
ATOM     36  C   LIG    1       -5.224   2.572   0.200  0.00  0.00    +0.017 C 
ENDBRANCH  31  34
ENDBRANCH  27  31
ENDBRANCH   1  28
BRANCH  11  37
ATOM     37  N   LIG    1       10.668  -4.147   0.205  0.00  0.00    -0.299 NA
ATOM     38  C   LIG    1       12.120  -4.163   0.403  0.00  0.00    +0.105 C 
ATOM     39  C   LIG    1       10.416  -4.598  -1.165  0.00  0.00    +0.105 C 
ENDBRANCH  11  37
BRANCH   2  40
ATOM     40  O   LIG    1        1.279  -1.906   0.232  0.00  0.00    -0.504 OA
ATOM     41  H   LIG    1        0.367  -1.683   0.037  0.00  0.00    +0.292 HD
ENDBRANCH   2  40
BRANCH  12  42
ATOM     42  O   LIG    1       11.553  -1.496   1.701  0.00  0.00    -0.509 OA
ATOM     43  H   LIG    1       11.857  -1.550   0.793  0.00  0.00    +0.292 HD
ENDBRANCH  12  42
BRANCH  17  44
ATOM     44  O   LIG    1        5.633  -4.208   2.459  0.00  0.00    -0.507 OA
ATOM     45  H   LIG    1        6.280  -4.780   2.876  0.00  0.00    +0.292 HD
ENDBRANCH  17  44
BRANCH  16  46
ATOM     46  O   LIG    1        8.044  -4.969   1.481  0.00  0.00    -0.373 OA
ATOM     47  H   LIG    1        7.887  -5.411   2.319  0.00  0.00    +0.211 HD
ENDBRANCH  16  46
TORSDOF 9
