REMARK  Name = DB12967
REMARK                            x       y       z     vdW  Elec       q    Type
REMARK                         _______ _______ _______ _____ _____    ______ ____
ROOT
ATOM      1  N   LIG    1       -0.712   1.088   0.000  0.00  0.00    -0.074 NA
ATOM      2  C   LIG    1       -0.054  -0.018   0.000  0.00  0.00    +0.098 C 
ATOM      3  C   LIG    1       -0.661  -1.432   0.000  0.00  0.00    +0.070 C 
ENDROOT
BRANCH   2   4
ATOM      4  C   LIG    1        1.466   0.018   0.000  0.00  0.00    +0.178 C 
ATOM      5  N   LIG    1        2.108   1.124   0.000  0.00  0.00    -0.077 NA
BRANCH   5   6
ATOM      6  N   LIG    1        3.383   0.962   0.000  0.00  0.00    +0.044 NA
ATOM      7  C   LIG    1        4.094   2.028   0.000  0.00  0.00    +0.404 C 
BRANCH   7   8
ATOM      8  N   LIG    1        3.695   3.352   0.000  0.00  0.00    -0.287 N 
ATOM      9  H   LIG    1        4.377   4.095   0.000  0.00  0.00    +0.255 HD
ATOM     10  H   LIG    1        2.712   3.584   0.000  0.00  0.00    +0.255 HD
ENDBRANCH   7   8
BRANCH   7  11
ATOM     11  N   LIG    1        5.336   1.913   0.000  0.00  0.00    -0.287 N 
ATOM     12  H   LIG    1        5.849   1.073   0.000  0.00  0.00    +0.255 HD
ATOM     13  H   LIG    1        5.718   2.869   0.000  0.00  0.00    +0.255 HD
ENDBRANCH   7  11
ENDBRANCH   5   6
ENDBRANCH   2   4
BRANCH   1  14
ATOM     14  N   LIG    1       -1.999   0.993   0.000  0.00  0.00    +0.044 NA
ATOM     15  C   LIG    1       -2.650   2.094   0.000  0.00  0.00    +0.404 C 
BRANCH  15  16
ATOM     16  N   LIG    1       -2.179   3.395   0.000  0.00  0.00    -0.287 N 
ATOM     17  H   LIG    1       -2.819   4.174   0.000  0.00  0.00    +0.255 HD
ATOM     18  H   LIG    1       -1.185   3.573   0.000  0.00  0.00    +0.255 HD
ENDBRANCH  15  16
BRANCH  15  19
ATOM     19  N   LIG    1       -3.895   2.045   0.000  0.00  0.00    -0.287 N 
ATOM     20  H   LIG    1       -4.453   1.234   0.000  0.00  0.00    +0.255 HD
ATOM     21  H   LIG    1       -4.224   3.021   0.000  0.00  0.00    +0.255 HD
ENDBRANCH  15  19
ENDBRANCH   1  14
TORSDOF 7
