REMARK  Name = DB12432
REMARK                            x       y       z     vdW  Elec       q    Type
REMARK                         _______ _______ _______ _____ _____    ______ ____
ROOT
ATOM      1  C   LIG    1       -1.923   1.133   0.073  0.00  0.00    +0.004 A 
ATOM      2  C   LIG    1       -0.533   1.037   0.030  0.00  0.00    +0.045 A 
ATOM      3  C   LIG    1        0.094  -0.208  -0.022  0.00  0.00    +0.121 A 
ATOM      4  C   LIG    1       -0.703  -1.365  -0.034  0.00  0.00    +0.055 A 
ATOM      5  C   LIG    1       -2.100  -1.287   0.019  0.00  0.00    +0.006 A 
ATOM      6  C   LIG    1       -2.701  -0.023   0.072  0.00  0.00    +0.010 A 
ENDROOT
BRANCH   5   7
ATOM      7  C   LIG    1       -2.930  -2.534   0.071  0.00  0.00    +0.100 A 
ATOM      8  N   LIG    1       -4.153  -2.562  -0.408  0.00  0.00    -0.173 NA
ATOM      9  N   LIG    1       -4.630  -3.806  -0.244  0.00  0.00    -0.276 N 
ATOM     10  H   LIG    1       -5.563  -4.039  -0.555  0.00  0.00    +0.189 HD
ATOM     11  C   LIG    1       -3.715  -4.633   0.370  0.00  0.00    +0.066 A 
ATOM     12  C   LIG    1       -3.770  -5.978   0.740  0.00  0.00    +0.028 A 
ATOM     13  C   LIG    1       -2.639  -6.505   1.365  0.00  0.00    +0.014 A 
ATOM     14  C   LIG    1       -1.494  -5.741   1.629  0.00  0.00    +0.022 A 
ATOM     15  C   LIG    1       -1.467  -4.390   1.252  0.00  0.00    +0.023 A 
ATOM     16  C   LIG    1       -2.578  -3.823   0.605  0.00  0.00    +0.028 A 
BRANCH  14  17
ATOM     17  C   LIG    1       -0.299  -6.359   2.307  0.00  0.00    +0.181 A 
ATOM     18  N   LIG    1       -0.337  -7.570   2.838  0.00  0.00    -0.152 NA
ATOM     19  N   LIG    1        0.899  -7.710   3.311  0.00  0.00    -0.265 N 
ATOM     20  H   LIG    1        1.224  -8.539   3.789  0.00  0.00    +0.190 HD
ATOM     21  C   LIG    1        1.618  -6.585   3.046  0.00  0.00    +0.216 A 
ATOM     22  N   LIG    1        0.868  -5.723   2.411  0.00  0.00    -0.215 NA
ENDBRANCH  14  17
ENDBRANCH   5   7
BRANCH   3  23
ATOM     23  O   LIG    1        1.475  -0.210  -0.056  0.00  0.00    -0.494 OA
BRANCH  23  24
ATOM     24  C   LIG    1        2.176  -1.453  -0.092  0.00  0.00    +0.210 C 
BRANCH  24  25
ATOM     25  C   LIG    1        3.692  -1.210   0.040  0.00  0.00    -0.037 C 
BRANCH  25  26
ATOM     26  N   LIG    1        4.031  -0.295   1.244  0.00  0.00    +0.382 N 
ATOM     27  H   LIG    1        3.469   0.542   1.175  0.00  0.00    -0.082 HD
ATOM     28  C   LIG    1        3.708  -0.983   2.594  0.00  0.00    -0.079 C 
ATOM     29  C   LIG    1        4.031  -0.014   3.747  0.00  0.00    -0.019 C 
ATOM     30  C   LIG    1        5.485   0.487   3.696  0.00  0.00    -0.004 C 
ATOM     31  C   LIG    1        5.823   1.100   2.326  0.00  0.00    -0.019 C 
ATOM     32  C   LIG    1        5.516   0.133   1.169  0.00  0.00    -0.079 C 
ENDBRANCH  25  26
ENDBRANCH  24  25
ENDBRANCH  23  24
ENDBRANCH   3  23
TORSDOF 6
