REMARK  Name = DB12675
REMARK                            x       y       z     vdW  Elec       q    Type
REMARK                         _______ _______ _______ _____ _____    ______ ____
ROOT
ATOM      1  C   LIG    1        1.294   0.207  -0.191  0.00  0.00    +0.234 C 
ENDROOT
BRANCH   1   2
ATOM      2  C   LIG    1        1.919   0.418   1.209  0.00  0.00    +0.023 C 
ATOM      3  C   LIG    1        1.367  -0.577   2.248  0.00  0.00    -0.012 C 
ATOM      4  C   LIG    1        1.920  -0.287   3.656  0.00  0.00    -0.078 C 
ATOM      5  N   LIG    1        3.468  -0.340   3.626  0.00  0.00    +0.382 N 
ATOM      6  H   LIG    1        3.725  -1.285   3.376  0.00  0.00    -0.082 HD
ATOM      7  C   LIG    1        4.070   0.589   2.537  0.00  0.00    -0.078 C 
ATOM      8  C   LIG    1        3.449   0.249   1.172  0.00  0.00    -0.012 C 
BRANCH   5   9
ATOM      9  C   LIG    1        4.147  -0.005   4.988  0.00  0.00    -0.044 C 
BRANCH   9  10
ATOM     10  C   LIG    1        3.777  -0.926   6.211  0.00  0.00    +0.056 C 
ATOM     11  C   LIG    1        2.499  -0.464   6.972  0.00  0.00    +0.061 C 
ATOM     12  C   LIG    1        2.686   0.916   7.643  0.00  0.00    +0.162 C 
ATOM     13  O   LIG    1        3.812   0.883   8.518  0.00  0.00    -0.380 OA
ATOM     14  C   LIG    1        5.045   0.557   7.879  0.00  0.00    +0.162 C 
ATOM     15  C   LIG    1        4.946  -0.844   7.233  0.00  0.00    +0.061 C 
BRANCH  10  16
ATOM     16  O   LIG    1        3.685  -2.255   5.728  0.00  0.00    -0.390 OA
ATOM     17  H   LIG    1        2.764  -2.523   5.745  0.00  0.00    +0.210 HD
ENDBRANCH  10  16
ENDBRANCH   9  10
ENDBRANCH   5   9
ENDBRANCH   1   2
BRANCH   1  18
ATOM     18  O   LIG    1       -0.128   0.371  -0.185  0.00  0.00    -0.474 OA
BRANCH  18  23
ATOM     19  C   LIG    1       -4.421   3.396   0.236  0.00  0.00    +0.007 A 
ATOM     20  C   LIG    1       -4.438   1.999   0.220  0.00  0.00    +0.047 A 
ATOM     21  C   LIG    1       -3.251   1.255   0.104  0.00  0.00    +0.137 A 
ATOM     22  C   LIG    1       -2.036   1.955   0.007  0.00  0.00    +0.126 A 
ATOM     23  C   LIG    1       -0.649   1.645  -0.119  0.00  0.00    +0.266 A 
ATOM     24  N   LIG    1        0.088   2.741  -0.176  0.00  0.00    -0.039 NA
ATOM     25  O   LIG    1       -0.780   3.837  -0.083  0.00  0.00    -0.351 OA
ATOM     26  C   LIG    1       -2.052   3.358   0.025  0.00  0.00    +0.175 A 
ATOM     27  C   LIG    1       -3.226   4.110   0.139  0.00  0.00    +0.050 A 
BRANCH  21  28
ATOM     28  O   LIG    1       -3.141  -0.122   0.082  0.00  0.00    -0.486 OA
BRANCH  28  29
ATOM     29  C   LIG    1       -4.321  -0.930   0.089  0.00  0.00    +0.201 C 
ATOM     30  C   LIG    1       -5.007  -0.911  -1.282  0.00  0.00    +0.204 C 
ATOM     31  O   LIG    1       -4.358  -1.941  -2.013  0.00  0.00    -0.376 OA
ATOM     32  C   LIG    1       -4.102  -3.021  -1.123  0.00  0.00    +0.163 C 
ATOM     33  C   LIG    1       -3.914  -2.387   0.258  0.00  0.00    +0.075 C 
ENDBRANCH  28  29
ENDBRANCH  21  28
ENDBRANCH  18  23
ENDBRANCH   1  18
TORSDOF 8
