REMARK  Name = DB12310
REMARK                            x       y       z     vdW  Elec       q    Type
REMARK                         _______ _______ _______ _____ _____    ______ ____
ROOT
ATOM      1  O   LIG    1        1.188   0.193   0.314  0.00  0.00    -0.317 OA
ENDROOT
BRANCH   1   2
ATOM      2  C   LIG    1       -0.204   0.345   0.251  0.00  0.00    +0.285 C 
ATOM      3  C   LIG    1       -0.749  -0.600  -0.832  0.00  0.00    +0.201 C 
ATOM      4  C   LIG    1       -0.268  -0.162  -2.234  0.00  0.00    +0.179 C 
ATOM      5  C   LIG    1       -0.566   1.335  -2.469  0.00  0.00    +0.177 C 
ATOM      6  C   LIG    1       -0.057   2.186  -1.277  0.00  0.00    +0.178 C 
ATOM      7  O   LIG    1       -0.576   1.671  -0.040  0.00  0.00    -0.340 OA
BRANCH   3   8
ATOM      8  O   LIG    1       -0.449  -1.954  -0.541  0.00  0.00    -0.384 OA
ATOM      9  H   LIG    1       -0.631  -2.478  -1.325  0.00  0.00    +0.210 HD
ENDBRANCH   3   8
BRANCH   5  10
ATOM     10  O   LIG    1       -0.010   1.776  -3.696  0.00  0.00    -0.386 OA
ATOM     11  H   LIG    1       -0.438   1.297  -4.410  0.00  0.00    +0.210 HD
ENDBRANCH   5  10
BRANCH   4  12
ATOM     12  O   LIG    1       -0.837  -0.971  -3.252  0.00  0.00    -0.386 OA
ATOM     13  H   LIG    1       -0.127  -1.430  -3.708  0.00  0.00    +0.210 HD
ENDBRANCH   4  12
BRANCH   6  14
ATOM     14  C   LIG    1       -0.468   3.670  -1.383  0.00  0.00    +0.190 C 
BRANCH  14  15
ATOM     15  O   LIG    1        0.147   4.437  -0.367  0.00  0.00    -0.392 OA
ATOM     16  H   LIG    1       -0.131   5.351  -0.465  0.00  0.00    +0.210 HD
ENDBRANCH  14  15
ENDBRANCH   6  14
ENDBRANCH   1   2
BRANCH   1  17
ATOM     17  C   LIG    1        1.785   0.655   1.496  0.00  0.00    +0.285 C 
ATOM     18  C   LIG    1        3.288   0.838   1.242  0.00  0.00    +0.201 C 
ATOM     19  C   LIG    1        3.968  -0.526   0.979  0.00  0.00    +0.179 C 
ATOM     20  C   LIG    1        3.619  -1.540   2.092  0.00  0.00    +0.177 C 
ATOM     21  C   LIG    1        2.088  -1.563   2.356  0.00  0.00    +0.178 C 
ATOM     22  O   LIG    1        1.588  -0.234   2.569  0.00  0.00    -0.340 OA
BRANCH  18  23
ATOM     23  O   LIG    1        3.526   1.786   0.216  0.00  0.00    -0.384 OA
ATOM     24  H   LIG    1        3.432   1.345  -0.631  0.00  0.00    +0.210 HD
ENDBRANCH  18  23
BRANCH  20  25
ATOM     25  O   LIG    1        4.115  -2.828   1.766  0.00  0.00    -0.386 OA
ATOM     26  H   LIG    1        3.975  -3.408   2.519  0.00  0.00    +0.210 HD
ENDBRANCH  20  25
BRANCH  19  27
ATOM     27  O   LIG    1        5.370  -0.383   0.822  0.00  0.00    -0.386 OA
ATOM     28  H   LIG    1        5.737  -0.040   1.640  0.00  0.00    +0.210 HD
ENDBRANCH  19  27
BRANCH  21  29
ATOM     29  C   LIG    1        1.671  -2.388   3.594  0.00  0.00    +0.190 C 
BRANCH  29  30
ATOM     30  O   LIG    1        1.825  -3.778   3.392  0.00  0.00    -0.392 OA
ATOM     31  H   LIG    1        1.500  -4.239   4.169  0.00  0.00    +0.210 HD
ENDBRANCH  29  30
ENDBRANCH  21  29
ENDBRANCH   1  17
TORSDOF 12
