REMARK  Name = DB12434
REMARK                            x       y       z     vdW  Elec       q    Type
REMARK                         _______ _______ _______ _____ _____    ______ ____
ROOT
ATOM      1  C   LIG    1       -0.881  -0.819  -1.021  0.00  0.00    +0.283 C 
ATOM      2  O   LIG    1       -2.282  -0.788  -0.987  0.00  0.00    -0.340 OA
ATOM      3  C   LIG    1       -2.837  -1.596   0.056  0.00  0.00    +0.178 C 
ATOM      4  C   LIG    1       -2.429  -0.991   1.427  0.00  0.00    +0.177 C 
ATOM      5  C   LIG    1       -0.897  -0.780   1.520  0.00  0.00    +0.179 C 
ATOM      6  C   LIG    1       -0.329  -0.121   0.235  0.00  0.00    +0.208 C 
ENDROOT
BRANCH   4   7
ATOM      7  O   LIG    1       -2.901  -1.767   2.515  0.00  0.00    -0.386 OA
ATOM      8  H   LIG    1       -2.459  -2.619   2.499  0.00  0.00    +0.210 HD
ENDBRANCH   4   7
BRANCH   5   9
ATOM      9  O   LIG    1       -0.577  -0.002   2.660  0.00  0.00    -0.386 OA
ATOM     10  H   LIG    1       -0.977   0.866   2.561  0.00  0.00    +0.210 HD
ENDBRANCH   5   9
BRANCH   1  11
ATOM     11  O   LIG    1       -0.377  -0.124  -2.127  0.00  0.00    -0.338 OA
BRANCH  11  17
ATOM     12  C   LIG    1        2.344  -2.583  -5.465  0.00  0.00    +0.012 C 
ATOM     13  C   LIG    1        1.254  -2.567  -6.583  0.00  0.00    -0.025 C 
ATOM     14  C   LIG    1        0.005  -1.646  -6.196  0.00  0.00    +0.002 C 
ATOM     15  C   LIG    1        0.383  -0.171  -5.819  0.00  0.00    +0.008 C 
ATOM     16  C   LIG    1        0.414   0.176  -4.308  0.00  0.00    +0.040 C 
ATOM     17  C   LIG    1       -0.628  -0.595  -3.462  0.00  0.00    +0.094 C 
ATOM     18  C   LIG    1       -2.048  -0.342  -3.970  0.00  0.00    -0.045 C 
ATOM     19  C   LIG    1       -2.285  -1.420  -5.031  0.00  0.00    +0.040 C 
ATOM     20  C   LIG    1       -2.909   0.616  -3.588  0.00  0.00    +0.010 C 
ATOM     21  C   LIG    1       -0.466  -2.104  -3.679  0.00  0.00    +0.047 C 
ATOM     22  C   LIG    1       -0.976  -2.262  -5.112  0.00  0.00    -0.019 C 
ATOM     23  C   LIG    1       -1.345  -3.721  -5.469  0.00  0.00    +0.008 C 
ATOM     24  C   LIG    1       -0.114  -4.592  -5.723  0.00  0.00    +0.006 C 
ATOM     25  C   LIG    1        0.717  -4.025  -6.910  0.00  0.00    +0.012 C 
ATOM     26  C   LIG    1        1.759  -5.022  -7.582  0.00  0.00    +0.068 C 
ATOM     27  C   LIG    1        1.069  -6.325  -8.080  0.00  0.00    +0.023 C 
ATOM     28  C   LIG    1        2.397  -4.313  -8.824  0.00  0.00    +0.018 C 
ATOM     29  C   LIG    1        2.947  -2.902  -8.554  0.00  0.00    +0.002 C 
ATOM     30  C   LIG    1        1.875  -2.006  -7.906  0.00  0.00    +0.007 C 
BRANCH  26  31
ATOM     31  C   LIG    1        2.835  -5.515  -6.554  0.00  0.00    +0.311 C 
ATOM     32  O   LIG    1        2.546  -6.025  -5.472  0.00  0.00    -0.250 OA
BRANCH  31  33
ATOM     33  O   LIG    1        4.126  -5.374  -6.979  0.00  0.00    -0.480 OA
ATOM     34  H   LIG    1        4.757  -5.701  -6.335  0.00  0.00    +0.295 HD
ENDBRANCH  31  33
ENDBRANCH  26  31
ENDBRANCH  11  17
ENDBRANCH   1  11
BRANCH   3  35
ATOM     35  C   LIG    1       -4.361  -1.650  -0.191  0.00  0.00    +0.190 C 
BRANCH  35  36
ATOM     36  O   LIG    1       -4.981  -2.680   0.553  0.00  0.00    -0.392 OA
ATOM     37  H   LIG    1       -5.923  -2.665   0.369  0.00  0.00    +0.210 HD
ENDBRANCH  35  36
ENDBRANCH   3  35
BRANCH   6  38
ATOM     38  O   LIG    1        1.096   0.067   0.175  0.00  0.00    -0.338 OA
BRANCH  38  39
ATOM     39  C   LIG    1        2.011  -0.989   0.346  0.00  0.00    +0.282 C 
ATOM     40  O   LIG    1        1.479  -2.252   0.036  0.00  0.00    -0.341 OA
ATOM     41  C   LIG    1        2.452  -3.303   0.019  0.00  0.00    +0.178 C 
ATOM     42  C   LIG    1        3.041  -3.467   1.443  0.00  0.00    +0.177 C 
ATOM     43  C   LIG    1        3.589  -2.119   1.965  0.00  0.00    +0.179 C 
ATOM     44  C   LIG    1        2.557  -0.979   1.787  0.00  0.00    +0.201 C 
BRANCH  42  45
ATOM     45  O   LIG    1        4.033  -4.479   1.486  0.00  0.00    -0.386 OA
ATOM     46  H   LIG    1        4.809  -4.170   1.014  0.00  0.00    +0.210 HD
ENDBRANCH  42  45
BRANCH  43  47
ATOM     47  O   LIG    1        4.023  -2.218   3.312  0.00  0.00    -0.386 OA
ATOM     48  H   LIG    1        3.265  -2.425   3.864  0.00  0.00    +0.210 HD
ENDBRANCH  43  47
BRANCH  44  49
ATOM     49  O   LIG    1        3.110   0.283   2.122  0.00  0.00    -0.384 OA
ATOM     50  H   LIG    1        4.006   0.325   1.780  0.00  0.00    +0.210 HD
ENDBRANCH  44  49
BRANCH  41  51
ATOM     51  C   LIG    1        1.759  -4.585  -0.494  0.00  0.00    +0.190 C 
BRANCH  51  52
ATOM     52  O   LIG    1        1.359  -4.436  -1.840  0.00  0.00    -0.392 OA
ATOM     53  H   LIG    1        0.663  -3.775  -1.879  0.00  0.00    +0.210 HD
ENDBRANCH  51  52
ENDBRANCH  41  51
ENDBRANCH  38  39
ENDBRANCH   6  38
TORSDOF 15
