REMARK  Name = DB12476
REMARK                            x       y       z     vdW  Elec       q    Type
REMARK                         _______ _______ _______ _____ _____    ______ ____
ROOT
ATOM      1  C   LIG    1       -0.935   2.092   1.154  0.00  0.00    +0.106 C 
ATOM      2  N   LIG    1       -0.503   1.321   0.084  0.00  0.00    -0.272 NA
ATOM      3  C   LIG    1       -0.726   2.103  -1.047  0.00  0.00    +0.076 C 
ATOM      4  C   LIG    1       -0.489   1.921  -2.447  0.00  0.00    +0.026 C 
ATOM      5  C   LIG    1       -0.876   2.972  -3.330  0.00  0.00    +0.052 C 
ATOM      6  N   LIG    1       -1.449   4.099  -2.786  0.00  0.00    -0.286 NA
ATOM      7  H   LIG    1       -1.719   4.835  -3.422  0.00  0.00    +0.124 HD
ATOM      8  C   LIG    1       -1.680   4.311  -1.477  0.00  0.00    +0.125 C 
ATOM      9  C   LIG    1       -0.680   2.870  -4.726  0.00  0.00    +0.020 C 
ATOM     10  C   LIG    1       -0.094   1.720  -5.246  0.00  0.00    +0.002 C 
ATOM     11  C   LIG    1        0.296   0.682  -4.405  0.00  0.00    +0.000 C 
ATOM     12  C   LIG    1        0.109   0.766  -3.026  0.00  0.00    +0.007 C 
ATOM     13  C   LIG    1       -1.314   3.299  -0.569  0.00  0.00    +0.100 C 
ATOM     14  N   LIG    1       -1.427   3.255   0.795  0.00  0.00    -0.284 NA
ATOM     15  H   LIG    1       -0.894   4.014   1.221  0.00  0.00    +0.124 HD
ENDROOT
BRANCH   8  16
ATOM     16  N   LIG    1       -2.273   5.535  -1.096  0.00  0.00    -0.309 NA
ATOM     17  H   LIG    1       -2.514   6.223  -1.793  0.00  0.00    +0.120 HD
ATOM     18  H   LIG    1       -2.456   5.721  -0.120  0.00  0.00    +0.120 HD
ENDBRANCH   8  16
BRANCH   1  20
ATOM     19  C   LIG    1       -1.285   2.661   3.650  0.00  0.00    +0.007 C 
ATOM     20  C   LIG    1       -0.848   1.619   2.604  0.00  0.00    +0.038 C 
ENDBRANCH   1  20
BRANCH   2  21
ATOM     21  C   LIG    1        0.096  -0.010   0.179  0.00  0.00    +0.087 C 
BRANCH  21  22
ATOM     22  C   LIG    1        1.633   0.066   0.076  0.00  0.00    +0.017 C 
BRANCH  22  23
ATOM     23  C   LIG    1        2.287  -1.320  -0.039  0.00  0.00    +0.018 C 
BRANCH  23  24
ATOM     24  C   LIG    1        3.819  -1.239  -0.149  0.00  0.00    +0.105 C 
BRANCH  24  25
ATOM     25  N   LIG    1        4.416  -2.576  -0.333  0.00  0.00    -0.195 NA
ATOM     26  H   LIG    1        4.220  -3.274   0.390  0.00  0.00    +0.148 HD
BRANCH  25  27
ATOM     27  S   LIG    1        4.848  -3.169  -1.937  0.00  0.00    +0.027 S 
ATOM     28  C   LIG    1        3.190  -3.571  -2.741  0.00  0.00    +0.214 C 
ATOM     29  O   LIG    1        5.569  -4.433  -1.752  0.00  0.00    -0.158 OA
ATOM     30  O   LIG    1        5.461  -2.062  -2.679  0.00  0.00    -0.158 OA
ENDBRANCH  25  27
ENDBRANCH  24  25
ENDBRANCH  23  24
ENDBRANCH  22  23
ENDBRANCH  21  22
ENDBRANCH   2  21
TORSDOF 8
