REMARK  Name = DB12333
REMARK                            x       y       z     vdW  Elec       q    Type
REMARK                         _______ _______ _______ _____ _____    ______ ____
ROOT
ATOM      1  C   LIG    1        6.449  11.792 -12.036  0.00  0.00    +0.132 C 
ATOM      2  C   LIG    1        7.832  11.405 -11.451  0.00  0.00    +0.134 C 
ATOM      3  C   LIG    1        7.683  10.546 -10.182  0.00  0.00    +0.097 C 
ATOM      4  C   LIG    1        6.709   9.369 -10.389  0.00  0.00    +0.172 C 
ATOM      5  C   LIG    1        6.452   8.639  -9.049  0.00  0.00    +0.096 C 
ATOM      6  C   LIG    1        5.191   7.735  -8.988  0.00  0.00    +0.122 C 
ATOM      7  C   LIG    1        5.038   7.068  -7.598  0.00  0.00    +0.063 C 
ATOM      8  C   LIG    1        3.612   6.570  -7.253  0.00  0.00    +0.119 C 
ATOM      9  C   LIG    1        2.658   7.734  -6.865  0.00  0.00    +0.062 C 
ATOM     10  C   LIG    1        1.193   7.395  -6.483  0.00  0.00    +0.119 C 
ATOM     11  C   LIG    1        1.018   6.625  -5.147  0.00  0.00    +0.063 C 
ATOM     12  C   LIG    1       -0.399   6.708  -4.519  0.00  0.00    +0.124 C 
ATOM     13  C   LIG    1       -0.499   6.144  -3.074  0.00  0.00    +0.105 C 
ATOM     14  C   LIG    1       -0.273   4.631  -2.887  0.00  0.00    +0.138 C 
ATOM     15  C   LIG    1       -0.445   4.058  -1.474  0.00  0.00    +0.106 C 
ATOM     16  C   LIG    1       -1.905   4.041  -0.950  0.00  0.00    +0.132 C 
ATOM     17  C   LIG    1       -2.041   3.606   0.535  0.00  0.00    +0.152 C 
ATOM     18  C   LIG    1       -1.869   2.111   0.852  0.00  0.00    +0.310 C 
ATOM     19  O   LIG    1       -0.686   1.612   0.430  0.00  0.00    -0.460 OA
ATOM     20  C   LIG    1       -0.319   0.230   0.579  0.00  0.00    +0.186 C 
ATOM     21  C   LIG    1       -0.858  -0.622  -0.622  0.00  0.00    +0.050 C 
ATOM     22  C   LIG    1       -2.282  -1.155  -0.384  0.00  0.00    +0.015 C 
ATOM     23  C   LIG    1       -0.750   0.099  -1.959  0.00  0.00    -0.020 C 
ATOM     24  C   LIG    1        0.167  -0.137  -2.912  0.00  0.00    -0.004 C 
ATOM     25  C   LIG    1        0.235   0.672  -4.111  0.00  0.00    -0.000 C 
ATOM     26  C   LIG    1        1.209   0.578  -5.033  0.00  0.00    -0.000 C 
ATOM     27  C   LIG    1        1.293   1.497  -6.151  0.00  0.00    -0.000 C 
ATOM     28  C   LIG    1        2.238   1.430  -7.108  0.00  0.00    -0.000 C 
ATOM     29  C   LIG    1        2.374   2.391  -8.192  0.00  0.00    +0.000 C 
ATOM     30  C   LIG    1        1.359   3.091  -8.735  0.00  0.00    +0.000 C 
ATOM     31  C   LIG    1        1.556   4.118  -9.739  0.00  0.00    -0.000 C 
ATOM     32  C   LIG    1        0.555   4.895 -10.194  0.00  0.00    -0.000 C 
ATOM     33  C   LIG    1        0.710   6.018 -11.106  0.00  0.00    -0.000 C 
ATOM     34  C   LIG    1        1.839   6.736 -11.252  0.00  0.00    -0.000 C 
ATOM     35  C   LIG    1        1.948   7.889 -12.121  0.00  0.00    -0.002 C 
ATOM     36  C   LIG    1        3.121   8.493 -12.380  0.00  0.00    +0.004 C 
ATOM     37  C   LIG    1        3.293   9.730 -13.250  0.00  0.00    +0.147 C 
ATOM     38  C   LIG    1        4.049  10.877 -12.541  0.00  0.00    +0.068 C 
ATOM     39  O   LIG    1       -2.744   1.486   1.453  0.00  0.00    -0.251 OA
ATOM     40  O   LIG    1        0.032   3.893  -3.822  0.00  0.00    -0.297 OA
ATOM     41  O   LIG    1        5.476   9.859 -10.868  0.00  0.00    -0.344 OA
ATOM     42  C   LIG    1        5.514  10.547 -12.131  0.00  0.00    +0.139 C 
ENDROOT
BRANCH   1  43
ATOM     43  C   LIG    1        6.647  12.434 -13.432  0.00  0.00    +0.221 C 
ATOM     44  O   LIG    1        7.015  11.749 -14.389  0.00  0.00    -0.275 OA
ATOM     45  N   LIG    1        6.409  13.755 -13.527  0.00  0.00    -0.317 N 
ATOM     46  H   LIG    1        6.100  14.246 -12.700  0.00  0.00    +0.149 HD
BRANCH  45  47
ATOM     47  C   LIG    1        6.560  14.559 -14.740  0.00  0.00    +0.085 C 
BRANCH  47  48
ATOM     48  C   LIG    1        8.021  14.709 -15.235  0.00  0.00    -0.061 C 
BRANCH  48  49
ATOM     49  N   LIG    1        8.708  15.966 -14.649  0.00  0.00    +0.377 N 
ATOM     50  H   LIG    1        8.107  16.754 -14.848  0.00  0.00    -0.083 HD
ATOM     51  C   LIG    1       10.052  16.244 -15.350  0.00  0.00    -0.097 C 
ATOM     52  C   LIG    1        8.896  15.901 -13.119  0.00  0.00    -0.097 C 
ENDBRANCH  48  49
ENDBRANCH  47  48
ENDBRANCH  45  47
ENDBRANCH   1  43
BRANCH   2  53
ATOM     53  O   LIG    1        8.639  12.534 -11.162  0.00  0.00    -0.391 OA
ATOM     54  H   LIG    1        8.196  13.058 -10.491  0.00  0.00    +0.210 HD
ENDBRANCH   2  53
BRANCH  20  55
ATOM     55  C   LIG    1        1.234   0.094   0.765  0.00  0.00    +0.027 C 
ATOM     56  C   LIG    1        1.948   1.408   1.162  0.00  0.00    +0.011 C 
BRANCH  55  57
ATOM     57  C   LIG    1        1.618  -1.011   1.787  0.00  0.00    +0.009 C 
BRANCH  57  58
ATOM     58  C   LIG    1        1.110  -2.434   1.463  0.00  0.00    +0.032 C 
BRANCH  58  59
ATOM     59  C   LIG    1        1.615  -3.531   2.432  0.00  0.00    +0.122 C 
BRANCH  59  60
ATOM     60  O   LIG    1        1.209  -3.226   3.752  0.00  0.00    -0.391 OA
ATOM     61  H   LIG    1        1.544  -2.355   3.979  0.00  0.00    +0.210 HD
ENDBRANCH  59  60
BRANCH  59  62
ATOM     62  C   LIG    1        1.070  -4.943   2.105  0.00  0.00    +0.111 C 
BRANCH  62  63
ATOM     63  C   LIG    1        1.627  -5.612   0.831  0.00  0.00    +0.166 C 
ATOM     64  O   LIG    1        2.557  -5.080   0.220  0.00  0.00    -0.292 OA
BRANCH  63  65
ATOM     65  C   LIG    1        0.981  -6.888   0.376  0.00  0.00    +0.018 A 
ATOM     66  C   LIG    1       -0.039  -7.505   1.115  0.00  0.00    +0.013 A 
ATOM     67  C   LIG    1       -0.621  -8.688   0.668  0.00  0.00    +0.023 A 
ATOM     68  C   LIG    1       -0.192  -9.278  -0.527  0.00  0.00    +0.027 A 
ATOM     69  C   LIG    1        0.825  -8.671  -1.263  0.00  0.00    +0.023 A 
ATOM     70  C   LIG    1        1.407  -7.487  -0.818  0.00  0.00    +0.013 A 
BRANCH  68  71
ATOM     71  N   LIG    1       -0.740 -10.471  -1.030  0.00  0.00    -0.347 N 
ATOM     72  H   LIG    1       -0.470 -10.773  -1.955  0.00  0.00    +0.146 HD
ATOM     73  C   LIG    1       -1.894 -11.107  -0.410  0.00  0.00    +0.125 C 
ENDBRANCH  68  71
ENDBRANCH  63  65
ENDBRANCH  62  63
ENDBRANCH  59  62
ENDBRANCH  58  59
ENDBRANCH  57  58
ENDBRANCH  55  57
ENDBRANCH  20  55
BRANCH  16  74
ATOM     74  O   LIG    1       -2.744   3.258  -1.784  0.00  0.00    -0.391 OA
ATOM     75  H   LIG    1       -2.650   3.565  -2.689  0.00  0.00    +0.210 HD
ENDBRANCH  16  74
BRANCH  12  76
ATOM     76  O   LIG    1       -1.367   6.101  -5.356  0.00  0.00    -0.391 OA
ATOM     77  H   LIG    1       -1.261   6.452  -6.244  0.00  0.00    +0.210 HD
ENDBRANCH  12  76
BRANCH  10  78
ATOM     78  O   LIG    1        0.566   6.702  -7.543  0.00  0.00    -0.392 OA
ATOM     79  H   LIG    1        1.028   5.872  -7.684  0.00  0.00    +0.210 HD
ENDBRANCH  10  78
BRANCH   8  80
ATOM     80  O   LIG    1        3.737   5.657  -6.181  0.00  0.00    -0.392 OA
ATOM     81  H   LIG    1        2.867   5.313  -5.968  0.00  0.00    +0.210 HD
ENDBRANCH   8  80
BRANCH   6  82
ATOM     82  O   LIG    1        5.241   6.717  -9.969  0.00  0.00    -0.392 OA
ATOM     83  H   LIG    1        6.023   6.182  -9.816  0.00  0.00    +0.210 HD
ENDBRANCH   6  82
BRANCH   4  84
ATOM     84  O   LIG    1        7.299   8.465 -11.247  0.00  0.00    -0.364 OA
ATOM     85  H   LIG    1        8.162   8.242 -10.892  0.00  0.00    +0.213 HD
ENDBRANCH   4  84
BRANCH  37  86
ATOM     86  O   LIG    1        4.012   9.446 -14.455  0.00  0.00    -0.341 OA
BRANCH  86  87
ATOM     87  C   LIG    1        3.464   8.545 -15.379  0.00  0.00    +0.281 C 
ATOM     88  O   LIG    1        4.471   8.135 -16.267  0.00  0.00    -0.343 OA
ATOM     89  C   LIG    1        4.051   7.112 -17.176  0.00  0.00    +0.149 C 
ATOM     90  C   LIG    1        5.291   6.667 -17.971  0.00  0.00    +0.041 C 
ATOM     91  C   LIG    1        2.913   7.654 -18.077  0.00  0.00    +0.166 C 
ATOM     92  C   LIG    1        1.754   8.236 -17.223  0.00  0.00    +0.137 C 
ATOM     93  C   LIG    1        2.315   9.217 -16.161  0.00  0.00    +0.193 C 
BRANCH  92  94
ATOM     94  N   LIG    1        0.637   8.798 -17.999  0.00  0.00    -0.309 N 
ATOM     95  H   LIG    1        0.720   9.777 -18.232  0.00  0.00    +0.149 HD
ATOM     96  C   LIG    1       -0.404   8.109 -18.495  0.00  0.00    +0.197 C 
ATOM     97  O   LIG    1       -0.573   6.906 -18.281  0.00  0.00    -0.278 OA
BRANCH  96  98
ATOM     98  C   LIG    1       -1.393   8.933 -19.344  0.00  0.00    +0.018 C 
BRANCH  98  99
ATOM     99  N   LIG    1       -2.336   8.038 -20.107  0.00  0.00    +0.382 N 
ATOM    100  H   LIG    1       -2.644   7.294 -19.496  0.00  0.00    -0.082 HD
ATOM    101  C   LIG    1       -1.655   7.402 -21.340  0.00  0.00    -0.096 C 
ATOM    102  C   LIG    1       -3.598   8.816 -20.531  0.00  0.00    -0.096 C 
ENDBRANCH  98  99
ENDBRANCH  96  98
ENDBRANCH  92  94
BRANCH  91 103
ATOM    103  O   LIG    1        2.473   6.695 -19.024  0.00  0.00    -0.387 OA
ATOM    104  H   LIG    1        2.020   5.989 -18.556  0.00  0.00    +0.210 HD
ENDBRANCH  91 103
BRANCH  93 105
ATOM    105  O   LIG    1        2.696  10.464 -16.722  0.00  0.00    -0.385 OA
ATOM    106  H   LIG    1        2.990  11.038 -16.010  0.00  0.00    +0.210 HD
ENDBRANCH  93 105
ENDBRANCH  86  87
ENDBRANCH  37  86
TORSDOF 27
