REMARK  Name = DB12921
REMARK                            x       y       z     vdW  Elec       q    Type
REMARK                         _______ _______ _______ _____ _____    ______ ____
ROOT
ATOM      1  N   LIG    1        0.680   0.233  -0.000  0.00  0.00    -0.198 N 
ATOM      2  H   LIG    1        0.122  -0.578  -0.000  0.00  0.00    +0.175 HD
ENDROOT
BRANCH   1  10
ATOM      3  C   LIG    1        0.085   6.241   0.000  0.00  0.00    +0.004 A 
ATOM      4  C   LIG    1       -1.307   6.258   0.000  0.00  0.00    +0.022 A 
ATOM      5  C   LIG    1       -2.041   5.072   0.000  0.00  0.00    +0.068 A 
ATOM      6 CL   LIG    1       -3.770   5.160   0.000  0.00  0.00    -0.081 Cl
ATOM      7  C   LIG    1       -1.358   3.823  -0.000  0.00  0.00    +0.108 A 
ATOM      8  N   LIG    1       -2.049   2.648  -0.000  0.00  0.00    -0.249 NA
ATOM      9  C   LIG    1       -1.333   1.496  -0.000  0.00  0.00    +0.156 A 
ATOM     10  C   LIG    1        0.064   1.460  -0.000  0.00  0.00    +0.157 A 
ATOM     11  N   LIG    1        0.756   2.636   0.000  0.00  0.00    -0.228 NA
ATOM     12  C   LIG    1        0.070   3.812   0.000  0.00  0.00    +0.093 A 
ATOM     13  C   LIG    1        0.780   5.035   0.000  0.00  0.00    +0.030 A 
ENDBRANCH   1  10
BRANCH   1  14
ATOM     14  S   LIG    1        2.241   0.079   0.000  0.00  0.00    +0.074 S 
ATOM     15  O   LIG    1        2.877   0.498   1.255  0.00  0.00    -0.150 OA
ATOM     16  O   LIG    1        2.877   0.498  -1.255  0.00  0.00    -0.150 OA
BRANCH  14  17
ATOM     17  C   LIG    1        2.341  -1.714   0.000  0.00  0.00    +0.109 A 
ATOM     18  C   LIG    1        2.367  -2.411  -1.211  0.00  0.00    +0.030 A 
ATOM     19  C   LIG    1        2.433  -3.801  -1.211  0.00  0.00    +0.024 A 
ATOM     20  C   LIG    1        2.467  -4.493   0.000  0.00  0.00    +0.025 A 
ATOM     21  C   LIG    1        2.433  -3.801   1.211  0.00  0.00    +0.024 A 
ATOM     22  C   LIG    1        2.368  -2.411   1.211  0.00  0.00    +0.030 A 
BRANCH  20  23
ATOM     23  N   LIG    1        2.532  -5.886  -0.000  0.00  0.00    -0.358 N 
ATOM     24  H   LIG    1        2.554  -6.382   0.879  0.00  0.00    +0.142 HD
ATOM     25  H   LIG    1        2.553  -6.381  -0.879  0.00  0.00    +0.142 HD
ENDBRANCH  20  23
ENDBRANCH  14  17
ENDBRANCH   1  14
TORSDOF 4
