REMARK  Name = DB12633
REMARK                            x       y       z     vdW  Elec       q    Type
REMARK                         _______ _______ _______ _____ _____    ______ ____
ROOT
ATOM      1  C   LIG    1       -0.243  -1.701  -1.724  0.00  0.00    +0.043 C 
ATOM      2  C   LIG    1       -1.304  -0.703  -1.248  0.00  0.00    -0.029 C 
ATOM      3  C   LIG    1       -0.915   0.112   0.004  0.00  0.00    +0.205 C 
ATOM      4  C   LIG    1       -1.597   1.525   0.067  0.00  0.00    +0.088 C 
ATOM      5  C   LIG    1       -2.818   1.778  -0.881  0.00  0.00    +0.116 C 
ATOM      6  C   LIG    1       -3.555   0.437  -1.237  0.00  0.00    +0.023 C 
ATOM      7  C   LIG    1       -4.047  -0.311   0.045  0.00  0.00    +0.018 C 
ATOM      8  C   LIG    1       -4.856   0.708  -2.065  0.00  0.00    +0.018 C 
ATOM      9  C   LIG    1       -2.355   2.613  -2.188  0.00  0.00    +0.217 C 
ATOM     10  C   LIG    1       -1.144   2.076  -3.082  0.00  0.00    +0.097 C 
ATOM     11  C   LIG    1        0.161   2.971  -3.186  0.00  0.00    +0.170 C 
ATOM     12  C   LIG    1        0.029   4.306  -3.959  0.00  0.00    +0.211 C 
ATOM     13  O   LIG    1        0.968   3.814  -5.010  0.00  0.00    -0.368 OA
ATOM     14  C   LIG    1        1.226   2.559  -4.239  0.00  0.00    +0.167 C 
ATOM     15  C   LIG    1        1.004   1.317  -5.131  0.00  0.00    +0.068 C 
ATOM     16  C   LIG    1       -0.312   0.523  -4.945  0.00  0.00    +0.136 C 
ATOM     17  C   LIG    1       -1.543   1.349  -4.450  0.00  0.00    +0.066 C 
ATOM     18  C   LIG    1       -1.944   2.374  -5.565  0.00  0.00    +0.022 C 
ATOM     19  C   LIG    1       -2.740   0.316  -4.327  0.00  0.00    +0.187 C 
ATOM     20  O   LIG    1       -3.752   0.439  -5.027  0.00  0.00    -0.292 OA
ATOM     21  C   LIG    1       -2.658  -0.909  -3.370  0.00  0.00    +0.270 C 
ATOM     22  C   LIG    1       -2.474  -0.458  -1.910  0.00  0.00    -0.011 C 
ENDROOT
BRANCH   5  23
ATOM     23  O   LIG    1       -3.695   2.684  -0.217  0.00  0.00    -0.384 OA
ATOM     24  H   LIG    1       -3.945   2.303   0.628  0.00  0.00    +0.210 HD
ENDBRANCH   5  23
BRANCH   3  25
ATOM     25  O   LIG    1        0.505   0.280   0.046  0.00  0.00    -0.455 OA
BRANCH  25  26
ATOM     26  C   LIG    1        1.194   0.354   1.212  0.00  0.00    +0.339 C 
ATOM     27  O   LIG    1        0.688   0.378   2.337  0.00  0.00    -0.248 OA
BRANCH  26  28
ATOM     28  C   LIG    1        2.720   0.455   0.991  0.00  0.00    +0.247 C 
BRANCH  28  29
ATOM     29  O   LIG    1        3.118  -0.612   0.138  0.00  0.00    -0.379 OA
ATOM     30  H   LIG    1        4.050  -0.505  -0.067  0.00  0.00    +0.211 HD
ENDBRANCH  28  29
BRANCH  28  31
ATOM     31  C   LIG    1        3.582   0.491   2.290  0.00  0.00    +0.143 C 
BRANCH  31  32
ATOM     32  C   LIG    1        5.005   0.980   1.966  0.00  0.00    -0.024 A 
ATOM     33  C   LIG    1        5.266   2.354   1.960  0.00  0.00    +0.005 A 
ATOM     34  C   LIG    1        6.545   2.824   1.677  0.00  0.00    +0.000 A 
ATOM     35  C   LIG    1        7.568   1.919   1.405  0.00  0.00    +0.000 A 
ATOM     36  C   LIG    1        7.323   0.548   1.414  0.00  0.00    +0.000 A 
ATOM     37  C   LIG    1        6.043   0.078   1.696  0.00  0.00    +0.005 A 
ENDBRANCH  31  32
BRANCH  31  38
ATOM     38  N   LIG    1        3.518  -0.783   3.031  0.00  0.00    -0.301 N 
ATOM     39  H   LIG    1        2.894  -1.477   2.646  0.00  0.00    +0.150 HD
ATOM     40  C   LIG    1        4.047  -1.031   4.247  0.00  0.00    +0.245 C 
ATOM     41  O   LIG    1        4.678  -0.185   4.883  0.00  0.00    -0.270 OA
BRANCH  40  42
ATOM     42  C   LIG    1        3.814  -2.417   4.813  0.00  0.00    +0.037 A 
ATOM     43  C   LIG    1        3.347  -3.472   4.009  0.00  0.00    +0.013 A 
ATOM     44  C   LIG    1        3.144  -4.738   4.551  0.00  0.00    +0.001 A 
ATOM     45  C   LIG    1        3.408  -4.964   5.898  0.00  0.00    +0.000 A 
ATOM     46  C   LIG    1        3.873  -3.933   6.710  0.00  0.00    +0.001 A 
ATOM     47  C   LIG    1        4.076  -2.666   6.169  0.00  0.00    +0.013 A 
ENDBRANCH  40  42
ENDBRANCH  31  38
ENDBRANCH  28  31
ENDBRANCH  26  28
ENDBRANCH  25  26
ENDBRANCH   3  25
BRANCH   9  48
ATOM     48  O   LIG    1       -2.040   3.969  -1.819  0.00  0.00    -0.454 OA
BRANCH  48  49
ATOM     49  C   LIG    1       -2.803   5.042  -2.178  0.00  0.00    +0.340 C 
ATOM     50  O   LIG    1       -3.829   4.956  -2.858  0.00  0.00    -0.245 OA
BRANCH  49  51
ATOM     51  C   LIG    1       -2.242   6.345  -1.690  0.00  0.00    +0.059 A 
ATOM     52  C   LIG    1       -2.854   7.544  -2.083  0.00  0.00    +0.015 A 
ATOM     53  C   LIG    1       -2.351   8.768  -1.650  0.00  0.00    +0.001 A 
ATOM     54  C   LIG    1       -1.233   8.803  -0.822  0.00  0.00    +0.000 A 
ATOM     55  C   LIG    1       -0.614   7.622  -0.420  0.00  0.00    +0.001 A 
ATOM     56  C   LIG    1       -1.117   6.398  -0.850  0.00  0.00    +0.015 A 
ENDBRANCH  49  51
ENDBRANCH  48  49
ENDBRANCH   9  48
BRANCH  11  57
ATOM     57  O   LIG    1        0.683   3.125  -1.843  0.00  0.00    -0.453 OA
BRANCH  57  58
ATOM     58  C   LIG    1        1.773   3.856  -1.465  0.00  0.00    +0.305 C 
ATOM     59  C   LIG    1        1.936   3.916   0.049  0.00  0.00    +0.136 C 
ATOM     60  O   LIG    1        2.563   4.443  -2.203  0.00  0.00    -0.251 OA
ENDBRANCH  57  58
ENDBRANCH  11  57
BRANCH  16  61
ATOM     61  O   LIG    1       -0.616  -0.230  -6.126  0.00  0.00    -0.365 OA
BRANCH  61  62
ATOM     62  C   LIG    1        0.238  -1.330  -6.417  0.00  0.00    +0.229 C 
BRANCH  62  63
ATOM     63  S   LIG    1       -0.568  -2.414  -7.621  0.00  0.00    -0.136 S 
ATOM     64  C   LIG    1       -1.940  -3.028  -6.606  0.00  0.00    +0.086 C 
ENDBRANCH  62  63
ENDBRANCH  61  62
ENDBRANCH  16  61
BRANCH  21  65
ATOM     65  O   LIG    1       -3.797  -1.763  -3.532  0.00  0.00    -0.449 OA
BRANCH  65  66
ATOM     66  C   LIG    1       -3.789  -3.064  -3.165  0.00  0.00    +0.305 C 
ATOM     67  C   LIG    1       -5.121  -3.747  -3.446  0.00  0.00    +0.136 C 
ATOM     68  O   LIG    1       -2.849  -3.678  -2.662  0.00  0.00    -0.251 OA
ENDBRANCH  65  66
ENDBRANCH  21  65
TORSDOF 19
