REMARK  Name = DB12284
REMARK                            x       y       z     vdW  Elec       q    Type
REMARK                         _______ _______ _______ _____ _____    ______ ____
ROOT
ATOM      1  C   LIG    1       -0.084   0.127  -0.294  0.00  0.00    +0.076 C 
ATOM      2  C   LIG    1       -0.641  -0.945  -1.232  0.00  0.00    +0.013 C 
ATOM      3  C   LIG    1       -0.791  -1.104   0.264  0.00  0.00    +0.026 C 
ENDROOT
BRANCH   1   5
ATOM      4  C   LIG    1       -1.464   1.821   1.004  0.00  0.00    +0.006 A 
ATOM      5  C   LIG    1       -0.731   1.505  -0.144  0.00  0.00    -0.032 A 
ATOM      6  C   LIG    1       -0.557   2.468  -1.143  0.00  0.00    +0.006 A 
ATOM      7  C   LIG    1       -1.128   3.730  -1.005  0.00  0.00    +0.027 A 
ATOM      8  C   LIG    1       -1.871   4.034   0.137  0.00  0.00    +0.088 A 
ATOM      9  C   LIG    1       -2.037   3.081   1.143  0.00  0.00    +0.027 A 
BRANCH   8  10
ATOM     10  S   LIG    1       -2.594   5.662   0.326  0.00  0.00    -0.000 S 
ATOM     11  O   LIG    1       -3.758   5.523   1.209  0.00  0.00    -0.169 OA
ATOM     12  O   LIG    1       -2.750   6.232  -1.017  0.00  0.00    -0.169 OA
BRANCH  10  13
ATOM     13  C   LIG    1       -1.233   6.621   1.230  0.00  0.00    +0.136 C 
ATOM     14  C   LIG    1       -1.673   7.695   2.191  0.00  0.00    +0.028 C 
ATOM     15  C   LIG    1       -1.102   6.388   2.714  0.00  0.00    +0.028 C 
ENDBRANCH  10  13
ENDBRANCH   8  10
ENDBRANCH   1   5
BRANCH   2  16
ATOM     16  C   LIG    1       -1.928  -0.729  -2.060  0.00  0.00    -0.007 C 
ATOM     17  C   LIG    1       -1.599  -0.200  -3.474  0.00  0.00    +0.004 C 
ATOM     18  C   LIG    1       -2.886   0.086  -4.275  0.00  0.00    +0.000 C 
ATOM     19  C   LIG    1       -3.786  -1.167  -4.362  0.00  0.00    +0.000 C 
ATOM     20  C   LIG    1       -4.044  -1.810  -2.981  0.00  0.00    +0.000 C 
ATOM     21  C   LIG    1       -2.728  -2.043  -2.209  0.00  0.00    +0.004 C 
ENDBRANCH   2  16
BRANCH   1  22
ATOM     22  C   LIG    1        1.450   0.094  -0.156  0.00  0.00    +0.229 C 
ATOM     23  N   LIG    1        2.150   0.124  -1.312  0.00  0.00    -0.264 N 
ATOM     24  H   LIG    1        1.628   0.061  -2.173  0.00  0.00    +0.157 HD
ATOM     25  O   LIG    1        1.951   0.064   0.969  0.00  0.00    -0.274 OA
BRANCH  23  26
ATOM     26  C   LIG    1        3.531   0.131  -1.432  0.00  0.00    +0.165 A 
ATOM     27  S   LIG    1        4.202  -0.344  -2.957  0.00  0.00    -0.046 S 
ATOM     28  C   LIG    1        5.787  -0.036  -2.302  0.00  0.00    +0.066 A 
ATOM     29  C   LIG    1        5.643   0.393  -0.985  0.00  0.00    +0.135 A 
ATOM     30  N   LIG    1        4.411   0.485  -0.523  0.00  0.00    -0.232 NA
BRANCH  28  31
ATOM     31  S   LIG    1        7.277  -0.277  -3.204  0.00  0.00    -0.118 S 
BRANCH  31  32
ATOM     32  C   LIG    1        7.239   1.249  -4.191  0.00  0.00    +0.056 C 
BRANCH  32  33
ATOM     33  C   LIG    1        6.304   1.204  -5.414  0.00  0.00    -0.068 C 
BRANCH  33  34
ATOM     34  N   LIG    1        6.677   2.302  -6.432  0.00  0.00    +0.380 N 
ATOM     35  H   LIG    1        7.654   2.193  -6.666  0.00  0.00    -0.082 HD
ATOM     36  C   LIG    1        6.439   3.743  -5.937  0.00  0.00    -0.079 C 
ATOM     37  C   LIG    1        6.127   4.566  -7.196  0.00  0.00    -0.020 C 
ATOM     38  C   LIG    1        6.070   3.586  -8.367  0.00  0.00    -0.020 C 
ATOM     39  C   LIG    1        5.872   2.211  -7.738  0.00  0.00    -0.079 C 
ENDBRANCH  33  34
ENDBRANCH  32  33
ENDBRANCH  31  32
ENDBRANCH  28  31
ENDBRANCH  23  26
ENDBRANCH   1  22
TORSDOF 10
