REMARK  Name = DB12047
REMARK                            x       y       z     vdW  Elec       q    Type
REMARK                         _______ _______ _______ _____ _____    ______ ____
ROOT
ATOM      1  C   LIG    1        1.494   0.025   0.019  0.00  0.00    +0.173 A 
ATOM      2  N   LIG    1        2.219  -0.824   0.605  0.00  0.00    -0.151 NA
ATOM      3  N   LIG    1        3.455  -0.417   0.371  0.00  0.00    -0.226 N 
ATOM      4  H   LIG    1        4.218  -0.958   0.752  0.00  0.00    +0.194 HD
ATOM      5  C   LIG    1        3.541   0.752  -0.270  0.00  0.00    +0.349 A 
ATOM      6  O   LIG    1        4.554   1.401  -0.535  0.00  0.00    -0.245 OA
ATOM      7  N   LIG    1        2.249   0.979  -0.598  0.00  0.00    -0.244 N 
ENDROOT
BRANCH   7   8
ATOM      8  C   LIG    1        1.815   2.019  -1.452  0.00  0.00    +0.054 A 
ATOM      9  C   LIG    1        1.039   1.714  -2.577  0.00  0.00    +0.036 A 
ATOM     10  C   LIG    1        0.559   2.755  -3.385  0.00  0.00    +0.002 A 
ATOM     11  C   LIG    1       -0.251   2.806  -4.563  0.00  0.00    +0.027 A 
ATOM     12  C   LIG    1       -0.391   4.135  -4.896  0.00  0.00    +0.086 A 
ATOM     13  N   LIG    1        0.288   4.920  -3.991  0.00  0.00    -0.350 N 
ATOM     14  C   LIG    1        0.358   6.372  -4.029  0.00  0.00    +0.149 C 
ATOM     15  C   LIG    1        0.887   4.103  -3.044  0.00  0.00    +0.049 A 
ATOM     16  C   LIG    1        1.676   4.413  -1.930  0.00  0.00    +0.028 A 
ATOM     17  C   LIG    1        2.126   3.350  -1.149  0.00  0.00    +0.028 A 
ENDBRANCH   7   8
BRANCH   1  18
ATOM     18  C   LIG    1        0.011   0.006  -0.005  0.00  0.00    +0.061 A 
ATOM     19  C   LIG    1       -0.687   1.201   0.222  0.00  0.00    +0.022 A 
ATOM     20  C   LIG    1       -2.084   1.261   0.168  0.00  0.00    -0.002 A 
ATOM     21  C   LIG    1       -2.800   0.082  -0.093  0.00  0.00    +0.124 A 
ATOM     22  C   LIG    1       -2.121  -1.119  -0.291  0.00  0.00    +0.091 A 
ATOM     23  C   LIG    1       -0.728  -1.168  -0.253  0.00  0.00    +0.131 A 
BRANCH  20  24
ATOM     24  C   LIG    1       -2.786   2.615   0.358  0.00  0.00    +0.016 C 
ATOM     25  C   LIG    1       -2.376   3.318   1.668  0.00  0.00    +0.012 C 
ATOM     26  C   LIG    1       -2.573   3.527  -0.865  0.00  0.00    +0.012 C 
ENDBRANCH  20  24
BRANCH  21  27
ATOM     27  O   LIG    1       -4.170   0.071  -0.165  0.00  0.00    -0.506 OA
ATOM     28  H   LIG    1       -4.527  -0.801  -0.345  0.00  0.00    +0.292 HD
ENDBRANCH  21  27
BRANCH  23  29
ATOM     29  O   LIG    1       -0.127  -2.380  -0.489  0.00  0.00    -0.506 OA
ATOM     30  H   LIG    1       -0.758  -3.086  -0.643  0.00  0.00    +0.292 HD
ENDBRANCH  23  29
ENDBRANCH   1  18
TORSDOF 5
