REMARK  Name = DB12287
REMARK                            x       y       z     vdW  Elec       q    Type
REMARK                         _______ _______ _______ _____ _____    ______ ____
ROOT
ATOM      1  C   LIG    1        1.962  -1.269   0.004  0.00  0.00    +0.106 C 
ATOM      2  C   LIG    1        2.837  -1.450   1.277  0.00  0.00    +0.013 C 
ATOM      3  C   LIG    1        3.993  -0.414   1.220  0.00  0.00    -0.013 C 
ATOM      4  C   LIG    1        4.844  -0.579  -0.069  0.00  0.00    -0.078 C 
ATOM      5  N   LIG    1        4.277  -1.756  -0.904  0.00  0.00    +0.381 N 
ATOM      6  H   LIG    1        4.831  -1.873  -1.741  0.00  0.00    -0.082 HD
ATOM      7  C   LIG    1        4.325  -3.058  -0.063  0.00  0.00    -0.078 C 
ATOM      8  C   LIG    1        3.465  -2.867   1.216  0.00  0.00    -0.013 C 
ATOM      9  C   LIG    1        2.806  -1.456  -1.292  0.00  0.00    -0.047 C 
ENDROOT
BRANCH   1  10
ATOM     10  O   LIG    1        1.375   0.033   0.010  0.00  0.00    -0.366 OA
BRANCH  10  11
ATOM     11  C   LIG    1       -0.046   0.067   0.000  0.00  0.00    +0.248 C 
BRANCH  11  13
ATOM     12  C   LIG    1       -0.965   2.596   0.002  0.00  0.00    +0.006 C 
ATOM     13  C   LIG    1       -0.553   1.447   0.000  0.00  0.00    -0.077 C 
ENDBRANCH  11  13
ENDBRANCH  10  11
ENDBRANCH   1  10
TORSDOF 3
