REMARK  Name = DB12280
REMARK                            x       y       z     vdW  Elec       q    Type
REMARK                         _______ _______ _______ _____ _____    ______ ____
ROOT
ATOM      1  C   LIG    1        1.395  -0.128   0.009  0.00  0.00    +0.223 C 
ENDROOT
BRANCH   1   2
ATOM      2  C   LIG    1        1.813  -1.605   0.006  0.00  0.00    -0.002 A 
ATOM      3  C   LIG    1        2.261  -2.238  -1.162  0.00  0.00    +0.053 A 
ATOM      4  C   LIG    1        2.655  -3.587  -1.146  0.00  0.00    +0.120 A 
ATOM      5  C   LIG    1        2.590  -4.291   0.058  0.00  0.00    +0.045 A 
ATOM      6  C   LIG    1        2.145  -3.671   1.224  0.00  0.00    +0.004 A 
ATOM      7  C   LIG    1        1.760  -2.333   1.198  0.00  0.00    +0.007 A 
BRANCH   4   8
ATOM      8  O   LIG    1        3.112  -4.282  -2.249  0.00  0.00    -0.495 OA
ATOM      9  C   LIG    1        3.227  -3.606  -3.496  0.00  0.00    +0.277 C 
ENDBRANCH   4   8
ENDBRANCH   1   2
BRANCH   1  11
ATOM     10  C   LIG    1       -0.764  -0.525  -1.365  0.00  0.00    +0.032 C 
ATOM     11  C   LIG    1       -0.146   0.074  -0.085  0.00  0.00    +0.115 C 
BRANCH  11  12
ATOM     12  N   LIG    1       -0.533   1.485   0.028  0.00  0.00    -0.302 N 
ATOM     13  H   LIG    1       -0.882   1.914  -0.817  0.00  0.00    +0.149 HD
ATOM     14  C   LIG    1       -0.484   2.233   1.148  0.00  0.00    +0.318 C 
ATOM     15  O   LIG    1       -0.086   1.794   2.229  0.00  0.00    -0.266 OA
BRANCH  14  16
ATOM     16  C   LIG    1       -0.900   3.711   1.036  0.00  0.00    +0.469 C 
ATOM     17  F   LIG    1       -1.649   4.049   2.087  0.00  0.00    -0.162 F 
ATOM     18  F   LIG    1       -1.589   3.939  -0.086  0.00  0.00    -0.162 F 
ATOM     19  F   LIG    1        0.196   4.469   1.032  0.00  0.00    -0.162 F 
ENDBRANCH  14  16
ENDBRANCH  11  12
ENDBRANCH   1  11
BRANCH   1  20
ATOM     20  O   LIG    1        2.017   0.613  -1.053  0.00  0.00    -0.482 OA
BRANCH  20  21
ATOM     21  C   LIG    1        3.373   0.890  -1.037  0.00  0.00    +0.122 A 
ATOM     22  C   LIG    1        4.245   0.526   0.002  0.00  0.00    +0.057 A 
ATOM     23  C   LIG    1        5.603   0.854  -0.102  0.00  0.00    +0.024 A 
ATOM     24  C   LIG    1        6.758   0.668   0.708  0.00  0.00    +0.143 A 
ATOM     25  N   LIG    1        7.822   1.172   0.142  0.00  0.00    -0.174 NA
ATOM     26  N   LIG    1        7.446   1.711  -1.041  0.00  0.00    -0.232 N 
ATOM     27  C   LIG    1        6.077   1.544  -1.246  0.00  0.00    +0.075 A 
ATOM     28  C   LIG    1        5.212   1.924  -2.280  0.00  0.00    +0.032 A 
ATOM     29  C   LIG    1        3.867   1.579  -2.144  0.00  0.00    +0.048 A 
BRANCH  26  30
ATOM     30  C   LIG    1        8.423   2.278  -1.894  0.00  0.00    +0.066 A 
ATOM     31  C   LIG    1        8.323   2.122  -3.282  0.00  0.00    +0.030 A 
ATOM     32  C   LIG    1        9.262   2.716  -4.120  0.00  0.00    +0.040 A 
ATOM     33  C   LIG    1       10.296   3.474  -3.575  0.00  0.00    +0.124 A 
ATOM     34  F   LIG    1       11.206   4.053  -4.391  0.00  0.00    -0.205 F 
ATOM     35  C   LIG    1       10.399   3.643  -2.196  0.00  0.00    +0.040 A 
ATOM     36  C   LIG    1        9.463   3.048  -1.355  0.00  0.00    +0.030 A 
ENDBRANCH  26  30
ENDBRANCH  20  21
ENDBRANCH   1  20
TORSDOF 8
