REMARK  Name = DB12549
REMARK                            x       y       z     vdW  Elec       q    Type
REMARK                         _______ _______ _______ _____ _____    ______ ____
ROOT
ATOM      1  N   LIG    1        2.047  -1.379  -0.349  0.00  0.00    -0.234 NA
ATOM      2  N   LIG    1        2.214  -2.068   0.827  0.00  0.00    -0.244 NA
ATOM      3  H   LIG    1        1.326  -2.171   1.319  0.00  0.00    +0.142 HD
ATOM      4  C   LIG    1        2.697  -3.301   0.414  0.00  0.00    +0.072 C 
ATOM      5  C   LIG    1        3.062  -4.454   1.141  0.00  0.00    +0.028 C 
ATOM      6  C   LIG    1        3.526  -5.587   0.396  0.00  0.00    +0.051 C 
ATOM      7  N   LIG    1        3.616  -5.571  -0.974  0.00  0.00    -0.298 NA
ATOM      8  H   LIG    1        4.590  -5.769  -1.205  0.00  0.00    +0.123 HD
ATOM      9  C   LIG    1        3.265  -4.455  -1.682  0.00  0.00    +0.084 C 
ATOM     10  C   LIG    1        3.295  -4.295  -3.106  0.00  0.00    +0.171 C 
ATOM     11  C   LIG    1        2.870  -3.067  -3.661  0.00  0.00    +0.037 C 
ATOM     12  C   LIG    1        2.428  -1.993  -2.875  0.00  0.00    +0.025 C 
ATOM     13  C   LIG    1        3.898  -6.753   1.099  0.00  0.00    +0.023 C 
ATOM     14  C   LIG    1        3.809  -6.794   2.490  0.00  0.00    +0.036 C 
ATOM     15  C   LIG    1        3.350  -5.690   3.226  0.00  0.00    +0.106 C 
ATOM     16  C   LIG    1        2.981  -4.525   2.553  0.00  0.00    +0.041 C 
ATOM     17  C   LIG    1        2.809  -3.340  -0.958  0.00  0.00    +0.048 C 
ATOM     18  C   LIG    1        2.397  -2.134  -1.470  0.00  0.00    +0.070 C 
ENDROOT
BRANCH  10  19
ATOM     19  N   LIG    1        3.751  -5.381  -4.002  0.00  0.00    -0.018 N 
ATOM     20  O   LIG    1        4.630  -6.142  -3.610  0.00  0.00    -0.135 OA
BRANCH  19  21
ATOM     21  O   LIG    1        3.241  -5.463  -5.116  0.00  0.00    -0.400 OA
ATOM     22  H   LIG    1        2.572  -4.858  -5.370  0.00  0.00    +0.329 HD
ENDBRANCH  19  21
ENDBRANCH  10  19
BRANCH  15  23
ATOM     23  O   LIG    1        3.231  -5.668   4.603  0.00  0.00    -0.373 OA
ATOM     24  C   LIG    1        3.569  -6.832   5.349  0.00  0.00    +0.194 C 
ENDBRANCH  15  23
BRANCH   1  25
ATOM     25  C   LIG    1        1.522  -0.020  -0.319  0.00  0.00    +0.101 C 
BRANCH  25  26
ATOM     26  C   LIG    1        0.043  -0.003   0.114  0.00  0.00    -0.002 C 
BRANCH  26  27
ATOM     27  C   LIG    1       -0.530   1.424   0.169  0.00  0.00    -0.078 C 
BRANCH  27  29
ATOM     28  C   LIG    1       -2.450   0.829   1.794  0.00  0.00    -0.097 C 
ATOM     29  N   LIG    1       -2.056   1.413   0.422  0.00  0.00    +0.376 N 
ATOM     30  H   LIG    1       -2.469   0.823  -0.287  0.00  0.00    -0.083 HD
ATOM     31  C   LIG    1       -2.659   2.820   0.237  0.00  0.00    -0.097 C 
ENDBRANCH  27  29
ENDBRANCH  26  27
ENDBRANCH  25  26
ENDBRANCH   1  25
TORSDOF 7
