REMARK  Name = DB12360
REMARK                            x       y       z     vdW  Elec       q    Type
REMARK                         _______ _______ _______ _____ _____    ______ ____
ROOT
ATOM      1  C   LIG    1        3.458  -0.461   3.628  0.00  0.00    -0.008 A 
ATOM      2  C   LIG    1        3.240  -1.690   4.260  0.00  0.00    +0.007 A 
ATOM      3  C   LIG    1        2.395  -1.777   5.366  0.00  0.00    +0.005 A 
ATOM      4  C   LIG    1        1.762  -0.633   5.861  0.00  0.00    -0.029 A 
ATOM      5  C   LIG    1        1.980   0.599   5.233  0.00  0.00    +0.125 A 
ATOM      6  F   LIG    1        1.378   1.720   5.694  0.00  0.00    -0.205 F 
ATOM      7  C   LIG    1        2.827   0.683   4.128  0.00  0.00    +0.045 A 
ENDROOT
BRANCH   1  10
ATOM      8  C   LIG    1        3.689  -0.457   0.315  0.00  0.00    +0.082 C 
ATOM      9  C   LIG    1        4.320  -1.457   1.301  0.00  0.00    +0.058 C 
ATOM     10  C   LIG    1        4.385  -0.380   2.415  0.00  0.00    +0.138 C 
ATOM     11  F   LIG    1        5.622  -0.270   2.904  0.00  0.00    -0.237 F 
ATOM     12  C   LIG    1        4.145   0.651   1.280  0.00  0.00    +0.058 C 
BRANCH   8  15
ATOM     13  N   LIG    1        1.583  -0.087  -0.879  0.00  0.00    -0.315 N 
ATOM     14  H   LIG    1        2.188   0.232  -1.622  0.00  0.00    +0.149 HD
ATOM     15  C   LIG    1        2.143  -0.544   0.255  0.00  0.00    +0.216 C 
ATOM     16  O   LIG    1        1.480  -0.927   1.222  0.00  0.00    -0.276 OA
BRANCH  13  17
ATOM     17  C   LIG    1        0.144   0.001  -1.133  0.00  0.00    +0.107 C 
BRANCH  17  19
ATOM     18  C   LIG    1        0.058   2.544  -0.737  0.00  0.00    +0.009 C 
ATOM     19  C   LIG    1       -0.569   1.173  -0.412  0.00  0.00    -0.000 C 
ATOM     20  C   LIG    1       -2.077   1.173  -0.719  0.00  0.00    +0.009 C 
ENDBRANCH  17  19
ENDBRANCH  13  17
ENDBRANCH   8  15
ENDBRANCH   1  10
BRANCH   4  21
ATOM     21  C   LIG    1        0.837  -0.744   7.065  0.00  0.00    -0.040 C 
BRANCH  21  22
ATOM     22  N   LIG    1        1.562  -0.632   8.423  0.00  0.00    +0.382 N 
ATOM     23  H   LIG    1        2.318  -1.303   8.424  0.00  0.00    -0.081 HD
ATOM     24  C   LIG    1        0.652  -0.906   9.636  0.00  0.00    -0.078 C 
ATOM     25  C   LIG    1        1.280  -0.133  10.803  0.00  0.00    -0.020 C 
ATOM     26  C   LIG    1        2.397   0.732  10.218  0.00  0.00    -0.020 C 
ATOM     27  C   LIG    1        2.160   0.755   8.711  0.00  0.00    -0.078 C 
ENDBRANCH  21  22
ENDBRANCH   4  21
TORSDOF 6
