REMARK  Name = DB12710
REMARK                            x       y       z     vdW  Elec       q    Type
REMARK                         _______ _______ _______ _____ _____    ______ ____
ROOT
ATOM      1  N   LIG    1       -1.849   1.761  -0.314  0.00  0.00    -0.298 N 
ATOM      2  C   LIG    1       -2.717   1.411  -1.375  0.00  0.00    +0.048 A 
ATOM      3  C   LIG    1       -4.118   1.517  -1.217  0.00  0.00    +0.034 A 
ATOM      4  S   LIG    1       -4.818   2.277   0.203  0.00  0.00    -0.086 S 
ATOM      5  C   LIG    1       -3.618   1.798   1.391  0.00  0.00    +0.034 A 
ATOM      6  C   LIG    1       -4.037   1.647   2.715  0.00  0.00    +0.017 A 
ATOM      7  C   LIG    1       -3.129   1.300   3.709  0.00  0.00    +0.001 A 
ATOM      8  C   LIG    1       -1.793   1.109   3.381  0.00  0.00    +0.002 A 
ATOM      9  C   LIG    1       -1.371   1.280   2.064  0.00  0.00    +0.024 A 
ATOM     10  C   LIG    1       -4.991   1.114  -2.232  0.00  0.00    +0.017 A 
ATOM     11  C   LIG    1       -4.501   0.537  -3.397  0.00  0.00    +0.001 A 
ATOM     12  C   LIG    1       -3.131   0.371  -3.556  0.00  0.00    +0.002 A 
ATOM     13  C   LIG    1       -2.258   0.791  -2.555  0.00  0.00    +0.024 A 
ATOM     14  C   LIG    1       -2.255   1.669   1.039  0.00  0.00    +0.048 A 
ENDROOT
BRANCH   1  15
ATOM     15  C   LIG    1       -0.400   1.892  -0.589  0.00  0.00    +0.112 C 
BRANCH  15  16
ATOM     16  C   LIG    1        0.424   0.570  -0.574  0.00  0.00    +0.035 C 
BRANCH  16  17
ATOM     17  C   LIG    1        1.942   0.772  -0.377  0.00  0.00    +0.086 C 
BRANCH  17  22
ATOM     18  C   LIG    1        4.154   1.837   4.728  0.00  0.00    +0.105 C 
ATOM     19  N   LIG    1        3.869   1.328   3.391  0.00  0.00    -0.303 NA
ATOM     20  C   LIG    1        3.903   2.420   2.411  0.00  0.00    +0.099 C 
ATOM     21  C   LIG    1        3.600   1.875   0.993  0.00  0.00    +0.100 C 
ATOM     22  N   LIG    1        2.271   1.249   0.969  0.00  0.00    -0.300 NA
ATOM     23  C   LIG    1        2.261   0.145   1.941  0.00  0.00    +0.100 C 
ATOM     24  C   LIG    1        2.546   0.692   3.360  0.00  0.00    +0.099 C 
ENDBRANCH  17  22
ENDBRANCH  16  17
ENDBRANCH  15  16
ENDBRANCH   1  15
TORSDOF 4
