REMARK  Name = DB12270
REMARK                            x       y       z     vdW  Elec       q    Type
REMARK                         _______ _______ _______ _____ _____    ______ ____
ROOT
ATOM      1  C   LIG    1       -0.119   2.682  -0.662  0.00  0.00    +0.047 C 
ATOM      2  C   LIG    1       -0.866   1.358  -0.520  0.00  0.00    -0.006 A 
ATOM      3  C   LIG    1       -2.266   1.373  -0.524  0.00  0.00    +0.128 A 
ATOM      4  F   LIG    1       -2.940   2.535  -0.693  0.00  0.00    -0.205 F 
ATOM      5  C   LIG    1       -2.988   0.196  -0.351  0.00  0.00    +0.051 A 
ATOM      6  C   LIG    1       -2.332  -1.029  -0.165  0.00  0.00    +0.040 A 
ATOM      7  C   LIG    1       -0.931  -1.033  -0.159  0.00  0.00    +0.023 A 
ATOM      8  C   LIG    1       -0.181   0.138  -0.340  0.00  0.00    +0.007 A 
ENDROOT
BRANCH   8   9
ATOM      9  C   LIG    1        1.307   0.042  -0.353  0.00  0.00    +0.071 A 
ATOM     10  N   LIG    1        1.876  -0.551   0.732  0.00  0.00    -0.254 NA
ATOM     11  C   LIG    1        3.227  -0.678   0.765  0.00  0.00    +0.124 A 
ATOM     12  C   LIG    1        4.070  -0.240  -0.266  0.00  0.00    +0.055 A 
ATOM     13  C   LIG    1        3.463   0.366  -1.378  0.00  0.00    +0.016 A 
ATOM     14  C   LIG    1        2.075   0.507  -1.426  0.00  0.00    +0.029 A 
BRANCH  12  15
ATOM     15  C   LIG    1        5.566  -0.421  -0.161  0.00  0.00    +0.246 C 
ATOM     16  N   LIG    1        6.251  -0.399  -1.321  0.00  0.00    -0.311 N 
ATOM     17  H   LIG    1        5.731  -0.294  -2.180  0.00  0.00    +0.149 HD
ATOM     18  O   LIG    1        6.103  -0.596   0.935  0.00  0.00    -0.270 OA
BRANCH  16  19
ATOM     19  C   LIG    1        7.700  -0.567  -1.465  0.00  0.00    +0.110 C 
BRANCH  19  20
ATOM     20  C   LIG    1        8.517   0.756  -1.569  0.00  0.00    -0.022 C 
ATOM     21  C   LIG    1        8.411   1.577  -0.261  0.00  0.00    +0.012 C 
ATOM     22  C   LIG    1       10.002   0.402  -1.810  0.00  0.00    +0.012 C 
ATOM     23  C   LIG    1        8.011   1.618  -2.750  0.00  0.00    +0.012 C 
ENDBRANCH  19  20
ENDBRANCH  16  19
ENDBRANCH  12  15
ENDBRANCH   8   9
BRANCH   6  24
ATOM     24  C   LIG    1       -3.094  -2.321   0.033  0.00  0.00    +0.244 C 
ATOM     25  N   LIG    1       -4.383  -2.324  -0.356  0.00  0.00    -0.308 N 
ATOM     26  H   LIG    1       -4.707  -1.550  -0.917  0.00  0.00    +0.149 HD
ATOM     27  O   LIG    1       -2.540  -3.312   0.516  0.00  0.00    -0.270 OA
BRANCH  25  28
ATOM     28  C   LIG    1       -5.257  -3.491  -0.303  0.00  0.00    +0.073 C 
ATOM     29  C   LIG    1       -5.685  -4.034   1.044  0.00  0.00    +0.024 C 
ATOM     30  C   LIG    1       -6.680  -3.307   0.169  0.00  0.00    +0.024 C 
ENDBRANCH  25  28
ENDBRANCH   6  24
TORSDOF 6
