REMARK  Name = DB12980
REMARK                            x       y       z     vdW  Elec       q    Type
REMARK                         _______ _______ _______ _____ _____    ______ ____
ROOT
ATOM      1  N   LIG    1       -0.595   1.316  -0.314  0.00  0.00    -0.275 N 
ATOM      2  H   LIG    1        0.020   2.093  -0.123  0.00  0.00    +0.258 HD
ENDROOT
BRANCH   1   3
ATOM      3  C   LIG    1       -1.997   1.611  -0.436  0.00  0.00    +0.402 C 
ATOM      4  N   LIG    1       -3.029   0.857  -0.357  0.00  0.00    +0.011 NA
BRANCH   3   5
ATOM      5  N   LIG    1       -2.198   2.990  -0.724  0.00  0.00    -0.242 N 
ATOM      6  H   LIG    1       -2.860   3.178  -1.463  0.00  0.00    +0.265 HD
BRANCH   5   7
ATOM      7  C   LIG    1       -1.638   4.150  -0.160  0.00  0.00    +0.103 A 
ATOM      8  C   LIG    1       -0.869   4.145   1.015  0.00  0.00    +0.062 A 
ATOM      9  C   LIG    1       -0.367   5.353   1.502  0.00  0.00    +0.114 A 
ATOM     10  N   LIG    1       -0.591   6.544   0.892  0.00  0.00    -0.263 NA
ATOM     11  C   LIG    1       -1.341   6.542  -0.238  0.00  0.00    +0.114 A 
ATOM     12  C   LIG    1       -1.880   5.377  -0.788  0.00  0.00    +0.062 A 
ENDBRANCH   5   7
ENDBRANCH   3   5
BRANCH   4  13
ATOM     13  C   LIG    1       -3.043  -0.449  -0.100  0.00  0.00    +0.295 C 
ATOM     14  N   LIG    1       -3.115  -1.582   0.123  0.00  0.00    -0.151 NA
ENDBRANCH   4  13
ENDBRANCH   1   3
BRANCH   1  15
ATOM     15  C   LIG    1       -0.042   0.017   0.053  0.00  0.00    +0.196 C 
BRANCH  15  16
ATOM     16  C   LIG    1        1.492   0.058  -0.032  0.00  0.00    +0.037 C 
BRANCH  16  17
ATOM     17  C   LIG    1        2.136  -1.297   0.320  0.00  0.00    +0.003 C 
BRANCH  17  18
ATOM     18  C   LIG    1        3.669  -1.333   0.162  0.00  0.00    +0.003 C 
BRANCH  18  19
ATOM     19  C   LIG    1        4.433  -0.452   1.171  0.00  0.00    +0.041 C 
BRANCH  19  20
ATOM     20  C   LIG    1        5.961  -0.538   1.026  0.00  0.00    +0.229 C 
BRANCH  20  21
ATOM     21  O   LIG    1        6.393  -1.870   1.295  0.00  0.00    -0.492 OA
BRANCH  21  22
ATOM     22  C   LIG    1        7.736  -2.181   1.197  0.00  0.00    +0.121 A 
ATOM     23  C   LIG    1        8.739  -1.260   0.853  0.00  0.00    +0.047 A 
ATOM     24  C   LIG    1       10.069  -1.666   0.780  0.00  0.00    +0.023 A 
ATOM     25  C   LIG    1       10.404  -2.991   1.050  0.00  0.00    +0.041 A 
ATOM     26 CL   LIG    1       12.053  -3.493   0.961  0.00  0.00    -0.084 Cl
ATOM     27  C   LIG    1        9.418  -3.913   1.392  0.00  0.00    +0.023 A 
ATOM     28  C   LIG    1        8.088  -3.505   1.464  0.00  0.00    +0.047 A 
ENDBRANCH  21  22
ENDBRANCH  20  21
ENDBRANCH  19  20
ENDBRANCH  18  19
ENDBRANCH  17  18
ENDBRANCH  16  17
ENDBRANCH  15  16
ENDBRANCH   1  15
TORSDOF 12
