REMARK  Name = DB12477
REMARK                            x       y       z     vdW  Elec       q    Type
REMARK                         _______ _______ _______ _____ _____    ______ ____
ROOT
ATOM      1  C   LIG    1       -0.004  -0.166   0.000  0.00  0.00    +0.279 C 
ATOM      2  F   LIG    1       -0.463   1.090   0.000  0.00  0.00    -0.227 F 
ATOM      3  C   LIG    1       -0.697  -0.813  -1.278  0.00  0.00    +0.357 C 
ATOM      4  F   LIG    1       -0.350  -2.096  -1.377  0.00  0.00    -0.195 F 
ATOM      5  F   LIG    1       -0.337  -0.221  -2.414  0.00  0.00    -0.195 F 
ATOM      6  C   LIG    1       -2.257  -0.762  -1.270  0.00  0.00    +0.381 C 
ATOM      7  F   LIG    1       -2.657   0.511  -1.336  0.00  0.00    -0.192 F 
ATOM      8  F   LIG    1       -2.742  -1.376  -2.353  0.00  0.00    -0.192 F 
ATOM      9  C   LIG    1       -2.851  -1.413   0.000  0.00  0.00    +0.384 C 
ATOM     10  F   LIG    1       -4.182  -1.300   0.000  0.00  0.00    -0.192 F 
ATOM     11  F   LIG    1       -2.565  -2.718   0.000  0.00  0.00    -0.192 F 
ATOM     12  C   LIG    1       -2.257  -0.762   1.270  0.00  0.00    +0.381 C 
ATOM     13  F   LIG    1       -2.657   0.511   1.336  0.00  0.00    -0.192 F 
ATOM     14  F   LIG    1       -2.742  -1.376   2.353  0.00  0.00    -0.192 F 
ATOM     15  C   LIG    1       -0.697  -0.813   1.278  0.00  0.00    +0.357 C 
ATOM     16  F   LIG    1       -0.337  -0.221   2.414  0.00  0.00    -0.195 F 
ATOM     17  F   LIG    1       -0.350  -2.096   1.377  0.00  0.00    -0.195 F 
ENDROOT
BRANCH   1  18
ATOM     18  C   LIG    1        1.630  -0.043   0.000  0.00  0.00    +0.298 C 
BRANCH  18  19
ATOM     19  C   LIG    1        2.142   0.757   1.278  0.00  0.00    +0.416 C 
ATOM     20  F   LIG    1        1.472   1.893   1.477  0.00  0.00    -0.169 F 
ATOM     21  F   LIG    1        3.427   1.109   1.225  0.00  0.00    -0.169 F 
ATOM     22  F   LIG    1        2.067   0.060   2.411  0.00  0.00    -0.169 F 
ENDBRANCH  18  19
BRANCH  18  23
ATOM     23  C   LIG    1        2.142   0.757  -1.278  0.00  0.00    +0.416 C 
ATOM     24  F   LIG    1        3.427   1.109  -1.225  0.00  0.00    -0.169 F 
ATOM     25  F   LIG    1        1.472   1.893  -1.477  0.00  0.00    -0.169 F 
ATOM     26  F   LIG    1        2.067   0.060  -2.411  0.00  0.00    -0.169 F 
ENDBRANCH  18  23
BRANCH  18  27
ATOM     27  C   LIG    1        2.383  -1.434   0.000  0.00  0.00    +0.416 C 
ATOM     28  F   LIG    1        2.122  -2.187   1.065  0.00  0.00    -0.169 F 
ATOM     29  F   LIG    1        3.708  -1.277   0.000  0.00  0.00    -0.169 F 
ATOM     30  F   LIG    1        2.122  -2.187  -1.065  0.00  0.00    -0.169 F 
ENDBRANCH  18  27
ENDBRANCH   1  18
TORSDOF 4
