REMARK  Name = DB12267
REMARK                            x       y       z     vdW  Elec       q    Type
REMARK                         _______ _______ _______ _____ _____    ______ ____
ROOT
ATOM      1  C   LIG    1       -3.413   0.037   0.523  0.00  0.00    +0.033 A 
ATOM      2  C   LIG    1       -2.689   1.072  -0.083  0.00  0.00    +0.070 A 
ATOM      3  C   LIG    1       -1.283   1.087  -0.094  0.00  0.00    +0.143 A 
ATOM      4  C   LIG    1       -0.581   0.037   0.526  0.00  0.00    +0.076 A 
ATOM      5  C   LIG    1       -1.302  -1.007   1.121  0.00  0.00    +0.029 A 
ATOM      6  C   LIG    1       -2.693  -1.003   1.123  0.00  0.00    +0.025 A 
ENDROOT
BRANCH   1  10
ATOM      7  C   LIG    1       -7.822   0.177   0.910  0.00  0.00    +0.060 C 
ATOM      8  C   LIG    1       -7.062  -1.046   0.339  0.00  0.00    +0.038 C 
ATOM      9  C   LIG    1       -5.597  -1.136   0.814  0.00  0.00    +0.106 C 
ATOM     10  N   LIG    1       -4.807   0.071   0.519  0.00  0.00    -0.330 N 
ATOM     11  C   LIG    1       -5.475   1.243   1.110  0.00  0.00    +0.106 C 
ATOM     12  C   LIG    1       -6.935   1.418   0.643  0.00  0.00    +0.038 C 
BRANCH   7  17
ATOM     13  C   LIG    1      -13.512   0.498   0.582  0.00  0.00    +0.105 C 
ATOM     14  N   LIG    1      -12.121   0.366   0.999  0.00  0.00    -0.303 NA
ATOM     15  C   LIG    1      -11.489  -0.763   0.311  0.00  0.00    +0.099 C 
ATOM     16  C   LIG    1      -10.021  -0.913   0.776  0.00  0.00    +0.100 C 
ATOM     17  N   LIG    1       -9.237   0.305   0.495  0.00  0.00    -0.297 NA
ATOM     18  C   LIG    1       -9.907   1.450   1.140  0.00  0.00    +0.100 C 
ATOM     19  C   LIG    1      -11.376   1.585   0.673  0.00  0.00    +0.099 C 
ENDBRANCH   7  17
ENDBRANCH   1  10
BRANCH   3  20
ATOM     20  O   LIG    1       -0.541   2.098  -0.687  0.00  0.00    -0.493 OA
ATOM     21  C   LIG    1       -1.207   3.193  -1.308  0.00  0.00    +0.277 C 
ENDBRANCH   3  20
BRANCH   4  22
ATOM     22  N   LIG    1        0.829   0.069   0.502  0.00  0.00    -0.281 N 
ATOM     23  H   LIG    1        1.198   0.755  -0.141  0.00  0.00    +0.155 HD
BRANCH  22  24
ATOM     24  C   LIG    1        1.833  -0.640   1.182  0.00  0.00    +0.221 A 
ATOM     25  N   LIG    1        1.509  -1.454   2.221  0.00  0.00    -0.198 NA
ATOM     26  C   LIG    1        2.516  -2.089   2.880  0.00  0.00    +0.147 A 
ATOM     27  C   LIG    1        3.854  -1.905   2.494  0.00  0.00    +0.099 A 
ATOM     28 CL   LIG    1        5.178  -2.684   3.292  0.00  0.00    -0.078 Cl
ATOM     29  C   LIG    1        4.097  -1.049   1.418  0.00  0.00    +0.137 A 
ATOM     30  N   LIG    1        3.101  -0.406   0.755  0.00  0.00    -0.221 NA
BRANCH  26  31
ATOM     31  N   LIG    1        2.213  -2.937   3.961  0.00  0.00    -0.298 N 
ATOM     32  H   LIG    1        2.993  -3.519   4.235  0.00  0.00    +0.154 HD
BRANCH  31  33
ATOM     33  C   LIG    1        1.069  -3.147   4.759  0.00  0.00    +0.043 A 
ATOM     34  C   LIG    1        1.024  -4.251   5.638  0.00  0.00    +0.032 A 
ATOM     35  C   LIG    1       -0.111  -4.456   6.433  0.00  0.00    +0.013 A 
ATOM     36  C   LIG    1       -1.193  -3.583   6.373  0.00  0.00    +0.001 A 
ATOM     37  C   LIG    1       -1.148  -2.485   5.521  0.00  0.00    +0.002 A 
ATOM     38  C   LIG    1       -0.026  -2.267   4.726  0.00  0.00    +0.024 A 
BRANCH  34  39
ATOM     39  P   LIG    1        2.378  -5.477   5.824  0.00  0.00    +0.112 P 
ATOM     40  C   LIG    1        1.581  -7.111   5.542  0.00  0.00    +0.086 C 
ATOM     41  C   LIG    1        2.776  -5.468   7.620  0.00  0.00    +0.086 C 
ATOM     42  O   LIG    1        3.566  -5.246   4.958  0.00  0.00    -0.317 OA
ENDBRANCH  34  39
ENDBRANCH  31  33
ENDBRANCH  26  31
ENDBRANCH  22  24
ENDBRANCH   4  22
TORSDOF 8
