REMARK  Name = DB12857
REMARK                            x       y       z     vdW  Elec       q    Type
REMARK                         _______ _______ _______ _____ _____    ______ ____
ROOT
ATOM      1  N   LIG    1        1.250   0.204   0.036  0.00  0.00    -0.310 N 
ATOM      2  C   LIG    1        1.879   1.364  -0.613  0.00  0.00    +0.128 C 
ATOM      3  C   LIG    1        3.425   1.281  -0.761  0.00  0.00    +0.089 C 
ATOM      4  C   LIG    1        3.885   2.546  -1.522  0.00  0.00    +0.029 C 
ATOM      5  N   LIG    1        4.126   0.965   0.510  0.00  0.00    -0.308 N 
ATOM      6  C   LIG    1        3.469  -0.196   1.129  0.00  0.00    +0.126 C 
ATOM      7  C   LIG    1        1.946  -0.044   1.301  0.00  0.00    +0.125 C 
ENDROOT
BRANCH   1  13
ATOM      8  C   LIG    1       -2.815  -2.750   0.354  0.00  0.00    +0.046 C 
ATOM      9  C   LIG    1       -2.104  -1.417   0.114  0.00  0.00    -0.021 A 
ATOM     10  C   LIG    1       -2.841  -0.245  -0.134  0.00  0.00    +0.071 A 
ATOM     11  N   LIG    1       -2.239   0.959  -0.309  0.00  0.00    -0.152 NA
ATOM     12  N   LIG    1       -0.907   1.061  -0.256  0.00  0.00    -0.134 NA
ATOM     13  C   LIG    1       -0.123  -0.033  -0.043  0.00  0.00    +0.147 A 
ATOM     14  C   LIG    1       -0.697  -1.311   0.142  0.00  0.00    -0.004 A 
ATOM     15  C   LIG    1        0.174  -2.562   0.288  0.00  0.00    +0.048 C 
BRANCH  10  16
ATOM     16  C   LIG    1       -4.367  -0.205  -0.252  0.00  0.00    +0.092 C 
BRANCH  16  17
ATOM     17  C   LIG    1       -4.870   0.289  -1.604  0.00  0.00    -0.042 A 
ATOM     18  C   LIG    1       -4.840  -0.567  -2.708  0.00  0.00    +0.004 A 
ATOM     19  C   LIG    1       -5.306  -0.125  -3.944  0.00  0.00    +0.000 A 
ATOM     20  C   LIG    1       -5.808   1.169  -4.069  0.00  0.00    +0.000 A 
ATOM     21  C   LIG    1       -5.849   2.024  -2.970  0.00  0.00    +0.000 A 
ATOM     22  C   LIG    1       -5.382   1.583  -1.735  0.00  0.00    +0.004 A 
ENDBRANCH  16  17
ENDBRANCH  10  16
ENDBRANCH   1  13
BRANCH   5  23
ATOM     23  C   LIG    1        5.514   1.071   0.626  0.00  0.00    +0.140 A 
ATOM     24  N   LIG    1        6.053   2.316   0.504  0.00  0.00    -0.237 NA
ATOM     25  C   LIG    1        7.401   2.449   0.597  0.00  0.00    +0.139 A 
ATOM     26  C   LIG    1        8.236   1.344   0.809  0.00  0.00    +0.090 A 
ATOM     27  N   LIG    1        7.705   0.096   0.939  0.00  0.00    -0.252 NA
ATOM     28  C   LIG    1        6.356  -0.033   0.848  0.00  0.00    +0.154 A 
BRANCH  26  29
ATOM     29  C   LIG    1        9.764   1.501   0.910  0.00  0.00    +0.104 C 
ATOM     30  C   LIG    1       10.552   0.180   0.718  0.00  0.00    +0.048 C 
ATOM     31  C   LIG    1       10.138   2.143   2.262  0.00  0.00    +0.048 C 
BRANCH  29  32
ATOM     32  O   LIG    1       10.257   2.370  -0.096  0.00  0.00    -0.383 OA
ATOM     33  H   LIG    1       10.120   1.954  -0.950  0.00  0.00    +0.211 HD
ENDBRANCH  29  32
ENDBRANCH  26  29
ENDBRANCH   5  23
TORSDOF 6
