REMARK  Name = DB12732
REMARK                            x       y       z     vdW  Elec       q    Type
REMARK                         _______ _______ _______ _____ _____    ______ ____
ROOT
ATOM      1  C   LIG    1        1.482  -0.095   0.034  0.00  0.00    -0.011 A 
ATOM      2  C   LIG    1        2.165  -0.630  -1.063  0.00  0.00    +0.009 A 
ATOM      3  C   LIG    1        3.556  -0.643  -1.087  0.00  0.00    +0.004 A 
ATOM      4  C   LIG    1        4.277  -0.114  -0.015  0.00  0.00    -0.045 A 
ATOM      5  C   LIG    1        3.601   0.396   1.095  0.00  0.00    +0.004 A 
ATOM      6  C   LIG    1        2.210   0.408   1.116  0.00  0.00    +0.009 A 
ENDROOT
BRANCH   1  10
ATOM      7  C   LIG    1       -2.817   0.048   0.039  0.00  0.00    -0.015 A 
ATOM      8  C   LIG    1       -2.071   1.227   0.029  0.00  0.00    +0.052 A 
ATOM      9  C   LIG    1       -0.668   1.195   0.024  0.00  0.00    +0.132 A 
ATOM     10  C   LIG    1       -0.007  -0.048   0.041  0.00  0.00    +0.065 A 
ATOM     11  C   LIG    1       -0.751  -1.242   0.058  0.00  0.00    +0.132 A 
ATOM     12  C   LIG    1       -2.154  -1.177   0.059  0.00  0.00    +0.052 A 
BRANCH   9  13
ATOM     13  O   LIG    1        0.117   2.337  -0.006  0.00  0.00    -0.494 OA
ATOM     14  C   LIG    1       -0.499   3.619  -0.060  0.00  0.00    +0.277 C 
ENDBRANCH   9  13
BRANCH  11  15
ATOM     15  O   LIG    1       -0.047  -2.435   0.082  0.00  0.00    -0.494 OA
ATOM     16  C   LIG    1       -0.752  -3.672   0.080  0.00  0.00    +0.277 C 
ENDBRANCH  11  15
BRANCH   7  17
ATOM     17  C   LIG    1       -4.341   0.085   0.053  0.00  0.00    +0.195 C 
BRANCH  17  18
ATOM     18  O   LIG    1       -4.821   1.184  -0.714  0.00  0.00    -0.375 OA
BRANCH  18  20
ATOM     19  C   LIG    1       -6.626   2.521  -1.559  0.00  0.00    +0.034 C 
ATOM     20  C   LIG    1       -6.236   1.304  -0.716  0.00  0.00    +0.157 C 
ENDBRANCH  18  20
ENDBRANCH  17  18
ENDBRANCH   7  17
ENDBRANCH   1  10
BRANCH   4  21
ATOM     21  C   LIG    1        5.802  -0.077  -0.069  0.00  0.00    +0.069 C 
BRANCH  21  22
ATOM     22  CA  LIG    1        6.396   1.368  -0.057  0.00  0.00    +0.186 C 
BRANCH  22  23
ATOM     23  N   LIG    1        5.941   2.160  -1.221  0.00  0.00    -0.298 N 
ATOM     24  H   LIG    1        6.582   2.167  -2.002  0.00  0.00    +0.150 HD
ATOM     25  C   LIG    1        4.844   2.940  -1.290  0.00  0.00    +0.250 C 
ATOM     26  O   LIG    1        4.066   3.121  -0.353  0.00  0.00    -0.270 OA
BRANCH  25  27
ATOM     27  C   LIG    1        4.589   3.580  -2.630  0.00  0.00    +0.107 A 
ATOM     28  C   LIG    1        5.598   4.301  -3.296  0.00  0.00    +0.138 A 
ATOM     29  F   LIG    1        6.831   4.449  -2.753  0.00  0.00    -0.205 F 
ATOM     30  C   LIG    1        5.342   4.890  -4.535  0.00  0.00    +0.039 A 
ATOM     31  C   LIG    1        4.083   4.774  -5.121  0.00  0.00    +0.006 A 
ATOM     32  C   LIG    1        3.076   4.067  -4.468  0.00  0.00    +0.039 A 
ATOM     33  C   LIG    1        3.321   3.473  -3.230  0.00  0.00    +0.138 A 
ATOM     34  F   LIG    1        2.317   2.787  -2.631  0.00  0.00    -0.205 F 
ENDBRANCH  25  27
ENDBRANCH  22  23
BRANCH  22  35
ATOM     35  C   LIG    1        7.973   1.309   0.026  0.00  0.00    +0.326 C 
ATOM     36  O   LIG    1        8.406   0.893   1.127  0.00  0.00    -0.249 OA
BRANCH  35  37
ATOM     37  OXT LIG    1        8.634   1.657  -0.983  0.00  0.00    -0.479 OA
ATOM     38  HXT LIG    1        8.191   1.953  -1.754  0.00  0.00    +0.295 HD
ENDBRANCH  35  37
ENDBRANCH  22  35
ENDBRANCH  21  22
ENDBRANCH   4  21
TORSDOF 12
