REMARK  Name = DB12830
REMARK                            x       y       z     vdW  Elec       q    Type
REMARK                         _______ _______ _______ _____ _____    ______ ____
ROOT
ATOM      1  C   LIG    1        1.535  -0.102   0.004  0.00  0.00    -0.040 C 
ATOM      2  C   LIG    1        2.055   0.688   1.259  0.00  0.00    -0.004 C 
ATOM      3  C   LIG    1        1.670   2.188   1.283  0.00  0.00    +0.040 C 
ATOM      4  C   LIG    1        2.178   2.950   0.030  0.00  0.00    +0.109 C 
ATOM      5  C   LIG    1        1.740   4.415   0.026  0.00  0.00    +0.053 A 
ATOM      6  N   LIG    1        0.453   4.881  -0.088  0.00  0.00    -0.355 N 
ATOM      7  H   LIG    1       -0.339   4.263  -0.192  0.00  0.00    +0.166 HD
ATOM      8  C   LIG    1        0.442   6.259  -0.052  0.00  0.00    +0.047 A 
ATOM      9  C   LIG    1       -0.613   7.173  -0.142  0.00  0.00    +0.029 A 
ATOM     10  C   LIG    1       -0.285   8.528  -0.075  0.00  0.00    +0.040 A 
ATOM     11  C   LIG    1        1.030   8.961   0.078  0.00  0.00    +0.124 A 
ATOM     12  F   LIG    1        1.292  10.287   0.137  0.00  0.00    -0.205 F 
ATOM     13  C   LIG    1        2.080   8.050   0.171  0.00  0.00    +0.048 A 
ATOM     14  C   LIG    1        1.800   6.676   0.107  0.00  0.00    +0.006 A 
ATOM     15  C   LIG    1        2.602   5.487   0.170  0.00  0.00    -0.014 A 
ATOM     16  C   LIG    1        4.098   5.285   0.325  0.00  0.00    +0.065 C 
ATOM     17  C   LIG    1        4.341   3.835   0.803  0.00  0.00    +0.166 C 
ATOM     18  O   LIG    1        3.620   2.902  -0.010  0.00  0.00    -0.367 OA
ATOM     19  C   LIG    1        1.703   2.205  -1.241  0.00  0.00    +0.040 C 
ATOM     20  C   LIG    1        2.085   0.703  -1.228  0.00  0.00    -0.004 C 
ENDROOT
BRANCH   1  21
ATOM     21  C   LIG    1        1.975  -1.596  -0.002  0.00  0.00    -0.058 A 
ATOM     22  C   LIG    1        2.180  -2.296   1.201  0.00  0.00    +0.002 A 
ATOM     23  C   LIG    1        2.586  -3.627   1.197  0.00  0.00    +0.000 A 
ATOM     24  C   LIG    1        2.794  -4.282  -0.012  0.00  0.00    +0.000 A 
ATOM     25  C   LIG    1        2.595  -3.615  -1.215  0.00  0.00    +0.000 A 
ATOM     26  C   LIG    1        2.189  -2.284  -1.209  0.00  0.00    +0.002 A 
ENDBRANCH   1  21
BRANCH   1  28
ATOM     27  C   LIG    1       -0.725  -0.565  -1.281  0.00  0.00    -0.095 C 
ATOM     28  N   LIG    1       -0.035   0.001  -0.016  0.00  0.00    +0.382 N 
ATOM     29  H   LIG    1       -0.233   0.992  -0.014  0.00  0.00    -0.081 HD
ATOM     30  C   LIG    1       -0.755  -0.575   1.228  0.00  0.00    -0.095 C 
ENDBRANCH   1  28
TORSDOF 2
