REMARK  Name = DB12069
REMARK                            x       y       z     vdW  Elec       q    Type
REMARK                         _______ _______ _______ _____ _____    ______ ____
ROOT
ATOM      1  C   LIG    1       -0.360   1.852   0.710  0.00  0.00    +0.220 C 
ATOM      2  N   LIG    1       -0.531   1.137  -0.437  0.00  0.00    -0.287 N 
ATOM      3  C   LIG    1       -0.028  -0.243  -0.593  0.00  0.00    +0.164 C 
ATOM      4  C   LIG    1       -0.934  -0.900  -1.657  0.00  0.00    +0.065 C 
ATOM      5  C   LIG    1       -2.082   0.075  -1.888  0.00  0.00    +0.139 C 
ATOM      6  C   LIG    1       -1.515   1.444  -1.478  0.00  0.00    +0.140 C 
ATOM      7  O   LIG    1        0.247   1.382   1.676  0.00  0.00    -0.275 OA
ENDROOT
BRANCH   3   8
ATOM      8  C   LIG    1        1.457  -0.257  -1.013  0.00  0.00    +0.234 C 
ATOM      9  N   LIG    1        2.237  -1.154  -0.383  0.00  0.00    -0.299 N 
ATOM     10  H   LIG    1        1.801  -1.775   0.283  0.00  0.00    +0.150 HD
ATOM     11  O   LIG    1        1.846   0.439  -1.954  0.00  0.00    -0.274 OA
BRANCH   9  12
ATOM     12  C   LIG    1        3.623  -1.479  -0.740  0.00  0.00    +0.119 C 
ATOM     13  C   LIG    1        4.651  -0.342  -0.793  0.00  0.00    +0.046 C 
ATOM     14  C   LIG    1        4.694  -1.327   0.343  0.00  0.00    +0.046 C 
BRANCH  12  15
ATOM     15  C   LIG    1        3.786  -2.734  -1.639  0.00  0.00    +0.256 C 
ATOM     16  N   LIG    1        3.194  -2.685  -2.810  0.00  0.00    -0.188 N 
ATOM     17  H   LIG    1        2.821  -1.828  -3.118  0.00  0.00    +0.176 HD
ATOM     18  O   LIG    1        4.396  -3.701  -1.172  0.00  0.00    -0.272 OA
BRANCH  16  19
ATOM     19  S   LIG    1        3.060  -3.946  -3.739  0.00  0.00    +0.048 S 
ATOM     20  O   LIG    1        4.311  -4.697  -3.907  0.00  0.00    -0.155 OA
ATOM     21  O   LIG    1        2.337  -3.623  -4.975  0.00  0.00    -0.155 OA
BRANCH  19  22
ATOM     22  C   LIG    1        1.906  -5.101  -2.759  0.00  0.00    +0.151 C 
ATOM     23  C   LIG    1        0.447  -4.718  -2.709  0.00  0.00    +0.030 C 
ATOM     24  C   LIG    1        0.893  -5.909  -3.534  0.00  0.00    +0.030 C 
ENDBRANCH  19  22
ENDBRANCH  16  19
ENDBRANCH  12  15
BRANCH  13  25
ATOM     25  C   LIG    1        5.832  -0.289  -1.751  0.00  0.00    -0.028 C 
ATOM     26  C   LIG    1        5.757  -0.410  -3.085  0.00  0.00    +0.004 C 
ENDBRANCH  13  25
ENDBRANCH   9  12
ENDBRANCH   3   8
BRANCH   1  27
ATOM     27  C   LIG    1       -0.858   3.332   0.809  0.00  0.00    +0.089 C 
BRANCH  27  29
ATOM     28  C   LIG    1        1.315   4.432   1.741  0.00  0.00    +0.011 C 
ATOM     29  C   LIG    1        0.299   4.388   0.569  0.00  0.00    -0.026 C 
ATOM     30  C   LIG    1        1.085   4.082  -0.738  0.00  0.00    +0.011 C 
ATOM     31  C   LIG    1       -0.298   5.812   0.396  0.00  0.00    +0.011 C 
ENDBRANCH  27  29
BRANCH  27  32
ATOM     32  C   LIG    1       -1.666   3.569   2.136  0.00  0.00    +0.109 C 
BRANCH  32  33
ATOM     33  C   LIG    1       -3.028   2.842   2.255  0.00  0.00    +0.216 C 
ATOM     34  N   LIG    1       -3.640   2.794   3.470  0.00  0.00    -0.301 N 
ATOM     35  C   LIG    1       -3.414   3.826   4.498  0.00  0.00    +0.108 C 
ATOM     36  C   LIG    1       -4.482   4.926   4.277  0.00  0.00    +0.019 C 
ATOM     37  C   LIG    1       -5.917   4.352   4.290  0.00  0.00    +0.003 C 
ATOM     38  C   LIG    1       -6.051   3.114   3.375  0.00  0.00    +0.019 C 
ATOM     39  C   LIG    1       -4.924   2.086   3.630  0.00  0.00    +0.108 C 
ATOM     40  O   LIG    1       -3.454   2.215   1.284  0.00  0.00    -0.276 OA
ENDBRANCH  32  33
ENDBRANCH  27  32
ENDBRANCH   1  27
BRANCH   5  41
ATOM     41  O   LIG    1       -3.168  -0.319  -1.042  0.00  0.00    -0.365 OA
BRANCH  41  42
ATOM     42  C   LIG    1       -4.369   0.370  -1.047  0.00  0.00    +0.113 C 
ATOM     43  C   LIG    1       -5.311   0.068  -0.019  0.00  0.00    +0.037 C 
ATOM     44  C   LIG    1       -5.084  -0.916   0.977  0.00  0.00    +0.011 C 
ATOM     45  C   LIG    1       -6.034  -1.152   1.970  0.00  0.00    +0.034 C 
ATOM     46  C   LIG    1       -7.228  -0.431   2.029  0.00  0.00    +0.107 C 
ATOM     47  C   LIG    1       -7.489   0.545   1.056  0.00  0.00    +0.054 C 
ATOM     48  C   LIG    1       -6.538   0.790   0.042  0.00  0.00    +0.054 C 
ATOM     49  N   LIG    1       -6.764   1.746  -0.918  0.00  0.00    -0.297 NA
ATOM     50  H   LIG    1       -7.629   2.264  -0.873  0.00  0.00    +0.123 HD
ATOM     51  C   LIG    1       -5.910   2.055  -1.914  0.00  0.00    +0.074 C 
ATOM     52  C   LIG    1       -4.705   1.352  -1.993  0.00  0.00    +0.059 C 
BRANCH  51  53
ATOM     53  C   LIG    1       -6.328   3.120  -2.877  0.00  0.00    -0.025 A 
ATOM     54  C   LIG    1       -5.364   3.864  -3.576  0.00  0.00    +0.005 A 
ATOM     55  C   LIG    1       -5.742   4.853  -4.480  0.00  0.00    +0.000 A 
ATOM     56  C   LIG    1       -7.091   5.111  -4.697  0.00  0.00    +0.000 A 
ATOM     57  C   LIG    1       -8.065   4.387  -4.017  0.00  0.00    +0.000 A 
ATOM     58  C   LIG    1       -7.684   3.398  -3.114  0.00  0.00    +0.005 A 
ENDBRANCH  51  53
BRANCH  46  59
ATOM     59  O   LIG    1       -8.082  -0.737   3.071  0.00  0.00    -0.373 OA
ATOM     60  C   LIG    1       -9.304  -0.019   3.200  0.00  0.00    +0.194 C 
ENDBRANCH  46  59
ENDBRANCH  41  42
ENDBRANCH   5  41
TORSDOF 14
