REMARK  Name = DB12752
REMARK                            x       y       z     vdW  Elec       q    Type
REMARK                         _______ _______ _______ _____ _____    ______ ____
ROOT
ATOM      1  N   LIG    1       -0.534   1.270  -0.044  0.00  0.00    +0.384 N 
ATOM      2  H   LIG    1       -0.247   1.803  -0.853  0.00  0.00    -0.085 HD
ATOM      3  H   LIG    1       -0.161   1.739   0.769  0.00  0.00    -0.085 HD
ENDROOT
BRANCH   1   5
ATOM      4  C   LIG    1       -2.416   2.851   0.051  0.00  0.00    -0.010 C 
ATOM      5  C   LIG    1       -2.079   1.341   0.053  0.00  0.00    -0.070 C 
ATOM      6  C   LIG    1       -2.511   0.711   1.400  0.00  0.00    -0.010 C 
BRANCH   5   7
ATOM      7  C   LIG    1       -2.696   0.615  -1.181  0.00  0.00    +0.024 C 
BRANCH   7   8
ATOM      8  C   LIG    1       -4.212   0.688  -1.265  0.00  0.00    -0.024 A 
ATOM      9  C   LIG    1       -5.159  -0.221  -0.669  0.00  0.00    +0.003 A 
ATOM     10  C   LIG    1       -6.472   0.241  -0.995  0.00  0.00    +0.047 A 
ATOM     11  N   LIG    1       -6.311   1.373  -1.760  0.00  0.00    -0.360 N 
ATOM     12  H   LIG    1       -7.033   1.954  -2.162  0.00  0.00    +0.165 HD
ATOM     13  C   LIG    1       -7.629  -0.417  -0.562  0.00  0.00    +0.026 A 
ATOM     14  C   LIG    1       -7.453  -1.563   0.213  0.00  0.00    +0.002 A 
ATOM     15  C   LIG    1       -6.188  -2.040   0.543  0.00  0.00    +0.001 A 
ATOM     16  C   LIG    1       -5.036  -1.384   0.111  0.00  0.00    +0.010 A 
ATOM     17  C   LIG    1       -4.976   1.635  -1.924  0.00  0.00    +0.087 A 
ENDBRANCH   7   8
ENDBRANCH   5   7
ENDBRANCH   1   5
BRANCH   1  18
ATOM     18  C   LIG    1        0.138  -0.118  -0.128  0.00  0.00    -0.047 C 
BRANCH  18  19
ATOM     19  C   LIG    1        1.674   0.000   0.010  0.00  0.00    +0.135 C 
BRANCH  19  20
ATOM     20  O   LIG    1        2.044   0.677   1.200  0.00  0.00    -0.390 OA
ATOM     21  H   LIG    1        1.827   0.117   1.949  0.00  0.00    +0.210 HD
ENDBRANCH  19  20
BRANCH  19  22
ATOM     22  C   LIG    1        2.371  -1.375  -0.013  0.00  0.00    +0.258 C 
BRANCH  22  23
ATOM     23  O   LIG    1        1.840  -2.188   1.032  0.00  0.00    -0.488 OA
BRANCH  23  24
ATOM     24  C   LIG    1        2.277  -3.493   1.192  0.00  0.00    +0.138 A 
ATOM     25  C   LIG    1        1.681  -4.275   2.199  0.00  0.00    +0.093 A 
ATOM     26  C   LIG    1        2.093  -5.597   2.401  0.00  0.00    +0.022 A 
ATOM     27  C   LIG    1        3.096  -6.150   1.608  0.00  0.00    +0.001 A 
ATOM     28  C   LIG    1        3.692  -5.387   0.608  0.00  0.00    +0.004 A 
ATOM     29  C   LIG    1        3.287  -4.070   0.400  0.00  0.00    +0.047 A 
BRANCH  25  30
ATOM     30  C   LIG    1        0.624  -3.735   3.048  0.00  0.00    +0.103 C 
ATOM     31  N   LIG    1       -0.215  -3.305   3.719  0.00  0.00    -0.191 NA
ENDBRANCH  25  30
ENDBRANCH  23  24
ENDBRANCH  22  23
ENDBRANCH  19  22
ENDBRANCH  18  19
ENDBRANCH   1  18
TORSDOF 10
