REMARK  Name = DB12837
REMARK                            x       y       z     vdW  Elec       q    Type
REMARK                         _______ _______ _______ _____ _____    ______ ____
ROOT
ATOM      1  N   LIG    1        3.719  -2.836   0.261  0.00  0.00    -0.308 N 
ATOM      2  H   LIG    1        2.781  -2.947   0.619  0.00  0.00    +0.149 HD
ATOM      3  C   LIG    1        4.318  -3.918  -0.271  0.00  0.00    +0.250 C 
ATOM      4  O   LIG    1        5.400  -3.880  -0.860  0.00  0.00    -0.270 OA
ENDROOT
BRANCH   3   5
ATOM      5  C   LIG    1        3.578  -5.219  -0.092  0.00  0.00    +0.101 A 
ATOM      6  C   LIG    1        2.191  -5.281  -0.304  0.00  0.00    +0.058 A 
ATOM      7  C   LIG    1        1.515  -6.491  -0.155  0.00  0.00    +0.142 A 
ATOM      8  F   LIG    1        0.180  -6.566  -0.359  0.00  0.00    -0.204 F 
ATOM      9  C   LIG    1        2.244  -7.622   0.203  0.00  0.00    +0.153 A 
ATOM     10  N   LIG    1        3.583  -7.593   0.417  0.00  0.00    -0.217 NA
ATOM     11  C   LIG    1        4.245  -6.406   0.272  0.00  0.00    +0.233 A 
BRANCH  11  12
ATOM     12  O   LIG    1        5.612  -6.383   0.514  0.00  0.00    -0.437 OA
BRANCH  12  13
ATOM     13  C   LIG    1        6.300  -7.505   0.915  0.00  0.00    +0.133 A 
ATOM     14  C   LIG    1        6.336  -7.864   2.266  0.00  0.00    +0.049 A 
ATOM     15  C   LIG    1        7.041  -8.998   2.670  0.00  0.00    +0.045 A 
ATOM     16  C   LIG    1        7.716  -9.773   1.726  0.00  0.00    +0.159 A 
ATOM     17  F   LIG    1        8.399 -10.872   2.122  0.00  0.00    -0.202 F 
ATOM     18  C   LIG    1        7.687  -9.413   0.377  0.00  0.00    +0.162 A 
ATOM     19  F   LIG    1        8.342 -10.161  -0.540  0.00  0.00    -0.202 F 
ATOM     20  C   LIG    1        6.981  -8.279  -0.027  0.00  0.00    +0.087 A 
ENDBRANCH  12  13
ENDBRANCH  11  12
ENDBRANCH   3   5
BRANCH   1  24
ATOM     21  C   LIG    1        1.518  -0.028  -0.134  0.00  0.00    +0.073 C 
ATOM     22  C   LIG    1        2.197  -0.730  -1.338  0.00  0.00    +0.024 C 
ATOM     23  C   LIG    1        3.735  -0.808  -1.210  0.00  0.00    +0.024 C 
ATOM     24  C   LIG    1        4.186  -1.452   0.121  0.00  0.00    +0.073 C 
ATOM     25  C   LIG    1        3.640  -0.557   1.253  0.00  0.00    +0.024 C 
ATOM     26  C   LIG    1        2.098  -0.455   1.245  0.00  0.00    +0.024 C 
BRANCH  21  28
ATOM     27  C   LIG    1       -0.770   0.824   0.423  0.00  0.00    +0.248 C 
ATOM     28  N   LIG    1        0.057  -0.026  -0.217  0.00  0.00    -0.308 N 
ATOM     29  H   LIG    1       -0.356  -0.774  -0.754  0.00  0.00    +0.149 HD
ATOM     30  O   LIG    1       -0.370   1.746   1.136  0.00  0.00    -0.270 OA
BRANCH  27  36
ATOM     31  C   LIG    1       -4.618  -2.400  -0.096  0.00  0.00    +0.044 C 
ATOM     32  C   LIG    1       -4.108  -0.971  -0.049  0.00  0.00    -0.050 A 
ATOM     33  C   LIG    1       -4.992   0.100  -0.180  0.00  0.00    +0.007 A 
ATOM     34  C   LIG    1       -4.518   1.408  -0.123  0.00  0.00    +0.046 A 
ATOM     35  C   LIG    1       -3.158   1.663   0.066  0.00  0.00    +0.129 A 
ATOM     36  C   LIG    1       -2.248   0.591   0.200  0.00  0.00    +0.078 A 
ATOM     37  C   LIG    1       -2.747  -0.722   0.141  0.00  0.00    +0.020 A 
BRANCH  35  38
ATOM     38  O   LIG    1       -2.757   2.976   0.094  0.00  0.00    -0.506 OA
ATOM     39  H   LIG    1       -3.487   3.592  -0.007  0.00  0.00    +0.292 HD
ENDBRANCH  35  38
ENDBRANCH  27  36
ENDBRANCH  21  28
ENDBRANCH   1  24
TORSDOF 7
