REMARK  Name = DB12428
REMARK                            x       y       z     vdW  Elec       q    Type
REMARK                         _______ _______ _______ _____ _____    ______ ____
ROOT
ATOM      1  C   LIG    1        1.449  -0.099  -0.063  0.00  0.00    +0.237 C 
ATOM      2  N   LIG    1        2.004  -1.319   0.057  0.00  0.00    -0.305 N 
ATOM      3  H   LIG    1        1.391  -2.107   0.209  0.00  0.00    +0.150 HD
ATOM      4  O   LIG    1        2.107   0.936  -0.199  0.00  0.00    -0.271 OA
ENDROOT
BRANCH   1   6
ATOM      5  C   LIG    1       -0.752   0.987  -0.133  0.00  0.00    +0.015 C 
ATOM      6  C   LIG    1        0.004  -0.127  -0.015  0.00  0.00    +0.068 C 
BRANCH   5  12
ATOM      7  C   LIG    1       -2.928   2.268   0.075  0.00  0.00    +0.049 A 
ATOM      8  N   LIG    1       -4.288   2.338   0.066  0.00  0.00    -0.247 NA
ATOM      9  C   LIG    1       -5.010   1.200  -0.098  0.00  0.00    +0.144 A 
ATOM     10  C   LIG    1       -4.401  -0.044  -0.268  0.00  0.00    +0.033 A 
ATOM     11  C   LIG    1       -3.009  -0.110  -0.274  0.00  0.00    +0.012 A 
ATOM     12  C   LIG    1       -2.235   1.051  -0.111  0.00  0.00    -0.004 A 
BRANCH   9  13
ATOM     13  C   LIG    1       -6.528   1.369  -0.082  0.00  0.00    +0.434 C 
ATOM     14  F   LIG    1       -6.904   2.167  -1.082  0.00  0.00    -0.164 F 
ATOM     15  F   LIG    1       -6.912   1.917   1.072  0.00  0.00    -0.164 F 
ATOM     16  F   LIG    1       -7.164   0.203  -0.219  0.00  0.00    -0.164 F 
ENDBRANCH   9  13
BRANCH   7  17
ATOM     17  C   LIG    1       -2.192   3.602   0.285  0.00  0.00    +0.056 C 
BRANCH  17  19
ATOM     18  C   LIG    1       -3.451   4.589   2.322  0.00  0.00    +0.004 C 
ATOM     19  C   LIG    1       -3.006   4.786   0.864  0.00  0.00    +0.003 C 
ENDBRANCH  17  19
ENDBRANCH   7  17
ENDBRANCH   5  12
ENDBRANCH   1   6
BRANCH   2  20
ATOM     20  C   LIG    1        3.440  -1.618   0.059  0.00  0.00    +0.101 C 
ATOM     21  C   LIG    1        4.101  -1.399  -1.320  0.00  0.00    +0.033 C 
BRANCH  20  22
ATOM     22  C   LIG    1        3.701  -3.025   0.598  0.00  0.00    -0.022 A 
ATOM     23  C   LIG    1        3.240  -4.151  -0.094  0.00  0.00    +0.046 A 
ATOM     24  C   LIG    1        3.488  -5.436   0.390  0.00  0.00    +0.149 A 
ATOM     25  F   LIG    1        3.046  -6.494  -0.328  0.00  0.00    -0.203 F 
ATOM     26  C   LIG    1        4.199  -5.615   1.586  0.00  0.00    +0.118 A 
ATOM     27  C   LIG    1        4.675  -4.489   2.270  0.00  0.00    +0.149 A 
ATOM     28  F   LIG    1        5.376  -4.628   3.421  0.00  0.00    -0.203 F 
ATOM     29  C   LIG    1        4.426  -3.207   1.780  0.00  0.00    +0.046 A 
BRANCH  26  30
ATOM     30  N   LIG    1        4.468  -6.887   2.115  0.00  0.00    -0.215 N 
ATOM     31  H   LIG    1        5.195  -6.893   2.815  0.00  0.00    +0.173 HD
BRANCH  30  32
ATOM     32  S   LIG    1        3.147  -8.015   2.478  0.00  0.00    +0.040 S 
ATOM     33  C   LIG    1        3.972  -9.212   3.678  0.00  0.00    +0.218 C 
ATOM     34  O   LIG    1        2.826  -8.731   1.239  0.00  0.00    -0.155 OA
ATOM     35  O   LIG    1        2.117  -7.254   3.192  0.00  0.00    -0.155 OA
ENDBRANCH  30  32
ENDBRANCH  26  30
ENDBRANCH  20  22
ENDBRANCH   2  20
TORSDOF 9
