REMARK  Name = DB12800
REMARK                            x       y       z     vdW  Elec       q    Type
REMARK                         _______ _______ _______ _____ _____    ______ ____
ROOT
ATOM      1  C   LIG    1        1.536   0.129  -0.052  0.00  0.00    +0.208 C 
ENDROOT
BRANCH   1   2
ATOM      2  C   LIG    1        2.022   0.620  -1.420  0.00  0.00    -0.004 A 
ATOM      3  C   LIG    1        1.342   0.273  -2.591  0.00  0.00    +0.056 A 
ATOM      4  C   LIG    1        1.791   0.714  -3.846  0.00  0.00    +0.163 A 
ATOM      5  C   LIG    1        2.944   1.510  -3.924  0.00  0.00    +0.168 A 
ATOM      6  C   LIG    1        3.627   1.849  -2.744  0.00  0.00    +0.050 A 
ATOM      7  C   LIG    1        3.167   1.411  -1.505  0.00  0.00    +0.011 A 
BRANCH   4   8
ATOM      8  O   LIG    1        1.156   0.407  -5.037  0.00  0.00    -0.488 OA
BRANCH   8   9
ATOM      9  C   LIG    1       -0.037  -0.377  -5.022  0.00  0.00    +0.232 C 
BRANCH   9  10
ATOM     10  C   LIG    1       -0.604  -0.570  -6.440  0.00  0.00    +0.027 C 
ATOM     11  C   LIG    1       -0.513   0.535  -7.464  0.00  0.00    +0.007 C 
ATOM     12  C   LIG    1        0.318  -0.727  -7.624  0.00  0.00    +0.007 C 
ENDBRANCH   9  10
ENDBRANCH   8   9
ENDBRANCH   4   8
BRANCH   5  13
ATOM     13  O   LIG    1        3.353   1.902  -5.187  0.00  0.00    -0.431 OA
BRANCH  13  14
ATOM     14  C   LIG    1        4.398   2.860  -5.329  0.00  0.00    +0.541 C 
ATOM     15  F   LIG    1        5.592   2.298  -5.134  0.00  0.00    -0.166 F 
ATOM     16  F   LIG    1        4.355   3.360  -6.563  0.00  0.00    -0.166 F 
ENDBRANCH  13  14
ENDBRANCH   5  13
ENDBRANCH   1   2
BRANCH   1  17
ATOM     17  O   LIG    1        0.119   0.283   0.090  0.00  0.00    -0.453 OA
BRANCH  17  18
ATOM     18  C   LIG    1       -0.484   1.504   0.169  0.00  0.00    +0.340 C 
ATOM     19  O   LIG    1        0.138   2.570   0.173  0.00  0.00    -0.245 OA
BRANCH  18  23
ATOM     20  C   LIG    1       -4.802   1.331   0.305  0.00  0.00    +0.089 A 
ATOM     21  C   LIG    1       -4.147   2.571   0.238  0.00  0.00    +0.144 A 
ATOM     22  C   LIG    1       -2.741   2.600   0.203  0.00  0.00    +0.062 A 
ATOM     23  C   LIG    1       -1.982   1.422   0.222  0.00  0.00    +0.063 A 
ATOM     24  C   LIG    1       -2.657   0.195   0.286  0.00  0.00    +0.017 A 
ATOM     25  C   LIG    1       -4.048   0.151   0.330  0.00  0.00    +0.029 A 
BRANCH  20  26
ATOM     26  N   LIG    1       -6.207   1.310   0.344  0.00  0.00    -0.217 N 
ATOM     27  H   LIG    1       -6.687   2.197   0.321  0.00  0.00    +0.173 HD
BRANCH  26  29
ATOM     28  C   LIG    1       -8.941   0.516   0.485  0.00  0.00    +0.218 C 
ATOM     29  S   LIG    1       -7.185  -0.166   0.460  0.00  0.00    +0.040 S 
ATOM     30  O   LIG    1       -6.971  -0.917  -0.782  0.00  0.00    -0.155 OA
ATOM     31  O   LIG    1       -6.880  -0.778   1.758  0.00  0.00    -0.155 OA
ENDBRANCH  26  29
ENDBRANCH  20  26
BRANCH  21  32
ATOM     32  O   LIG    1       -4.934   3.711   0.211  0.00  0.00    -0.490 OA
BRANCH  32  33
ATOM     33  C   LIG    1       -4.327   4.992   0.076  0.00  0.00    +0.232 C 
BRANCH  33  34
ATOM     34  C   LIG    1       -5.442   6.044   0.010  0.00  0.00    +0.027 C 
ATOM     35  C   LIG    1       -5.251   7.298  -0.804  0.00  0.00    +0.007 C 
ATOM     36  C   LIG    1       -6.229   6.228  -1.262  0.00  0.00    +0.007 C 
ENDBRANCH  33  34
ENDBRANCH  32  33
ENDBRANCH  21  32
ENDBRANCH  18  23
ENDBRANCH  17  18
ENDBRANCH   1  17
BRANCH   1  37
ATOM     37  C   LIG    1        1.883  -1.356   0.203  0.00  0.00    +0.060 C 
BRANCH  37  38
ATOM     38  C   LIG    1        3.391  -1.625   0.275  0.00  0.00    +0.028 C 
ATOM     39  C   LIG    1        4.086  -2.183  -0.818  0.00  0.00    +0.093 C 
ATOM     40 CL   LIG    1        3.301  -2.611  -2.300  0.00  0.00    -0.114 Cl
ATOM     41  C   LIG    1        5.461  -2.399  -0.717  0.00  0.00    +0.129 C 
ATOM     42  N   LIG    1        6.112  -2.075   0.416  0.00  0.00    -0.178 NA
ATOM     43  C   LIG    1        5.488  -1.540   1.484  0.00  0.00    +0.129 C 
ATOM     44  C   LIG    1        4.114  -1.302   1.440  0.00  0.00    +0.093 C 
ATOM     45 CL   LIG    1        3.356  -0.610   2.833  0.00  0.00    -0.114 Cl
BRANCH  42  46
ATOM     46  O   LIG    1        7.354  -2.278   0.481  0.00  0.00    -0.312 OA
ATOM     47  H   LIG    1        7.683  -1.999   1.349  0.00  0.00    +0.237 HD
ENDBRANCH  42  46
ENDBRANCH  37  38
ENDBRANCH   1  37
TORSDOF 17
