REMARK  Name = DB12326
REMARK                            x       y       z     vdW  Elec       q    Type
REMARK                         _______ _______ _______ _____ _____    ______ ____
ROOT
ATOM      1  C   LIG    1       -2.555   2.301   0.147  0.00  0.00    +0.034 C 
ENDROOT
BRANCH   1   9
ATOM      2  C   LIG    1       -5.063   4.077   0.054  0.00  0.00    +0.016 C 
ATOM      3  C   LIG    1       -4.510   3.375  -1.212  0.00  0.00    +0.067 C 
ATOM      4  C   LIG    1       -4.848   4.200  -2.487  0.00  0.00    +0.204 C 
ATOM      5  O   LIG    1       -5.665   5.124  -2.493  0.00  0.00    -0.288 OA
ATOM      6  C   LIG    1       -4.120   3.816  -3.706  0.00  0.00    +0.203 C 
ATOM      7  C   LIG    1       -3.057   2.986  -3.686  0.00  0.00    +0.171 C 
ATOM      8  C   LIG    1       -2.498   2.295  -2.443  0.00  0.00    +0.187 C 
ATOM      9  C   LIG    1       -2.980   3.038  -1.154  0.00  0.00    +0.039 C 
BRANCH   6  10
ATOM     10  O   LIG    1       -4.521   4.394  -4.867  0.00  0.00    -0.489 OA
ATOM     11  C   LIG    1       -5.721   3.871  -5.432  0.00  0.00    +0.277 C 
ENDBRANCH   6  10
BRANCH   7  12
ATOM     12  O   LIG    1       -2.405   2.632  -4.819  0.00  0.00    -0.493 OA
ATOM     13  C   LIG    1       -1.223   3.377  -5.084  0.00  0.00    +0.277 C 
ENDBRANCH   7  12
BRANCH   8  14
ATOM     14  O   LIG    1       -2.857   0.926  -2.470  0.00  0.00    -0.384 OA
ATOM     15  H   LIG    1       -2.459   0.524  -3.247  0.00  0.00    +0.210 HD
ENDBRANCH   8  14
ENDBRANCH   1   9
BRANCH   1  16
ATOM     16  C   LIG    1       -1.056   2.068   0.281  0.00  0.00    -0.027 C 
ATOM     17  C   LIG    1       -0.387   0.893   0.296  0.00  0.00    -0.076 C 
ATOM     18  C   LIG    1       -1.037  -0.477   0.143  0.00  0.00    +0.039 C 
BRANCH  17  19
ATOM     19  C   LIG    1        1.131   0.860   0.453  0.00  0.00    +0.034 C 
BRANCH  19  20
ATOM     20  C   LIG    1        1.637   0.253   1.776  0.00  0.00    +0.031 C 
BRANCH  20  21
ATOM     21  C   LIG    1        1.125   0.964   3.020  0.00  0.00    -0.028 C 
ATOM     22  C   LIG    1        1.786   1.843   3.804  0.00  0.00    -0.076 C 
ATOM     23  C   LIG    1        3.204   2.334   3.538  0.00  0.00    +0.039 C 
BRANCH  22  24
ATOM     24  C   LIG    1        1.119   2.454   5.033  0.00  0.00    +0.034 C 
BRANCH  24  25
ATOM     25  C   LIG    1        1.627   1.903   6.379  0.00  0.00    +0.031 C 
BRANCH  25  26
ATOM     26  C   LIG    1        1.274   0.441   6.614  0.00  0.00    -0.028 C 
ATOM     27  C   LIG    1        2.100  -0.627   6.634  0.00  0.00    -0.080 C 
ATOM     28  C   LIG    1        3.603  -0.575   6.394  0.00  0.00    +0.038 C 
ATOM     29  C   LIG    1        1.569  -2.026   6.898  0.00  0.00    +0.038 C 
ENDBRANCH  25  26
ENDBRANCH  24  25
ENDBRANCH  22  24
ENDBRANCH  20  21
ENDBRANCH  19  20
ENDBRANCH  17  19
ENDBRANCH   1  16
TORSDOF 11
