REMARK  Name = DB12885
REMARK                            x       y       z     vdW  Elec       q    Type
REMARK                         _______ _______ _______ _____ _____    ______ ____
ROOT
ATOM      1  N   LIG    1        1.361   0.033   0.067  0.00  0.00    -0.285 N 
ATOM      2  C   LIG    1        2.359   0.731   0.730  0.00  0.00    +0.169 A 
ATOM      3  N   LIG    1        2.288   1.497   1.825  0.00  0.00    -0.198 NA
ATOM      4  C   LIG    1        3.480   2.035   2.202  0.00  0.00    +0.226 A 
ATOM      5 CL   LIG    1        3.466   3.042   3.602  0.00  0.00    -0.041 Cl
ATOM      6  N   LIG    1        4.680   1.858   1.588  0.00  0.00    -0.200 NA
ATOM      7  C   LIG    1        4.725   1.077   0.472  0.00  0.00    +0.151 A 
ATOM      8  C   LIG    1        3.544   0.481  -0.007  0.00  0.00    +0.148 A 
ATOM      9  N   LIG    1        3.290  -0.320  -1.087  0.00  0.00    -0.231 NA
ATOM     10  C   LIG    1        2.002  -0.540  -1.016  0.00  0.00    +0.203 A 
ENDROOT
BRANCH   1  13
ATOM     11  C   LIG    1       -1.811   1.397   0.922  0.00  0.00    +0.237 C 
ATOM     12  O   LIG    1       -0.655   1.198   0.104  0.00  0.00    -0.339 OA
ATOM     13  C   LIG    1       -0.055  -0.034   0.373  0.00  0.00    +0.254 C 
ATOM     14  C   LIG    1       -0.431  -0.369   1.816  0.00  0.00    +0.196 C 
ATOM     15  C   LIG    1       -1.879   0.131   1.806  0.00  0.00    +0.185 C 
BRANCH  11  19
ATOM     16  C   LIG    1       -2.815   4.543   2.902  0.00  0.00    +0.128 C 
ATOM     17  N   LIG    1       -2.765   3.332   2.093  0.00  0.00    -0.316 N 
ATOM     18  H   LIG    1       -3.650   2.970   1.768  0.00  0.00    +0.148 HD
ATOM     19  C   LIG    1       -1.638   2.671   1.777  0.00  0.00    +0.244 C 
ATOM     20  O   LIG    1       -0.519   3.019   2.160  0.00  0.00    -0.273 OA
ENDBRANCH  11  19
BRANCH  14  21
ATOM     21  O   LIG    1       -0.227  -1.745   2.086  0.00  0.00    -0.385 OA
ATOM     22  H   LIG    1        0.713  -1.896   2.207  0.00  0.00    +0.210 HD
ENDBRANCH  14  21
BRANCH  15  23
ATOM     23  O   LIG    1       -2.797  -0.815   1.280  0.00  0.00    -0.386 OA
ATOM     24  H   LIG    1       -2.747  -1.613   1.812  0.00  0.00    +0.210 HD
ENDBRANCH  15  23
ENDBRANCH   1  13
BRANCH   7  25
ATOM     25  N   LIG    1        5.940   0.870  -0.204  0.00  0.00    -0.323 N 
ATOM     26  H   LIG    1        5.958   0.215  -0.973  0.00  0.00    +0.148 HD
BRANCH  25  27
ATOM     27  C   LIG    1        7.213   1.392   0.290  0.00  0.00    +0.138 C 
BRANCH  27  28
ATOM     28  C   LIG    1        7.354   2.884   0.016  0.00  0.00    -0.029 A 
ATOM     29  C   LIG    1        7.452   3.355  -1.299  0.00  0.00    +0.019 A 
ATOM     30  C   LIG    1        7.576   4.722  -1.549  0.00  0.00    +0.014 A 
ATOM     31  I   LIG    1        7.718   5.416  -3.517  0.00  0.00    -0.044 I 
ATOM     32  C   LIG    1        7.606   5.626  -0.486  0.00  0.00    +0.014 A 
ATOM     33  C   LIG    1        7.510   5.162   0.826  0.00  0.00    +0.001 A 
ATOM     34  C   LIG    1        7.386   3.796   1.077  0.00  0.00    +0.005 A 
ENDBRANCH  27  28
ENDBRANCH  25  27
ENDBRANCH   7  25
TORSDOF 7
