REMARK  Name = DB12784
REMARK                            x       y       z     vdW  Elec       q    Type
REMARK                         _______ _______ _______ _____ _____    ______ ____
ROOT
ATOM      1  C   LIG    1        1.377  -0.116   0.031  0.00  0.00    +0.122 A 
ATOM      2  N   LIG    1        1.996   1.034   0.409  0.00  0.00    -0.217 NA
ATOM      3  C   LIG    1        3.316   1.014   0.719  0.00  0.00    +0.127 A 
ATOM      4  C   LIG    1        4.065  -0.169   0.644  0.00  0.00    +0.052 A 
ATOM      5  C   LIG    1        3.438  -1.358   0.250  0.00  0.00    -0.008 A 
ATOM      6  C   LIG    1        2.072  -1.323  -0.058  0.00  0.00    +0.052 A 
ENDROOT
BRANCH   5   7
ATOM      7  C   LIG    1        4.205  -2.638   0.162  0.00  0.00    +0.020 A 
ATOM      8  C   LIG    1        3.720  -3.923  -0.049  0.00  0.00    +0.116 A 
ATOM      9  N   LIG    1        4.807  -4.756  -0.048  0.00  0.00    -0.274 N 
ATOM     10  C   LIG    1        4.831  -6.198  -0.221  0.00  0.00    +0.172 C 
ATOM     11  N   LIG    1        5.955  -4.100   0.148  0.00  0.00    -0.179 NA
ATOM     12  C   LIG    1        5.594  -2.842   0.271  0.00  0.00    +0.142 A 
ENDBRANCH   5   7
BRANCH   1  13
ATOM     13  N   LIG    1        0.006  -0.117  -0.286  0.00  0.00    -0.322 N 
ATOM     14  H   LIG    1       -0.329  -0.905  -0.822  0.00  0.00    +0.148 HD
BRANCH  13  16
ATOM     15  C   LIG    1       -2.256   0.758  -0.788  0.00  0.00    +0.033 C 
ATOM     16  C   LIG    1       -0.837   1.082  -0.287  0.00  0.00    +0.099 C 
BRANCH  16  17
ATOM     17  C   LIG    1       -0.868   1.772   1.082  0.00  0.00    -0.027 A 
ATOM     18  C   LIG    1       -1.373   1.106   2.205  0.00  0.00    +0.008 A 
ATOM     19  C   LIG    1       -1.393   1.742   3.444  0.00  0.00    +0.038 A 
ATOM     20  C   LIG    1       -0.913   3.045   3.560  0.00  0.00    +0.123 A 
ATOM     21  F   LIG    1       -0.932   3.662   4.763  0.00  0.00    -0.205 F 
ATOM     22  C   LIG    1       -0.414   3.717   2.447  0.00  0.00    +0.038 A 
ATOM     23  C   LIG    1       -0.393   3.082   1.208  0.00  0.00    +0.008 A 
ENDBRANCH  16  17
ENDBRANCH  13  16
ENDBRANCH   1  13
BRANCH   3  24
ATOM     24  N   LIG    1        3.831   2.262   1.109  0.00  0.00    -0.283 N 
ATOM     25  H   LIG    1        3.131   2.989   1.089  0.00  0.00    +0.155 HD
BRANCH  24  26
ATOM     26  C   LIG    1        5.088   2.719   1.542  0.00  0.00    +0.142 A 
ATOM     27  N   LIG    1        6.150   1.875   1.656  0.00  0.00    -0.237 NA
ATOM     28  C   LIG    1        7.332   2.391   2.083  0.00  0.00    +0.132 A 
ATOM     29  C   LIG    1        7.459   3.746   2.397  0.00  0.00    +0.130 A 
ATOM     30  N   LIG    1        6.406   4.598   2.287  0.00  0.00    -0.258 NA
ATOM     31  C   LIG    1        5.226   4.075   1.859  0.00  0.00    +0.154 A 
ENDBRANCH  24  26
ENDBRANCH   3  24
TORSDOF 6
