REMARK  Name = DB12767
REMARK                            x       y       z     vdW  Elec       q    Type
REMARK                         _______ _______ _______ _____ _____    ______ ____
ROOT
ATOM      1  C   LIG    1       -1.709   2.406   1.175  0.00  0.00    +0.178 C 
ATOM      2  O   LIG    1       -0.954   1.285   0.699  0.00  0.00    -0.341 OA
ATOM      3  C   LIG    1       -0.472   1.444  -0.613  0.00  0.00    +0.282 C 
ATOM      4  C   LIG    1       -1.654   1.522  -1.598  0.00  0.00    +0.201 C 
ATOM      5  C   LIG    1       -2.639   2.637  -1.164  0.00  0.00    +0.179 C 
ATOM      6  C   LIG    1       -3.003   2.523   0.334  0.00  0.00    +0.177 C 
ENDROOT
BRANCH   4   7
ATOM      7  O   LIG    1       -1.196   1.721  -2.925  0.00  0.00    -0.384 OA
ATOM      8  H   LIG    1       -1.019   2.656  -3.052  0.00  0.00    +0.210 HD
ENDBRANCH   4   7
BRANCH   5   9
ATOM      9  O   LIG    1       -3.789   2.694  -1.992  0.00  0.00    -0.386 OA
ATOM     10  H   LIG    1       -3.828   3.558  -2.408  0.00  0.00    +0.210 HD
ENDBRANCH   5   9
BRANCH   6  11
ATOM     11  O   LIG    1       -3.900   1.452   0.591  0.00  0.00    -0.386 OA
ATOM     12  H   LIG    1       -3.518   0.644   0.239  0.00  0.00    +0.210 HD
ENDBRANCH   6  11
BRANCH   1  13
ATOM     13  C   LIG    1       -1.969   2.240   2.687  0.00  0.00    +0.190 C 
BRANCH  13  14
ATOM     14  O   LIG    1       -0.757   2.307   3.410  0.00  0.00    -0.392 OA
ATOM     15  H   LIG    1       -0.230   1.535   3.191  0.00  0.00    +0.210 HD
ENDBRANCH  13  14
ENDBRANCH   1  13
BRANCH   3  16
ATOM     16  O   LIG    1        0.285   0.324  -0.967  0.00  0.00    -0.341 OA
BRANCH  16  17
ATOM     17  C   LIG    1        1.547   0.181  -0.313  0.00  0.00    +0.178 C 
BRANCH  17  18
ATOM     18  C   LIG    1        1.727  -1.297   0.136  0.00  0.00    +0.181 C 
BRANCH  18  19
ATOM     19  O   LIG    1        1.772  -2.175  -0.981  0.00  0.00    -0.386 OA
ATOM     20  H   LIG    1        2.449  -1.864  -1.586  0.00  0.00    +0.210 HD
ENDBRANCH  18  19
BRANCH  18  21
ATOM     21  C   LIG    1        0.683  -1.763   1.199  0.00  0.00    +0.208 C 
BRANCH  21  22
ATOM     22  O   LIG    1       -0.623  -1.885   0.661  0.00  0.00    -0.382 OA
ATOM     23  H   LIG    1       -1.237  -2.052   1.380  0.00  0.00    +0.210 HD
ENDBRANCH  21  22
BRANCH  21  24
ATOM     24  C   LIG    1        1.023  -3.095   1.885  0.00  0.00    +0.257 C 
ATOM     25  O   LIG    1        2.172  -3.367   2.230  0.00  0.00    -0.298 OA
ENDBRANCH  21  24
ENDBRANCH  18  21
ENDBRANCH  17  18
BRANCH  17  26
ATOM     26  C   LIG    1        2.638   0.701  -1.277  0.00  0.00    +0.190 C 
BRANCH  26  27
ATOM     27  O   LIG    1        3.910   0.715  -0.661  0.00  0.00    -0.392 OA
ATOM     28  H   LIG    1        4.552   1.046  -1.293  0.00  0.00    +0.210 HD
ENDBRANCH  26  27
ENDBRANCH  17  26
ENDBRANCH  16  17
ENDBRANCH   3  16
TORSDOF 14
