REMARK  Name = DB12452
REMARK                            x       y       z     vdW  Elec       q    Type
REMARK                         _______ _______ _______ _____ _____    ______ ____
ROOT
ATOM      1  C   LIG    1       -0.003   0.026  -0.004  0.00  0.00    +0.000 C 
ENDROOT
BRANCH   1   2
ATOM      2  C   LIG    1       -0.545   1.467   0.019  0.00  0.00    +0.002 C 
BRANCH   2   3
ATOM      3  C   LIG    1       -2.086   1.528   0.039  0.00  0.00    +0.028 C 
BRANCH   3   4
ATOM      4  C   LIG    1       -2.664   2.955   0.025  0.00  0.00    +0.156 C 
BRANCH   4   5
ATOM      5  O   LIG    1       -2.263   3.682   1.168  0.00  0.00    -0.395 OA
ATOM      6  H   LIG    1       -2.629   4.567   1.111  0.00  0.00    +0.209 HD
ENDBRANCH   4   5
ENDBRANCH   3   4
ENDBRANCH   2   3
ENDBRANCH   1   2
BRANCH   1   7
ATOM      7  C   LIG    1        1.535  -0.035  -0.012  0.00  0.00    -0.000 C 
BRANCH   7   8
ATOM      8  C   LIG    1        2.079  -1.475  -0.016  0.00  0.00    -0.000 C 
BRANCH   8   9
ATOM      9  C   LIG    1        3.616  -1.535  -0.010  0.00  0.00    -0.003 C 
ATOM     10  C   LIG    1        4.160  -2.970  -0.003  0.00  0.00    +0.004 C 
ENDBRANCH   8   9
ENDBRANCH   7   8
ENDBRANCH   1   7
TORSDOF 7
