REMARK  Name = DB12641
REMARK                            x       y       z     vdW  Elec       q    Type
REMARK                         _______ _______ _______ _____ _____    ______ ____
ROOT
ATOM      1  C   LIG    1        2.001  -0.675   1.951  0.00  0.00    +0.016 A 
ATOM      2  C   LIG    1        2.644  -1.930   1.851  0.00  0.00    -0.031 A 
ATOM      3  C   LIG    1        2.857  -2.664   3.028  0.00  0.00    +0.005 A 
ATOM      4  C   LIG    1        2.432  -2.184   4.265  0.00  0.00    +0.000 A 
ATOM      5  C   LIG    1        1.792  -0.951   4.349  0.00  0.00    +0.001 A 
ATOM      6  C   LIG    1        1.581  -0.200   3.196  0.00  0.00    +0.015 A 
ENDROOT
BRANCH   2   7
ATOM      7  C   LIG    1        3.145  -2.516   0.518  0.00  0.00    +0.017 C 
ATOM      8  C   LIG    1        4.687  -2.471   0.421  0.00  0.00    -0.011 C 
ATOM      9  C   LIG    1        5.204  -3.039  -0.914  0.00  0.00    -0.082 C 
ATOM     10  N   LIG    1        4.646  -4.457  -1.125  0.00  0.00    +0.379 N 
ATOM     11  H   LIG    1        4.978  -4.819  -2.007  0.00  0.00    -0.086 HD
ATOM     12  H   LIG    1        5.002  -5.066  -0.401  0.00  0.00    -0.086 HD
ATOM     13  C   LIG    1        3.107  -4.495  -1.106  0.00  0.00    -0.082 C 
ATOM     14  C   LIG    1        2.597  -3.936   0.235  0.00  0.00    -0.011 C 
ENDBRANCH   2   7
BRANCH   1  15
ATOM     15  S   LIG    1        1.704   0.364   0.542  0.00  0.00    -0.089 S 
BRANCH  15  20
ATOM     16  C   LIG    1       -4.205  -0.472  -0.575  0.00  0.00    +0.044 C 
ATOM     17  C   LIG    1       -2.725  -0.278  -0.298  0.00  0.00    -0.050 A 
ATOM     18  C   LIG    1       -1.910  -1.378  -0.025  0.00  0.00    +0.004 A 
ATOM     19  C   LIG    1       -0.554  -1.191   0.233  0.00  0.00    +0.015 A 
ATOM     20  C   LIG    1       -0.017   0.098   0.222  0.00  0.00    +0.013 A 
ATOM     21  C   LIG    1       -0.829   1.198  -0.057  0.00  0.00    +0.015 A 
ATOM     22  C   LIG    1       -2.184   1.010  -0.314  0.00  0.00    +0.004 A 
ENDBRANCH  15  20
ENDBRANCH   1  15
TORSDOF 3
