REMARK  Name = DB12141
REMARK                            x       y       z     vdW  Elec       q    Type
REMARK                         _______ _______ _______ _____ _____    ______ ____
ROOT
ATOM      1  N   LIG    1        1.235  -0.248  -0.102  0.00  0.00    -0.297 N 
ATOM      2  H   LIG    1        1.698   0.636   0.055  0.00  0.00    +0.154 HD
ENDROOT
BRANCH   1   6
ATOM      3  C   LIG    1       -2.903  -0.003  -0.047  0.00  0.00    +0.082 A 
ATOM      4  N   LIG    1       -2.197   1.154   0.044  0.00  0.00    -0.240 NA
ATOM      5  C   LIG    1       -0.833   1.098   0.024  0.00  0.00    +0.165 A 
ATOM      6  C   LIG    1       -0.172  -0.148  -0.088  0.00  0.00    +0.156 A 
ATOM      7  N   LIG    1       -0.896  -1.295  -0.173  0.00  0.00    -0.213 NA
ATOM      8  C   LIG    1       -2.254  -1.242  -0.152  0.00  0.00    +0.143 A 
BRANCH   5   9
ATOM      9  C   LIG    1       -0.107   2.421   0.166  0.00  0.00    +0.263 C 
ATOM     10  N   LIG    1       -0.685   3.492  -0.391  0.00  0.00    -0.324 N 
ATOM     11  H   LIG    1       -1.571   3.403  -0.867  0.00  0.00    +0.145 HD
ATOM     12  H   LIG    1       -0.243   4.397  -0.328  0.00  0.00    +0.145 HD
ATOM     13  O   LIG    1        0.966   2.510   0.761  0.00  0.00    -0.269 OA
ENDBRANCH   5   9
BRANCH   3  15
ATOM     14  C   LIG    1       -4.995  -0.080   1.401  0.00  0.00    +0.010 C 
ATOM     15  C   LIG    1       -4.421   0.150  -0.004  0.00  0.00    +0.055 C 
ENDBRANCH   3  15
BRANCH   8  16
ATOM     16  N   LIG    1       -2.995  -2.436  -0.239  0.00  0.00    -0.325 N 
ATOM     17  H   LIG    1       -3.979  -2.377  -0.017  0.00  0.00    +0.148 HD
BRANCH  16  18
ATOM     18  C   LIG    1       -2.362  -3.750  -0.115  0.00  0.00    +0.076 C 
ATOM     19  C   LIG    1       -2.139  -4.078   1.377  0.00  0.00    +0.050 C 
ATOM     20  C   LIG    1       -1.663  -5.534   1.542  0.00  0.00    +0.161 C 
ATOM     21  O   LIG    1       -2.589  -6.424   0.919  0.00  0.00    -0.380 OA
ATOM     22  C   LIG    1       -2.727  -6.226  -0.489  0.00  0.00    +0.161 C 
ATOM     23  C   LIG    1       -3.267  -4.810  -0.772  0.00  0.00    +0.050 C 
ENDBRANCH  16  18
ENDBRANCH   8  16
ENDBRANCH   1   6
BRANCH   1  24
ATOM     24  C   LIG    1        2.120  -1.333  -0.232  0.00  0.00    +0.036 A 
ATOM     25  C   LIG    1        3.401  -1.191   0.300  0.00  0.00    +0.070 A 
ATOM     26  C   LIG    1        4.357  -2.221   0.216  0.00  0.00    +0.143 A 
ATOM     27  C   LIG    1        4.013  -3.426  -0.444  0.00  0.00    +0.072 A 
ATOM     28  C   LIG    1        2.720  -3.553  -0.973  0.00  0.00    +0.028 A 
ATOM     29  C   LIG    1        1.790  -2.523  -0.882  0.00  0.00    +0.025 A 
BRANCH  27  30
ATOM     30  N   LIG    1        4.868  -4.522  -0.590  0.00  0.00    -0.327 N 
ATOM     31  C   LIG    1        6.335  -4.409  -0.556  0.00  0.00    +0.107 C 
ATOM     32  C   LIG    1        7.048  -5.587  -1.250  0.00  0.00    +0.038 C 
ATOM     33  C   LIG    1        6.671  -6.967  -0.656  0.00  0.00    +0.060 C 
ATOM     34  C   LIG    1        5.124  -7.029  -0.603  0.00  0.00    +0.038 C 
ATOM     35  C   LIG    1        4.477  -5.789   0.051  0.00  0.00    +0.107 C 
BRANCH  33  36
ATOM     36  N   LIG    1        7.311  -8.149  -1.271  0.00  0.00    -0.297 NA
ATOM     37  C   LIG    1        8.762  -7.985  -1.478  0.00  0.00    +0.100 C 
ATOM     38  C   LIG    1        9.380  -9.232  -2.154  0.00  0.00    +0.099 C 
ATOM     39  N   LIG    1        9.160 -10.417  -1.321  0.00  0.00    -0.303 NA
ATOM     40  C   LIG    1        9.758 -11.592  -1.946  0.00  0.00    +0.105 C 
ATOM     41  C   LIG    1        7.717 -10.609  -1.153  0.00  0.00    +0.099 C 
ATOM     42  C   LIG    1        7.093  -9.368  -0.470  0.00  0.00    +0.100 C 
ENDBRANCH  33  36
ENDBRANCH  27  30
BRANCH  26  43
ATOM     43  O   LIG    1        5.616  -2.102   0.783  0.00  0.00    -0.493 OA
ATOM     44  C   LIG    1        6.006  -0.890   1.421  0.00  0.00    +0.277 C 
ENDBRANCH  26  43
ENDBRANCH   1  24
TORSDOF 9
