REMARK  Name = DB12929
REMARK                            x       y       z     vdW  Elec       q    Type
REMARK                         _______ _______ _______ _____ _____    ______ ____
ROOT
ATOM      1  C   LIG    1        1.575   0.497   1.091  0.00  0.00    +0.220 A 
ATOM      2  N   LIG    1        2.195   1.092   0.030  0.00  0.00    -0.220 NA
ATOM      3  C   LIG    1        3.505   0.812  -0.188  0.00  0.00    +0.127 A 
ATOM      4  C   LIG    1        4.246  -0.072   0.610  0.00  0.00    +0.055 A 
ATOM      5  C   LIG    1        3.595  -0.652   1.708  0.00  0.00    +0.020 A 
ATOM      6  C   LIG    1        2.249  -0.374   1.948  0.00  0.00    +0.068 A 
ENDROOT
BRANCH   4   7
ATOM      7  C   LIG    1        5.713  -0.339   0.363  0.00  0.00    +0.248 C 
ATOM      8  N   LIG    1        6.159  -0.539  -0.912  0.00  0.00    -0.299 N 
ATOM      9  C   LIG    1        5.328  -1.090  -1.992  0.00  0.00    +0.089 C 
ATOM     10  C   LIG    1        5.125  -2.619  -1.948  0.00  0.00    -0.059 C 
ATOM     11  N   LIG    1        6.430  -3.462  -1.952  0.00  0.00    +0.383 N 
ATOM     12  H   LIG    1        6.983  -3.172  -2.746  0.00  0.00    -0.081 HD
ATOM     13  C   LIG    1        7.310  -3.288  -0.687  0.00  0.00    -0.077 C 
ATOM     14  C   LIG    1        8.217  -2.040  -0.714  0.00  0.00    +0.000 C 
ATOM     15  C   LIG    1        7.590  -0.713  -1.188  0.00  0.00    +0.106 C 
ATOM     16  O   LIG    1        6.470  -0.350   1.337  0.00  0.00    -0.270 OA
BRANCH  11  17
ATOM     17  C   LIG    1        6.092  -4.955  -2.180  0.00  0.00    -0.069 C 
ATOM     18  C   LIG    1        5.470  -5.342  -3.532  0.00  0.00    -0.015 C 
ATOM     19  C   LIG    1        6.344  -6.604  -3.514  0.00  0.00    -0.003 C 
ATOM     20  C   LIG    1        7.259  -5.902  -2.502  0.00  0.00    -0.015 C 
ENDBRANCH  11  17
ENDBRANCH   4   7
BRANCH   1  21
ATOM     21  O   LIG    1        0.240   0.762   1.337  0.00  0.00    -0.438 OA
BRANCH  21  23
ATOM     22  C   LIG    1       -1.166   1.104  -0.577  0.00  0.00    +0.049 A 
ATOM     23  C   LIG    1       -0.488   1.610   0.533  0.00  0.00    +0.131 A 
ATOM     24  C   LIG    1       -0.559   2.969   0.845  0.00  0.00    +0.049 A 
ATOM     25  C   LIG    1       -1.305   3.825   0.039  0.00  0.00    +0.042 A 
ATOM     26  C   LIG    1       -1.978   3.318  -1.071  0.00  0.00    +0.124 A 
ATOM     27  F   LIG    1       -2.703   4.150  -1.853  0.00  0.00    -0.205 F 
ATOM     28  C   LIG    1       -1.912   1.961  -1.382  0.00  0.00    +0.042 A 
ENDBRANCH  21  23
ENDBRANCH   1  21
TORSDOF 4
