REMARK  Name = DB12043
REMARK                            x       y       z     vdW  Elec       q    Type
REMARK                         _______ _______ _______ _____ _____    ______ ____
ROOT
ATOM      1  C   LIG    1        1.471   0.777   0.550  0.00  0.00    +0.015 C 
ATOM      2  C   LIG    1        2.419  -0.437   0.457  0.00  0.00    +0.163 C 
ATOM      3  O   LIG    1        1.978  -1.568   1.200  0.00  0.00    -0.376 OA
ATOM      4  C   LIG    1        2.421  -1.732   2.549  0.00  0.00    +0.124 C 
ATOM      5  C   LIG    1        3.880  -2.235   2.586  0.00  0.00    +0.063 C 
ATOM      6  C   LIG    1        4.631  -1.322   3.567  0.00  0.00    +0.124 C 
ATOM      7  C   LIG    1        3.815  -0.019   3.613  0.00  0.00    +0.046 C 
ATOM      8  C   LIG    1        2.354  -0.497   3.482  0.00  0.00    +0.027 C 
ATOM      9  C   LIG    1        1.293   0.586   3.166  0.00  0.00    +0.007 C 
ATOM     10  C   LIG    1        1.537   1.474   1.928  0.00  0.00    +0.006 C 
ENDROOT
BRANCH   6  11
ATOM     11  O   LIG    1        6.007  -1.176   3.279  0.00  0.00    -0.391 OA
ATOM     12  H   LIG    1        6.443  -0.812   4.053  0.00  0.00    +0.210 HD
ENDBRANCH   6  11
BRANCH   7  13
ATOM     13  C   LIG    1        4.068   0.803   4.868  0.00  0.00    -0.022 C 
ATOM     14  C   LIG    1        4.517   2.074   4.868  0.00  0.00    +0.003 C 
BRANCH  14  15
ATOM     15  C   LIG    1        4.795   2.966   6.076  0.00  0.00    +0.174 C 
BRANCH  15  16
ATOM     16  O   LIG    1        4.564   2.260   7.284  0.00  0.00    -0.384 OA
ATOM     17  H   LIG    1        3.640   2.003   7.313  0.00  0.00    +0.210 HD
ENDBRANCH  15  16
BRANCH  15  18
ATOM     18  C   LIG    1        6.230   3.527   6.084  0.00  0.00    +0.264 C 
BRANCH  18  19
ATOM     19  O   LIG    1        6.345   4.544   7.077  0.00  0.00    -0.486 OA
BRANCH  19  20
ATOM     20  C   LIG    1        7.562   5.171   7.272  0.00  0.00    +0.158 A 
ATOM     21  C   LIG    1        7.625   6.145   8.277  0.00  0.00    +0.165 A 
ATOM     22  F   LIG    1        6.524   6.437   9.009  0.00  0.00    -0.202 F 
ATOM     23  C   LIG    1        8.816   6.824   8.536  0.00  0.00    +0.045 A 
ATOM     24  C   LIG    1        9.960   6.538   7.793  0.00  0.00    +0.041 A 
ATOM     25  C   LIG    1        9.913   5.572   6.789  0.00  0.00    +0.127 A 
ATOM     26  F   LIG    1       11.022   5.295   6.066  0.00  0.00    -0.205 F 
ATOM     27  C   LIG    1        8.723   4.892   6.529  0.00  0.00    +0.087 A 
ENDBRANCH  19  20
ENDBRANCH  18  19
ENDBRANCH  15  18
ENDBRANCH  14  15
ENDBRANCH   7  13
BRANCH   1  28
ATOM     28  C   LIG    1        0.031   0.383   0.122  0.00  0.00    +0.006 C 
BRANCH  28  29
ATOM     29  C   LIG    1       -0.926   1.567  -0.113  0.00  0.00    +0.011 C 
BRANCH  29  30
ATOM     30  C   LIG    1       -2.304   1.111  -0.635  0.00  0.00    +0.120 C 
BRANCH  30  31
ATOM     31  C   LIG    1       -3.269   2.269  -0.902  0.00  0.00    +0.307 C 
ATOM     32  O   LIG    1       -3.738   2.461  -2.025  0.00  0.00    -0.251 OA
BRANCH  31  33
ATOM     33  O   LIG    1       -3.519   3.009   0.206  0.00  0.00    -0.462 OA
BRANCH  33  35
ATOM     34  C   LIG    1       -4.042   5.034   1.368  0.00  0.00    +0.052 C 
ATOM     35  C   LIG    1       -4.403   4.130   0.180  0.00  0.00    +0.170 C 
ATOM     36  C   LIG    1       -5.874   3.674   0.234  0.00  0.00    +0.052 C 
ENDBRANCH  33  35
ENDBRANCH  31  33
ENDBRANCH  30  31
ENDBRANCH  29  30
ENDBRANCH  28  29
ENDBRANCH   1  28
TORSDOF 13
