REMARK  Name = DB12275
REMARK                            x       y       z     vdW  Elec       q    Type
REMARK                         _______ _______ _______ _____ _____    ______ ____
ROOT
ATOM      1  C   LIG    1        1.486  -0.075   0.013  0.00  0.00    -0.009 A 
ATOM      2  C   LIG    1        2.198   0.566  -1.010  0.00  0.00    +0.015 A 
ATOM      3  C   LIG    1        3.614   0.598  -1.020  0.00  0.00    -0.014 A 
ATOM      4  C   LIG    1        4.338   1.240  -2.050  0.00  0.00    +0.058 A 
ATOM      5  C   LIG    1        5.741   1.267  -2.041  0.00  0.00    +0.169 A 
ATOM      6  C   LIG    1        6.444   0.636  -1.007  0.00  0.00    +0.169 A 
ATOM      7  C   LIG    1        5.741  -0.003   0.026  0.00  0.00    +0.058 A 
ATOM      8  C   LIG    1        4.328  -0.034   0.036  0.00  0.00    -0.014 A 
ATOM      9  C   LIG    1        3.602  -0.675   1.066  0.00  0.00    +0.009 A 
ATOM     10  C   LIG    1        2.210  -0.689   1.045  0.00  0.00    +0.007 A 
ENDROOT
BRANCH   1  11
ATOM     11  C   LIG    1       -0.068  -0.072  -0.008  0.00  0.00    +0.138 C 
BRANCH  11  12
ATOM     12  C   LIG    1       -0.593  -0.907  -1.200  0.00  0.00    +0.119 A 
ATOM     13  N   LIG    1       -1.860  -1.252  -1.317  0.00  0.00    -0.157 NA
ATOM     14  N   LIG    1       -1.899  -1.956  -2.450  0.00  0.00    -0.196 N 
ATOM     15  H   LIG    1       -2.758  -2.354  -2.803  0.00  0.00    +0.213 HD
ATOM     16  N   LIG    1       -0.739  -2.110  -3.086  0.00  0.00    -0.163 NA
ATOM     17  C   LIG    1        0.083  -1.461  -2.303  0.00  0.00    +0.162 A 
ENDBRANCH  11  12
BRANCH  11  19
ATOM     18  C   LIG    1       -0.036   2.291   1.117  0.00  0.00    +0.011 C 
ATOM     19  C   LIG    1       -0.602   1.418  -0.032  0.00  0.00    +0.025 C 
ATOM     20  C   LIG    1       -2.143   1.583  -0.069  0.00  0.00    +0.011 C 
ENDBRANCH  11  19
BRANCH  11  21
ATOM     21  O   LIG    1       -0.613  -0.652   1.174  0.00  0.00    -0.377 OA
ATOM     22  H   LIG    1       -0.407  -1.590   1.174  0.00  0.00    +0.211 HD
ENDBRANCH  11  21
ENDBRANCH   1  11
BRANCH   5  23
ATOM     23  O   LIG    1        6.497   1.879  -3.026  0.00  0.00    -0.430 OA
BRANCH  23  24
ATOM     24  C   LIG    1        5.866   2.714  -3.993  0.00  0.00    +0.541 C 
ATOM     25  F   LIG    1        6.791   3.486  -4.561  0.00  0.00    -0.166 F 
ATOM     26  F   LIG    1        5.272   1.987  -4.940  0.00  0.00    -0.166 F 
ENDBRANCH  23  24
ENDBRANCH   5  23
BRANCH   6  27
ATOM     27  O   LIG    1        7.826   0.700  -1.061  0.00  0.00    -0.430 OA
BRANCH  27  28
ATOM     28  C   LIG    1        8.612  -0.080  -0.164  0.00  0.00    +0.541 C 
ATOM     29  F   LIG    1        9.852  -0.163  -0.643  0.00  0.00    -0.166 F 
ATOM     30  F   LIG    1        8.655   0.479   1.046  0.00  0.00    -0.166 F 
ENDBRANCH  27  28
ENDBRANCH   6  27
TORSDOF 8
