REMARK  Name = DB12482
REMARK                            x       y       z     vdW  Elec       q    Type
REMARK                         _______ _______ _______ _____ _____    ______ ____
ROOT
ATOM      1  C   LIG    1        1.829  -0.401   3.136  0.00  0.00    +0.135 A 
ATOM      2  N   LIG    1        1.130  -1.221   3.911  0.00  0.00    -0.220 NA
ATOM      3  C   LIG    1        1.472  -1.137   5.178  0.00  0.00    +0.165 A 
ATOM      4  S   LIG    1        2.730   0.002   5.519  0.00  0.00    -0.060 S 
ATOM      5  C   LIG    1        2.774   0.373   3.821  0.00  0.00    +0.081 A 
ENDROOT
BRANCH   1   8
ATOM      6  N   LIG    1        0.645  -1.166   1.217  0.00  0.00    -0.312 N 
ATOM      7  H   LIG    1        0.212  -1.819   1.855  0.00  0.00    +0.149 HD
ATOM      8  C   LIG    1        1.591  -0.334   1.705  0.00  0.00    +0.263 C 
ATOM      9  O   LIG    1        2.219   0.458   0.999  0.00  0.00    -0.269 OA
BRANCH   6  10
ATOM     10  C   LIG    1        0.210  -1.229  -0.178  0.00  0.00    +0.086 C 
BRANCH  10  11
ATOM     11  C   LIG    1       -0.828  -0.140  -0.542  0.00  0.00    -0.059 C 
BRANCH  11  12
ATOM     12  N   LIG    1       -0.136   1.199  -0.914  0.00  0.00    +0.384 N 
ATOM     13  H   LIG    1        0.668   1.215  -0.301  0.00  0.00    -0.081 HD
BRANCH  12  15
ATOM     14  C   LIG    1        1.733   2.144  -2.333  0.00  0.00    -0.014 C 
ATOM     15  C   LIG    1        0.507   1.211  -2.333  0.00  0.00    -0.074 C 
ATOM     16  C   LIG    1       -0.513   1.533  -3.441  0.00  0.00    -0.014 C 
ENDBRANCH  12  15
BRANCH  12  17
ATOM     17  C   LIG    1       -0.911   2.483  -0.492  0.00  0.00    -0.074 C 
ATOM     18  C   LIG    1       -2.421   2.412  -0.818  0.00  0.00    -0.014 C 
ATOM     19  C   LIG    1       -0.633   2.749   0.999  0.00  0.00    -0.014 C 
ENDBRANCH  12  17
ENDBRANCH  11  12
ENDBRANCH  10  11
ENDBRANCH   6  10
ENDBRANCH   1   8
BRANCH   3  20
ATOM     20  N   LIG    1        0.944  -1.841   6.251  0.00  0.00    -0.261 N 
ATOM     21  H   LIG    1        1.334  -1.623   7.158  0.00  0.00    +0.157 HD
ATOM     22  C   LIG    1       -0.030  -2.779   6.220  0.00  0.00    +0.253 C 
ATOM     23  O   LIG    1       -0.570  -3.132   5.167  0.00  0.00    -0.270 OA
BRANCH  22  24
ATOM     24  C   LIG    1       -0.455  -3.423   7.550  0.00  0.00    +0.082 A 
ATOM     25  C   LIG    1        0.015  -3.073   8.854  0.00  0.00    +0.133 A 
ATOM     26  C   LIG    1       -0.467  -3.759   9.977  0.00  0.00    +0.095 A 
ATOM     27  C   LIG    1       -1.409  -4.790   9.864  0.00  0.00    +0.165 A 
ATOM     28  C   LIG    1       -1.881  -5.145   8.600  0.00  0.00    +0.162 A 
ATOM     29  C   LIG    1       -1.403  -4.462   7.473  0.00  0.00    +0.066 A 
BRANCH  25  30
ATOM     30  O   LIG    1        0.864  -2.151   9.111  0.00  0.00    -0.506 OA
ATOM     31  H   LIG    1        1.233  -1.646   8.413  0.00  0.00    +0.292 HD
ENDBRANCH  25  30
BRANCH  27  32
ATOM     32  O   LIG    1       -1.913  -5.494  10.945  0.00  0.00    -0.491 OA
ATOM     33  C   LIG    1       -1.473  -5.177  12.261  0.00  0.00    +0.277 C 
ENDBRANCH  27  32
BRANCH  28  34
ATOM     34  O   LIG    1       -2.810  -6.171   8.543  0.00  0.00    -0.491 OA
ATOM     35  C   LIG    1       -3.321  -6.593   7.283  0.00  0.00    +0.277 C 
ENDBRANCH  28  34
ENDBRANCH  22  24
ENDBRANCH   3  20
TORSDOF 11
