REMARK  Name = DB12236
REMARK                            x       y       z     vdW  Elec       q    Type
REMARK                         _______ _______ _______ _____ _____    ______ ____
ROOT
ATOM      1  C   LIG    1        1.388  -0.021  -0.248  0.00  0.00    -0.024 A 
ATOM      2  C   LIG    1        1.988  -0.192   1.011  0.00  0.00    +0.044 A 
ATOM      3 CL   LIG    1        1.060  -0.206   2.471  0.00  0.00    -0.083 Cl
ATOM      4  C   LIG    1        3.370  -0.362   1.105  0.00  0.00    +0.020 A 
ATOM      5  C   LIG    1        4.161  -0.363  -0.043  0.00  0.00    +0.008 A 
ATOM      6  C   LIG    1        3.578  -0.195  -1.301  0.00  0.00    -0.016 A 
ATOM      7  C   LIG    1        2.191  -0.033  -1.394  0.00  0.00    +0.011 A 
ENDROOT
BRANCH   6   8
ATOM      8  C   LIG    1        4.447  -0.186  -2.559  0.00  0.00    +0.180 C 
ATOM      9  O   LIG    1        3.977   0.808  -3.471  0.00  0.00    -0.361 OA
ATOM     10  C   LIG    1        4.809   1.024  -4.612  0.00  0.00    +0.175 C 
ATOM     11  C   LIG    1        4.813  -0.272  -5.465  0.00  0.00    +0.176 C 
ATOM     12  C   LIG    1        5.246  -1.492  -4.613  0.00  0.00    +0.177 C 
ATOM     13  C   LIG    1        4.462  -1.562  -3.280  0.00  0.00    +0.179 C 
BRANCH  11  14
ATOM     14  O   LIG    1        5.630  -0.133  -6.616  0.00  0.00    -0.386 OA
ATOM     15  H   LIG    1        6.550  -0.122  -6.341  0.00  0.00    +0.210 HD
ENDBRANCH  11  14
BRANCH  12  16
ATOM     16  O   LIG    1        5.128  -2.702  -5.345  0.00  0.00    -0.386 OA
ATOM     17  H   LIG    1        5.126  -3.433  -4.722  0.00  0.00    +0.210 HD
ENDBRANCH  12  16
BRANCH  13  18
ATOM     18  O   LIG    1        4.967  -2.589  -2.442  0.00  0.00    -0.386 OA
ATOM     19  H   LIG    1        5.694  -2.234  -1.925  0.00  0.00    +0.210 HD
ENDBRANCH  13  18
BRANCH  10  20
ATOM     20  C   LIG    1        4.235   2.231  -5.389  0.00  0.00    +0.190 C 
BRANCH  20  21
ATOM     21  O   LIG    1        4.335   3.416  -4.625  0.00  0.00    -0.392 OA
ATOM     22  H   LIG    1        5.263   3.643  -4.530  0.00  0.00    +0.210 HD
ENDBRANCH  20  21
ENDBRANCH  10  20
ENDBRANCH   6   8
BRANCH   1  23
ATOM     23  C   LIG    1       -0.120   0.160  -0.411  0.00  0.00    +0.071 C 
BRANCH  23  25
ATOM     24  C   LIG    1       -1.178   2.042   0.917  0.00  0.00    +0.007 A 
ATOM     25  C   LIG    1       -0.578   1.605  -0.266  0.00  0.00    -0.043 A 
ATOM     26  C   LIG    1       -0.437   2.485  -1.340  0.00  0.00    +0.007 A 
ATOM     27  C   LIG    1       -0.876   3.801  -1.228  0.00  0.00    +0.046 A 
ATOM     28  C   LIG    1       -1.470   4.249  -0.037  0.00  0.00    +0.121 A 
ATOM     29  C   LIG    1       -1.615   3.359   1.029  0.00  0.00    +0.046 A 
BRANCH  28  30
ATOM     30  O   LIG    1       -1.938   5.534   0.165  0.00  0.00    -0.490 OA
BRANCH  30  31
ATOM     31  C   LIG    1       -1.840   6.487  -0.891  0.00  0.00    +0.257 C 
BRANCH  31  32
ATOM     32  C   LIG    1       -2.429   7.826  -0.427  0.00  0.00    +0.201 C 
BRANCH  32  33
ATOM     33  O   LIG    1       -1.692   8.309   0.688  0.00  0.00    -0.373 OA
BRANCH  33  34
ATOM     34  C   LIG    1       -2.168   9.552   1.176  0.00  0.00    +0.119 C 
ATOM     35  C   LIG    1       -1.182  10.433   1.897  0.00  0.00    +0.034 C 
ATOM     36  C   LIG    1       -1.674  10.813   0.513  0.00  0.00    +0.034 C 
ENDBRANCH  33  34
ENDBRANCH  32  33
ENDBRANCH  31  32
ENDBRANCH  30  31
ENDBRANCH  28  30
ENDBRANCH  23  25
ENDBRANCH   1  23
TORSDOF 13
