REMARK  Name = DB12523
REMARK                            x       y       z     vdW  Elec       q    Type
REMARK                         _______ _______ _______ _____ _____    ______ ____
ROOT
ATOM      1  N   LIG    1       -0.800  -1.148   0.012  0.00  0.00    -0.307 N 
ATOM      2  C   LIG    1       -2.157  -0.887  -0.050  0.00  0.00    +0.070 A 
ATOM      3  C   LIG    1       -3.298  -1.698  -0.027  0.00  0.00    +0.028 A 
ATOM      4  C   LIG    1       -4.532  -1.050  -0.121  0.00  0.00    +0.002 A 
ATOM      5  C   LIG    1       -4.631   0.337  -0.234  0.00  0.00    +0.002 A 
ATOM      6  C   LIG    1       -3.494   1.145  -0.255  0.00  0.00    +0.030 A 
ATOM      7  C   LIG    1       -2.240   0.525  -0.160  0.00  0.00    +0.091 A 
ATOM      8  N   LIG    1       -0.998   1.096  -0.153  0.00  0.00    -0.214 NA
ATOM      9  C   LIG    1       -0.168   0.085  -0.037  0.00  0.00    +0.200 A 
ENDROOT
BRANCH   9  10
ATOM     10  N   LIG    1        1.193   0.187   0.038  0.00  0.00    -0.301 N 
ATOM     11  C   LIG    1        1.853   0.750  -1.153  0.00  0.00    +0.110 C 
ATOM     12  C   LIG    1        3.383   0.540  -1.142  0.00  0.00    +0.041 C 
ATOM     13  C   LIG    1        4.056   1.102   0.129  0.00  0.00    +0.079 C 
ATOM     14  C   LIG    1        3.225   0.772   1.390  0.00  0.00    +0.041 C 
ATOM     15  C   LIG    1        1.711   0.974   1.171  0.00  0.00    +0.110 C 
BRANCH  13  16
ATOM     16  N   LIG    1        5.514   0.903   0.230  0.00  0.00    -0.301 N 
ATOM     17  C   LIG    1        6.297   2.010  -0.329  0.00  0.00    +0.132 C 
BRANCH  16  18
ATOM     18  C   LIG    1        6.108  -0.402   0.383  0.00  0.00    +0.198 A 
ATOM     19  N   LIG    1        7.482  -0.535   0.283  0.00  0.00    -0.295 N 
ATOM     20  H   LIG    1        8.026   0.295   0.106  0.00  0.00    +0.172 HD
ATOM     21  C   LIG    1        8.201  -1.686   0.400  0.00  0.00    +0.253 A 
ATOM     22  O   LIG    1        9.424  -1.728   0.301  0.00  0.00    -0.268 OA
ATOM     23  C   LIG    1        7.356  -2.840   0.654  0.00  0.00    +0.090 A 
ATOM     24  C   LIG    1        6.015  -2.680   0.746  0.00  0.00    +0.119 A 
ATOM     25  N   LIG    1        5.399  -1.466   0.611  0.00  0.00    -0.224 NA
ENDBRANCH  16  18
ENDBRANCH  13  16
ENDBRANCH   9  10
BRANCH   1  26
ATOM     26  C   LIG    1       -0.182  -2.470   0.151  0.00  0.00    +0.160 C 
BRANCH  26  27
ATOM     27  C   LIG    1       -0.412  -3.118   1.511  0.00  0.00    -0.027 A 
ATOM     28  C   LIG    1        0.016  -2.473   2.676  0.00  0.00    +0.008 A 
ATOM     29  C   LIG    1       -0.189  -3.068   3.917  0.00  0.00    +0.038 A 
ATOM     30  C   LIG    1       -0.819  -4.309   3.993  0.00  0.00    +0.123 A 
ATOM     31  F   LIG    1       -1.017  -4.888   5.199  0.00  0.00    -0.205 F 
ATOM     32  C   LIG    1       -1.244  -4.960   2.837  0.00  0.00    +0.038 A 
ATOM     33  C   LIG    1       -1.039  -4.365   1.594  0.00  0.00    +0.008 A 
ENDBRANCH  26  27
ENDBRANCH   1  26
TORSDOF 5
