REMARK  Name = DB12268
REMARK                            x       y       z     vdW  Elec       q    Type
REMARK                         _______ _______ _______ _____ _____    ______ ____
ROOT
ATOM      1  C   LIG    1       -6.897  -1.742  -0.235  0.00  0.00    +0.162 A 
ATOM      2  C   LIG    1       -6.162  -2.600   0.591  0.00  0.00    +0.162 A 
ATOM      3  C   LIG    1       -4.761  -2.521   0.583  0.00  0.00    +0.054 A 
ATOM      4  C   LIG    1       -4.076  -1.622  -0.239  0.00  0.00    -0.023 A 
ATOM      5  C   LIG    1       -2.549  -1.497  -0.154  0.00  0.00    +0.086 C 
ATOM      6  N   LIG    1       -1.963  -0.814  -1.324  0.00  0.00    -0.293 NA
ATOM      7  C   LIG    1       -0.499  -0.730  -1.288  0.00  0.00    +0.105 C 
ATOM      8  C   LIG    1        0.099  -0.115   0.007  0.00  0.00    +0.076 C 
ATOM      9  C   LIG    1       -0.540  -0.753   1.278  0.00  0.00    -0.051 C 
ATOM     10  C   LIG    1       -2.628   0.467  -1.575  0.00  0.00    +0.089 C 
ATOM     11  C   LIG    1       -4.097   0.227  -1.984  0.00  0.00    +0.051 C 
ATOM     12  C   LIG    1       -2.075  -0.877   1.186  0.00  0.00    +0.009 C 
ATOM     13  C   LIG    1       -4.817  -0.757  -1.065  0.00  0.00    -0.038 A 
ATOM     14  C   LIG    1       -6.212  -0.828  -1.050  0.00  0.00    +0.053 A 
ENDROOT
BRANCH   8  15
ATOM     15  N   LIG    1        1.576  -0.079  -0.024  0.00  0.00    -0.298 N 
ATOM     16  C   LIG    1        2.371  -1.178   0.042  0.00  0.00    +0.216 C 
ATOM     17  O   LIG    1        2.040  -2.361   0.101  0.00  0.00    -0.276 OA
ATOM     18  C   LIG    1        3.809  -0.664   0.030  0.00  0.00    +0.103 C 
ATOM     19  C   LIG    1        3.723   0.788  -0.407  0.00  0.00    +0.046 C 
ATOM     20  C   LIG    1        2.302   1.189  -0.050  0.00  0.00    +0.114 C 
BRANCH  19  21
ATOM     21  C   LIG    1        4.805   1.710   0.181  0.00  0.00    +0.218 C 
ATOM     22  F   LIG    1        4.677   2.982  -0.196  0.00  0.00    -0.249 F 
ENDBRANCH  19  21
ENDBRANCH   8  15
BRANCH   9  23
ATOM     23  N   LIG    1       -0.205   0.110   2.508  0.00  0.00    +0.381 N 
ATOM     24  H   LIG    1       -0.594  -0.307   3.342  0.00  0.00    -0.090 HD
ATOM     25  H   LIG    1        0.796   0.184   2.616  0.00  0.00    -0.090 HD
ATOM     26  H   LIG    1       -0.590   1.037   2.397  0.00  0.00    -0.090 HD
ENDBRANCH   9  23
BRANCH   1  28
ATOM     27  C   LIG    1       -9.073  -1.011  -1.022  0.00  0.00    +0.277 C 
ATOM     28  O   LIG    1       -8.276  -1.852  -0.194  0.00  0.00    -0.491 OA
ENDBRANCH   1  28
BRANCH   2  29
ATOM     29  O   LIG    1       -6.878  -3.484   1.380  0.00  0.00    -0.491 OA
ATOM     30  C   LIG    1       -6.180  -4.392   2.226  0.00  0.00    +0.277 C 
ENDBRANCH   2  29
TORSDOF 5
