REMARK  Name = DB12958
REMARK                            x       y       z     vdW  Elec       q    Type
REMARK                         _______ _______ _______ _____ _____    ______ ____
ROOT
ATOM      1  N   LIG    1       -2.116   1.513   0.009  0.00  0.00    -0.307 N 
ATOM      2  C   LIG    1       -2.797   1.461  -1.268  0.00  0.00    +0.140 C 
ATOM      3  N   LIG    1       -2.095   1.219  -2.405  0.00  0.00    -0.287 NA
ATOM      4  H   LIG    1       -1.098   1.087  -2.317  0.00  0.00    +0.124 HD
ATOM      5  C   LIG    1       -2.625   1.140  -3.640  0.00  0.00    +0.077 C 
ATOM      6  C   LIG    1       -3.996   1.317  -3.802  0.00  0.00    +0.017 C 
ATOM      7  C   LIG    1       -4.780   1.573  -2.678  0.00  0.00    +0.020 C 
ATOM      8  C   LIG    1       -4.191   1.636  -1.408  0.00  0.00    +0.081 C 
ATOM      9  S   LIG    1       -5.233   2.031  -0.039  0.00  0.00    -0.111 S 
ATOM     10  C   LIG    1       -4.220   1.679   1.369  0.00  0.00    +0.030 A 
ATOM     11  C   LIG    1       -4.861   1.658   2.612  0.00  0.00    +0.016 A 
ATOM     12  C   LIG    1       -4.146   1.434   3.782  0.00  0.00    +0.001 A 
ATOM     13  C   LIG    1       -2.773   1.241   3.720  0.00  0.00    +0.002 A 
ATOM     14  C   LIG    1       -2.121   1.275   2.489  0.00  0.00    +0.024 A 
ATOM     15  C   LIG    1       -2.819   1.496   1.283  0.00  0.00    +0.045 A 
ENDROOT
BRANCH   1  16
ATOM     16  C   LIG    1       -0.626   1.473  -0.002  0.00  0.00    +0.105 C 
BRANCH  16  17
ATOM     17  C   LIG    1       -0.039   0.045   0.044  0.00  0.00    +0.000 C 
BRANCH  17  18
ATOM     18  C   LIG    1        1.499   0.065   0.105  0.00  0.00    -0.078 C 
BRANCH  18  20
ATOM     19  C   LIG    1        1.736  -2.247   1.241  0.00  0.00    -0.097 C 
ATOM     20  N   LIG    1        2.092  -1.362   0.027  0.00  0.00    +0.376 N 
ATOM     21  H   LIG    1        1.703  -1.804  -0.794  0.00  0.00    -0.083 HD
ATOM     22  C   LIG    1        3.620  -1.315  -0.175  0.00  0.00    -0.097 C 
ENDBRANCH  18  20
ENDBRANCH  17  18
ENDBRANCH  16  17
ENDBRANCH   1  16
TORSDOF 4
