REMARK  Name = DB12961
REMARK                            x       y       z     vdW  Elec       q    Type
REMARK                         _______ _______ _______ _____ _____    ______ ____
ROOT
ATOM      1  C   LIG    1       -3.102   2.507  -1.011  0.00  0.00    -0.000 C 
ATOM      2  C   LIG    1       -2.454   1.364  -0.722  0.00  0.00    -0.000 C 
ENDROOT
BRANCH   1   4
ATOM      3  C   LIG    1       -5.176   3.636  -1.817  0.00  0.00    +0.004 C 
ATOM      4  C   LIG    1       -4.463   2.532  -1.518  0.00  0.00    -0.002 C 
BRANCH   3   5
ATOM      5  C   LIG    1       -4.738   5.091  -1.697  0.00  0.00    +0.137 C 
BRANCH   5   6
ATOM      6  O   LIG    1       -4.966   5.703  -2.950  0.00  0.00    -0.388 OA
ATOM      7  H   LIG    1       -5.905   5.883  -3.030  0.00  0.00    +0.210 HD
ENDBRANCH   5   6
BRANCH   5   8
ATOM      8  C   LIG    1       -5.507   5.877  -0.616  0.00  0.00    +0.036 C 
BRANCH   8   9
ATOM      9  C   LIG    1       -5.197   5.406   0.824  0.00  0.00    +0.014 C 
BRANCH   9  10
ATOM     10  C   LIG    1       -5.914   6.218   1.936  0.00  0.00    +0.120 C 
BRANCH  10  11
ATOM     11  C   LIG    1       -7.457   6.089   1.961  0.00  0.00    +0.305 C 
ATOM     12  O   LIG    1       -8.092   7.066   2.415  0.00  0.00    -0.251 OA
BRANCH  11  13
ATOM     13  O   LIG    1       -7.990   5.023   1.573  0.00  0.00    -0.481 OA
ATOM     14  H   LIG    1       -8.923   4.935   1.585  0.00  0.00    +0.295 HD
ENDBRANCH  11  13
ENDBRANCH  10  11
ENDBRANCH   9  10
ENDBRANCH   8   9
ENDBRANCH   5   8
ENDBRANCH   3   5
ENDBRANCH   1   4
BRANCH   2  15
ATOM     15  C   LIG    1       -1.095   1.333  -0.218  0.00  0.00    -0.002 C 
ATOM     16  C   LIG    1       -0.459   0.189   0.100  0.00  0.00    +0.004 C 
BRANCH  16  17
ATOM     17  C   LIG    1        0.968   0.050   0.618  0.00  0.00    +0.141 C 
BRANCH  17  18
ATOM     18  O   LIG    1        0.908  -0.680   1.827  0.00  0.00    -0.387 OA
ATOM     19  H   LIG    1        1.777  -0.662   2.235  0.00  0.00    +0.210 HD
ENDBRANCH  17  18
BRANCH  17  20
ATOM     20  C   LIG    1        1.755   1.363   0.837  0.00  0.00    +0.062 C 
BRANCH  20  21
ATOM     21  C   LIG    1        3.212   1.158   1.227  0.00  0.00    -0.028 C 
ATOM     22  C   LIG    1        3.785   1.382   2.426  0.00  0.00    -0.031 C 
BRANCH  22  23
ATOM     23  C   LIG    1        3.118   1.878   3.700  0.00  0.00    +0.027 C 
BRANCH  23  24
ATOM     24  C   LIG    1        3.237   0.880   4.864  0.00  0.00    +0.004 C 
BRANCH  24  25
ATOM     25  C   LIG    1        2.588   1.394   6.162  0.00  0.00    +0.000 C 
BRANCH  25  26
ATOM     26  C   LIG    1        2.730   0.407   7.334  0.00  0.00    -0.003 C 
ATOM     27  C   LIG    1        2.079   0.916   8.627  0.00  0.00    +0.004 C 
ENDBRANCH  25  26
ENDBRANCH  24  25
ENDBRANCH  23  24
ENDBRANCH  22  23
ENDBRANCH  20  21
ENDBRANCH  17  20
ENDBRANCH  16  17
ENDBRANCH   2  15
TORSDOF 17
