REMARK  Name = DB12990
REMARK                            x       y       z     vdW  Elec       q    Type
REMARK                         _______ _______ _______ _____ _____    ______ ____
ROOT
ATOM      1  C   LIG    1        0.731   1.358   1.000  0.00  0.00    +0.053 C 
ENDROOT
BRANCH   1   3
ATOM      2  C   LIG    1       -1.402   2.350   2.060  0.00  0.00    -0.027 C 
ATOM      3  C   LIG    1       -0.080   2.367   1.798  0.00  0.00    -0.027 C 
BRANCH   2   4
ATOM      4  C   LIG    1       -2.431   1.313   1.638  0.00  0.00    +0.053 C 
BRANCH   4   6
ATOM      5  C   LIG    1       -3.497   1.512  -0.694  0.00  0.00    -0.027 C 
ATOM      6  C   LIG    1       -3.430   1.829   0.615  0.00  0.00    -0.027 C 
BRANCH   5   7
ATOM      7  C   LIG    1       -2.564   0.596  -1.466  0.00  0.00    +0.053 C 
BRANCH   7   9
ATOM      8  C   LIG    1       -3.428  -1.367  -2.889  0.00  0.00    -0.027 C 
ATOM      9  C   LIG    1       -3.140  -0.788  -1.707  0.00  0.00    -0.027 C 
BRANCH   8  10
ATOM     10  C   LIG    1       -3.245  -0.782  -4.279  0.00  0.00    +0.053 C 
BRANCH  10  12
ATOM     11  C   LIG    1       -5.021  -1.043  -6.123  0.00  0.00    -0.031 C 
ATOM     12  C   LIG    1       -4.564  -0.501  -4.977  0.00  0.00    -0.027 C 
BRANCH  11  14
ATOM     13  C   LIG    1       -4.919  -3.458  -6.937  0.00  0.00    +0.008 C 
ATOM     14  C   LIG    1       -4.316  -2.050  -7.018  0.00  0.00    +0.023 C 
ENDBRANCH  11  14
ENDBRANCH  10  12
ENDBRANCH   8  10
ENDBRANCH   7   9
ENDBRANCH   5   7
ENDBRANCH   4   6
ENDBRANCH   2   4
ENDBRANCH   1   3
BRANCH   1  15
ATOM     15  C   LIG    1        1.759   0.605   1.825  0.00  0.00    -0.027 C 
ATOM     16  C   LIG    1        1.704  -0.684   2.214  0.00  0.00    -0.031 C 
BRANCH  16  17
ATOM     17  C   LIG    1        0.572  -1.669   1.964  0.00  0.00    +0.027 C 
BRANCH  17  18
ATOM     18  C   LIG    1        0.837  -2.680   0.834  0.00  0.00    +0.006 C 
BRANCH  18  19
ATOM     19  C   LIG    1        0.831  -2.051  -0.575  0.00  0.00    +0.028 C 
BRANCH  19  20
ATOM     20  C   LIG    1        1.035  -3.071  -1.705  0.00  0.00    +0.161 C 
BRANCH  20  21
ATOM     21  O   LIG    1        2.314  -3.685  -1.562  0.00  0.00    -0.365 OA
BRANCH  21  22
ATOM     22  C   LIG    1        2.661  -4.670  -2.546  0.00  0.00    +0.226 C 
BRANCH  22  23
ATOM     23  C   LIG    1        3.055  -4.016  -3.905  0.00  0.00    +0.334 C 
ATOM     24  O   LIG    1        2.964  -4.738  -4.925  0.00  0.00    -0.248 OA
BRANCH  23  25
ATOM     25  O   LIG    1        3.450  -2.827  -3.924  0.00  0.00    -0.479 OA
ATOM     26  H   LIG    1        3.497  -2.336  -3.127  0.00  0.00    +0.295 HD
ENDBRANCH  23  25
ENDBRANCH  22  23
BRANCH  22  27
ATOM     27  C   LIG    1        3.807  -5.544  -1.970  0.00  0.00    +0.040 C 
ATOM     28  C   LIG    1        5.105  -4.795  -1.612  0.00  0.00    +0.007 C 
ENDBRANCH  22  27
ENDBRANCH  21  22
ENDBRANCH  20  21
ENDBRANCH  19  20
ENDBRANCH  18  19
ENDBRANCH  17  18
ENDBRANCH  16  17
ENDBRANCH   1  15
TORSDOF 18
