REMARK  Name = DB12204
REMARK                            x       y       z     vdW  Elec       q    Type
REMARK                         _______ _______ _______ _____ _____    ______ ____
ROOT
ATOM      1  C   LIG    1        0.741   0.254  -0.739  0.00  0.00    -0.014 A 
ATOM      2  C   LIG    1        0.665   0.828  -2.013  0.00  0.00    +0.009 A 
ATOM      3  C   LIG    1        1.823   1.066  -2.750  0.00  0.00    +0.004 A 
ATOM      4  C   LIG    1        3.067   0.721  -2.224  0.00  0.00    +0.042 A 
ATOM      5  C   LIG    1        3.170   0.133  -0.961  0.00  0.00    +0.101 A 
ATOM      6  C   LIG    1        1.997  -0.086  -0.223  0.00  0.00    +0.050 A 
ENDROOT
BRANCH   1   8
ATOM      7  C   LIG    1       -1.344   0.967   0.411  0.00  0.00    -0.018 C 
ATOM      8  C   LIG    1       -0.487  -0.021   0.051  0.00  0.00    -0.013 C 
BRANCH   8   9
ATOM      9  C   LIG    1       -0.732  -1.446   0.436  0.00  0.00    +0.000 A 
ATOM     10  C   LIG    1       -1.505  -1.793   1.558  0.00  0.00    +0.011 A 
ATOM     11  C   LIG    1       -1.723  -3.133   1.884  0.00  0.00    +0.020 A 
ATOM     12  C   LIG    1       -1.162  -4.114   1.068  0.00  0.00    +0.111 A 
ATOM     13  N   LIG    1       -0.417  -3.822  -0.025  0.00  0.00    -0.263 NA
ATOM     14  C   LIG    1       -0.216  -2.513  -0.323  0.00  0.00    +0.119 A 
ENDBRANCH   8   9
BRANCH   7  15
ATOM     15  C   LIG    1       -1.210   2.463   0.157  0.00  0.00    +0.028 C 
BRANCH  15  16
ATOM     16  C   LIG    1       -1.314   3.295   1.447  0.00  0.00    +0.015 C 
BRANCH  16  17
ATOM     17  C   LIG    1       -1.174   4.818   1.191  0.00  0.00    +0.121 C 
BRANCH  17  18
ATOM     18  C   LIG    1       -1.271   5.711   2.452  0.00  0.00    +0.305 C 
ATOM     19  O   LIG    1       -1.123   6.940   2.266  0.00  0.00    -0.251 OA
BRANCH  18  20
ATOM     20  O   LIG    1       -1.490   5.197   3.574  0.00  0.00    -0.481 OA
ATOM     21  H   LIG    1       -1.592   4.269   3.652  0.00  0.00    +0.295 HD
ENDBRANCH  18  20
ENDBRANCH  17  18
ENDBRANCH  16  17
ENDBRANCH  15  16
ENDBRANCH   7  15
ENDBRANCH   1   8
BRANCH   5  22
ATOM     22  N   LIG    1        4.451  -0.196  -0.485  0.00  0.00    -0.243 N 
ATOM     23  H   LIG    1        5.158   0.464  -0.774  0.00  0.00    +0.265 HD
BRANCH  22  24
ATOM     24  C   LIG    1        4.879  -1.106   0.527  0.00  0.00    +0.403 C 
ATOM     25  N   LIG    1        4.130  -2.071   0.911  0.00  0.00    +0.011 NA
BRANCH  25  26
ATOM     26  C   LIG    1        4.452  -2.951   1.860  0.00  0.00    +0.295 C 
ATOM     27  N   LIG    1        4.751  -3.678   2.709  0.00  0.00    -0.151 NA
ENDBRANCH  25  26
BRANCH  24  28
ATOM     28  N   LIG    1        6.180  -0.806   1.071  0.00  0.00    -0.270 N 
ATOM     29  H   LIG    1        6.529  -1.474   1.744  0.00  0.00    +0.258 HD
BRANCH  28  30
ATOM     30  C   LIG    1        7.281  -0.095   0.395  0.00  0.00    +0.078 C 
ATOM     31  C   LIG    1        7.622  -0.758  -0.962  0.00  0.00    +0.051 C 
ATOM     32  C   LIG    1        6.973   1.414   0.224  0.00  0.00    +0.051 C 
ATOM     33  C   LIG    1        8.489  -0.247   1.346  0.00  0.00    +0.051 C 
ENDBRANCH  28  30
ENDBRANCH  24  28
ENDBRANCH  22  24
ENDBRANCH   5  22
TORSDOF 12
