REMARK  Name = DB12293
REMARK                            x       y       z     vdW  Elec       q    Type
REMARK                         _______ _______ _______ _____ _____    ______ ____
ROOT
ATOM      1  C   LIG    1       -0.016   0.016  -0.019  0.00  0.00    +0.105 C 
ATOM      2  N   LIG    1        1.444  -0.015   0.020  0.00  0.00    -0.299 NA
ATOM      3  C   LIG    1        1.943   0.858   1.091  0.00  0.00    +0.119 C 
ATOM      4  C   LIG    1        3.464   0.821   1.228  0.00  0.00    -0.027 A 
ATOM      5  C   LIG    1        4.152  -0.168   1.973  0.00  0.00    -0.010 A 
ATOM      6  C   LIG    1        3.489  -1.312   2.776  0.00  0.00    +0.179 C 
ATOM      7  O   LIG    1        2.101  -1.532   2.514  0.00  0.00    -0.366 OA
ATOM      8  C   LIG    1        1.729  -2.200   1.310  0.00  0.00    +0.176 C 
ATOM      9  C   LIG    1        5.554  -0.130   1.997  0.00  0.00    +0.007 A 
ATOM     10  C   LIG    1        6.263   0.869   1.334  0.00  0.00    +0.000 A 
ATOM     11  C   LIG    1        5.579   1.853   0.629  0.00  0.00    +0.000 A 
ATOM     12  C   LIG    1        4.189   1.828   0.579  0.00  0.00    +0.005 A 
ATOM     13  C   LIG    1        1.971  -1.389   0.017  0.00  0.00    +0.112 C 
ENDROOT
BRANCH   6  14
ATOM     14  C   LIG    1        3.632  -1.099   4.282  0.00  0.00    -0.014 A 
ATOM     15  C   LIG    1        2.990  -0.020   4.901  0.00  0.00    +0.006 A 
ATOM     16  C   LIG    1        3.111   0.170   6.275  0.00  0.00    +0.000 A 
ATOM     17  C   LIG    1        3.872  -0.721   7.030  0.00  0.00    +0.000 A 
ATOM     18  C   LIG    1        4.508  -1.801   6.424  0.00  0.00    +0.000 A 
ATOM     19  C   LIG    1        4.387  -1.992   5.050  0.00  0.00    +0.006 A 
ENDBRANCH   6  14
TORSDOF 1
