REMARK  Name = DB12858
REMARK                            x       y       z     vdW  Elec       q    Type
REMARK                         _______ _______ _______ _____ _____    ______ ____
ROOT
ATOM      1  N   LIG    1        1.347   0.097   0.155  0.00  0.00    +0.384 N 
ATOM      2  H   LIG    1        1.812   0.477  -0.657  0.00  0.00    -0.085 HD
ATOM      3  H   LIG    1        1.557  -0.891   0.183  0.00  0.00    -0.085 HD
ENDROOT
BRANCH   1   5
ATOM      4  C   LIG    1       -0.488   1.738  -0.344  0.00  0.00    -0.010 C 
ATOM      5  C   LIG    1       -0.180   0.246  -0.069  0.00  0.00    -0.070 C 
ATOM      6  C   LIG    1       -0.935  -0.241   1.193  0.00  0.00    -0.010 C 
BRANCH   5   7
ATOM      7  C   LIG    1       -0.550  -0.597  -1.327  0.00  0.00    +0.022 C 
BRANCH   7   8
ATOM      8  C   LIG    1       -0.283  -2.100  -1.234  0.00  0.00    -0.048 A 
ATOM      9  C   LIG    1       -1.273  -2.956  -0.742  0.00  0.00    +0.007 A 
ATOM     10  C   LIG    1       -1.029  -4.324  -0.653  0.00  0.00    +0.046 A 
ATOM     11  C   LIG    1        0.204  -4.836  -1.056  0.00  0.00    +0.130 A 
ATOM     12  C   LIG    1        1.187  -3.988  -1.568  0.00  0.00    +0.046 A 
ATOM     13  C   LIG    1        0.944  -2.621  -1.656  0.00  0.00    +0.007 A 
BRANCH  11  14
ATOM     14  O   LIG    1        0.438  -6.189  -0.975  0.00  0.00    -0.438 OA
BRANCH  14  15
ATOM     15  C   LIG    1        1.088  -6.747   0.113  0.00  0.00    +0.220 A 
ATOM     16  N   LIG    1        1.493  -5.943   1.138  0.00  0.00    -0.220 NA
ATOM     17  C   LIG    1        2.129  -6.516   2.191  0.00  0.00    +0.127 A 
ATOM     18  C   LIG    1        2.391  -7.893   2.282  0.00  0.00    +0.055 A 
ATOM     19  C   LIG    1        1.961  -8.697   1.214  0.00  0.00    +0.020 A 
ATOM     20  C   LIG    1        1.306  -8.124   0.123  0.00  0.00    +0.068 A 
BRANCH  18  21
ATOM     21  C   LIG    1        3.105  -8.508   3.466  0.00  0.00    +0.243 C 
ATOM     22  N   LIG    1        3.449  -7.693   4.470  0.00  0.00    -0.325 N 
ATOM     23  H   LIG    1        3.925  -8.064   5.279  0.00  0.00    +0.145 HD
ATOM     24  H   LIG    1        3.233  -6.708   4.430  0.00  0.00    +0.145 HD
ATOM     25  O   LIG    1        3.358  -9.711   3.509  0.00  0.00    -0.270 OA
ENDBRANCH  18  21
ENDBRANCH  14  15
ENDBRANCH  11  14
ENDBRANCH   7   8
ENDBRANCH   5   7
ENDBRANCH   1   5
BRANCH   1  26
ATOM     26  C   LIG    1        1.978   0.735   1.411  0.00  0.00    -0.047 C 
BRANCH  26  27
ATOM     27  C   LIG    1        3.519   0.624   1.369  0.00  0.00    +0.135 C 
BRANCH  27  28
ATOM     28  O   LIG    1        3.924  -0.733   1.296  0.00  0.00    -0.390 OA
ATOM     29  H   LIG    1        4.884  -0.767   1.287  0.00  0.00    +0.210 HD
ENDBRANCH  27  28
BRANCH  27  30
ATOM     30  C   LIG    1        4.175   1.272   2.602  0.00  0.00    +0.258 C 
BRANCH  30  31
ATOM     31  O   LIG    1        3.846   2.657   2.606  0.00  0.00    -0.489 OA
BRANCH  31  32
ATOM     32  C   LIG    1        4.230   3.437   3.677  0.00  0.00    +0.130 A 
ATOM     33  C   LIG    1        3.728   4.753   3.682  0.00  0.00    +0.049 A 
ATOM     34  C   LIG    1        2.886   5.473   2.807  0.00  0.00    +0.011 A 
ATOM     35  C   LIG    1        2.718   6.776   3.347  0.00  0.00    +0.048 A 
ATOM     36  N   LIG    1        3.451   6.832   4.516  0.00  0.00    -0.354 N 
ATOM     37  H   LIG    1        3.518   7.642   5.115  0.00  0.00    +0.166 HD
ATOM     38  C   LIG    1        1.927   7.745   2.717  0.00  0.00    +0.026 A 
ATOM     39  C   LIG    1        1.302   7.378   1.525  0.00  0.00    +0.002 A 
ATOM     40  C   LIG    1        1.453   6.107   0.976  0.00  0.00    +0.001 A 
ATOM     41  C   LIG    1        2.241   5.144   1.602  0.00  0.00    +0.011 A 
ATOM     42  C   LIG    1        4.075   5.623   4.750  0.00  0.00    +0.051 A 
ATOM     43  C   LIG    1        4.908   5.218   5.799  0.00  0.00    +0.026 A 
ATOM     44  C   LIG    1        5.389   3.909   5.761  0.00  0.00    +0.006 A 
ATOM     45  C   LIG    1        5.061   3.033   4.730  0.00  0.00    +0.046 A 
ENDBRANCH  31  32
ENDBRANCH  30  31
ENDBRANCH  27  30
ENDBRANCH  26  27
ENDBRANCH   1  26
TORSDOF 12
