REMARK  Name = DB12080
REMARK                            x       y       z     vdW  Elec       q    Type
REMARK                         _______ _______ _______ _____ _____    ______ ____
ROOT
ATOM      1  C   LIG    1        1.634   0.255  -0.106  0.00  0.00    -0.077 C 
ENDROOT
BRANCH   1   2
ATOM      2  N   LIG    1        2.215  -1.146  -0.368  0.00  0.00    +0.383 N 
ATOM      3  H   LIG    1        1.968  -1.401  -1.314  0.00  0.00    -0.085 HD
ATOM      4  H   LIG    1        1.772  -1.807   0.254  0.00  0.00    -0.085 HD
BRANCH   2   5
ATOM      5  C   LIG    1        3.748  -1.278  -0.230  0.00  0.00    -0.041 C 
ATOM      6  C   LIG    1        4.167  -1.099   1.247  0.00  0.00    -0.011 C 
BRANCH   5   7
ATOM      7  C   LIG    1        4.208  -2.619  -0.874  0.00  0.00    +0.130 C 
BRANCH   7   8
ATOM      8  C   LIG    1        5.729  -2.673  -1.064  0.00  0.00    -0.020 A 
ATOM      9  C   LIG    1        6.553  -3.382  -0.180  0.00  0.00    +0.009 A 
ATOM     10  C   LIG    1        7.931  -3.405  -0.372  0.00  0.00    +0.046 A 
ATOM     11  C   LIG    1        8.491  -2.719  -1.448  0.00  0.00    +0.117 A 
ATOM     12  C   LIG    1        7.681  -2.010  -2.332  0.00  0.00    +0.046 A 
ATOM     13  C   LIG    1        6.303  -1.986  -2.139  0.00  0.00    +0.009 A 
BRANCH  11  14
ATOM     14  O   LIG    1        9.847  -2.740  -1.637  0.00  0.00    -0.507 OA
ATOM     15  H   LIG    1       10.311  -3.256  -0.974  0.00  0.00    +0.292 HD
ENDBRANCH  11  14
ENDBRANCH   7   8
BRANCH   7  16
ATOM     16  O   LIG    1        3.688  -3.737  -0.169  0.00  0.00    -0.389 OA
ATOM     17  H   LIG    1        2.744  -3.617  -0.045  0.00  0.00    +0.210 HD
ENDBRANCH   7  16
ENDBRANCH   5   7
ENDBRANCH   2   5
ENDBRANCH   1   2
BRANCH   1  18
ATOM     18  C   LIG    1        0.120   0.237  -0.383  0.00  0.00    +0.016 C 
BRANCH  18  25
ATOM     19  C   LIG    1       -1.326   4.671  -2.271  0.00  0.00    +0.047 C 
ATOM     20  C   LIG    1       -1.212   3.745  -1.069  0.00  0.00    -0.008 A 
ATOM     21  C   LIG    1       -1.680   4.153   0.188  0.00  0.00    +0.124 A 
ATOM     22  C   LIG    1       -1.565   3.266   1.271  0.00  0.00    +0.049 A 
ATOM     23  C   LIG    1       -0.995   1.999   1.116  0.00  0.00    -0.044 A 
ATOM     24  C   LIG    1       -0.901   1.084   2.330  0.00  0.00    +0.044 C 
ATOM     25  C   LIG    1       -0.524   1.601  -0.148  0.00  0.00    -0.046 A 
ATOM     26  C   LIG    1       -0.641   2.481  -1.228  0.00  0.00    +0.010 A 
BRANCH  21  27
ATOM     27  O   LIG    1       -2.232   5.418   0.284  0.00  0.00    -0.481 OA
BRANCH  27  28
ATOM     28  C   LIG    1       -2.705   5.895   1.549  0.00  0.00    +0.349 C 
BRANCH  28  29
ATOM     29  C   LIG    1       -3.253   7.333   1.403  0.00  0.00    +0.343 C 
ATOM     30  O   LIG    1       -3.682   7.865   2.452  0.00  0.00    -0.247 OA
BRANCH  29  31
ATOM     31  O   LIG    1       -3.250   7.894   0.282  0.00  0.00    -0.478 OA
ATOM     32  H   LIG    1       -2.915   7.443  -0.467  0.00  0.00    +0.295 HD
ENDBRANCH  29  31
ENDBRANCH  28  29
ENDBRANCH  27  28
ENDBRANCH  21  27
ENDBRANCH  18  25
ENDBRANCH   1  18
TORSDOF 12
