REMARK  Name = DB12227
REMARK                            x       y       z     vdW  Elec       q    Type
REMARK                         _______ _______ _______ _____ _____    ______ ____
ROOT
ATOM      1  C   UNK    1        2.538   0.391  -1.334  0.00  0.00    +0.076 C 
ATOM      2  N   UNK    1        3.903   0.917  -1.580  0.00  0.00    -0.287 NA
ATOM      3  C   UNK    1        3.966   2.392  -1.690  0.00  0.00    +0.100 C 
ATOM      4  C   UNK    1        3.071   3.059  -2.775  0.00  0.00    +0.100 C 
ATOM      5  N   UNK    1        3.325   2.799  -4.206  0.00  0.00    -0.290 NA
ATOM      6  C   UNK    1        2.112   3.004  -5.021  0.00  0.00    +0.100 C 
ATOM      7  C   UNK    1        1.007   1.917  -4.898  0.00  0.00    +0.100 C 
ATOM      8  N   UNK    1        1.341   0.614  -5.498  0.00  0.00    -0.290 NA
ATOM      9  C   UNK    1        0.479  -0.478  -5.019  0.00  0.00    +0.100 C 
ATOM     10  C   UNK    1        0.716  -0.868  -3.538  0.00  0.00    +0.100 C 
ATOM     11  N   UNK    1        2.114  -1.226  -3.226  0.00  0.00    -0.290 NA
ATOM     12  C   UNK    1        2.359  -1.093  -1.779  0.00  0.00    +0.104 C 
ENDROOT
BRANCH   1  13
ATOM     13  C   UNK    1        1.960   0.677   0.081  0.00  0.00    +0.055 C 
BRANCH  13  15
ATOM     14  C   UNK    1       -0.239  -0.446   0.652  0.00  0.00    +0.005 A 
ATOM     15  C   UNK    1        0.437   0.654   0.116  0.00  0.00    -0.046 A 
ATOM     16  C   UNK    1       -0.284   1.729  -0.408  0.00  0.00    +0.005 A 
ATOM     17  C   UNK    1       -1.676   1.710  -0.392  0.00  0.00    +0.023 A 
ATOM     18  C   UNK    1       -2.352   0.617   0.165  0.00  0.00    +0.033 A 
ATOM     19  C   UNK    1       -1.631  -0.468   0.668  0.00  0.00    +0.023 A 
BRANCH  18  20
ATOM     20  N   UNK    1       -3.756   0.520   0.191  0.00  0.00    -0.297 N 
ATOM     21  H   UNK    1       -4.085  -0.426   0.063  0.00  0.00    +0.154 HD
BRANCH  20  22
ATOM     22  C   UNK    1       -4.730   1.426   0.508  0.00  0.00    +0.135 C 
ATOM     23  S   UNK    1       -4.450   2.976   1.100  0.00  0.00    -0.019 S 
BRANCH  22  24
ATOM     24  N   UNK    1       -5.970   0.888   0.304  0.00  0.00    -0.326 N 
ATOM     25  H   UNK    1       -6.023  -0.040  -0.091  0.00  0.00    +0.148 HD
BRANCH  24  26
ATOM     26  C   UNK    1       -7.253   1.560   0.552  0.00  0.00    +0.103 C 
BRANCH  26  27
ATOM     27  C   UNK    1       -7.742   2.428  -0.623  0.00  0.00    +0.019 C 
BRANCH  27  28
ATOM     28  C   UNK    1       -9.142   3.018  -0.379  0.00  0.00    +0.000 C 
BRANCH  28  29
ATOM     29  C   UNK    1       -9.626   3.917  -1.536  0.00  0.00    -0.005 C 
BRANCH  29  30
ATOM     30  C   UNK    1      -11.080   4.435  -1.382  0.00  0.00    +0.036 C 
BRANCH  30  31
ATOM     31  N   UNK    1      -11.559   4.945  -2.753  0.00  0.00    +0.387 N 
ATOM     32  H   UNK    1      -10.973   5.709  -3.058  0.00  0.00    -0.089 HD
ATOM     33  H   UNK    1      -11.508   4.203  -3.435  0.00  0.00    -0.089 HD
ATOM     34  H   UNK    1      -12.515   5.263  -2.688  0.00  0.00    -0.089 HD
ENDBRANCH  30  31
BRANCH  30  35
ATOM     35  C   UNK    1      -11.197   5.600  -0.362  0.00  0.00    +0.290 C 
ATOM     36  O   UNK    1      -11.281   5.269   0.841  0.00  0.00    -0.253 OA
BRANCH  35  37
ATOM     37  O   UNK    1      -11.185   6.791  -0.757  0.00  0.00    -0.482 OA
ATOM     38  H   UNK    1      -11.120   6.980  -1.672  0.00  0.00    +0.295 HD
ENDBRANCH  35  37
ENDBRANCH  30  35
ENDBRANCH  29  30
ENDBRANCH  28  29
ENDBRANCH  27  28
ENDBRANCH  26  27
ENDBRANCH  24  26
ENDBRANCH  22  24
ENDBRANCH  20  22
ENDBRANCH  18  20
ENDBRANCH  13  15
ENDBRANCH   1  13
BRANCH   2  39
ATOM     39  C   UNK    1        4.860   0.428  -0.557  0.00  0.00    +0.205 C 
BRANCH  39  40
ATOM     40  C   UNK    1        6.370   0.541  -0.902  0.00  0.00    +0.319 C 
ATOM     41  O   UNK    1        7.153   0.467   0.072  0.00  0.00    -0.250 OA
BRANCH  40  42
ATOM     42  O   UNK    1        6.748   0.663  -2.091  0.00  0.00    -0.480 OA
ATOM     43  H   UNK    1        6.116   0.713  -2.781  0.00  0.00    +0.295 HD
ENDBRANCH  40  42
ENDBRANCH  39  40
ENDBRANCH   2  39
BRANCH   5  44
ATOM     44  C   UNK    1        4.205   1.674  -4.585  0.00  0.00    +0.205 C 
BRANCH  44  45
ATOM     45  C   UNK    1        4.827   1.767  -6.005  0.00  0.00    +0.319 C 
ATOM     46  O   UNK    1        5.131   0.683  -6.552  0.00  0.00    -0.250 OA
BRANCH  45  47
ATOM     47  O   UNK    1        5.048   2.891  -6.519  0.00  0.00    -0.480 OA
ATOM     48  H   UNK    1        4.799   3.671  -6.065  0.00  0.00    +0.295 HD
ENDBRANCH  45  47
ENDBRANCH  44  45
ENDBRANCH   5  44
BRANCH   8  49
ATOM     49  C   UNK    1        1.478   0.632  -6.972  0.00  0.00    +0.205 C 
BRANCH  49  50
ATOM     50  C   UNK    1        0.178   0.936  -7.761  0.00  0.00    +0.319 C 
ATOM     51  O   UNK    1       -0.044   2.126  -8.080  0.00  0.00    -0.250 OA
BRANCH  50  52
ATOM     52  O   UNK    1       -0.563  -0.028  -8.060  0.00  0.00    -0.480 OA
ATOM     53  H   UNK    1       -0.336  -0.896  -7.789  0.00  0.00    +0.295 HD
ENDBRANCH  50  52
ENDBRANCH  49  50
ENDBRANCH   8  49
BRANCH  11  54
ATOM     54  C   UNK    1        2.390  -2.599  -3.705  0.00  0.00    +0.205 C 
BRANCH  54  55
ATOM     55  C   UNK    1        3.884  -3.026  -3.742  0.00  0.00    +0.319 C 
ATOM     56  O   UNK    1        4.090  -4.257  -3.851  0.00  0.00    -0.250 OA
BRANCH  55  57
ATOM     57  O   UNK    1        4.797  -2.169  -3.693  0.00  0.00    -0.480 OA
ATOM     58  H   UNK    1        4.582  -1.261  -3.612  0.00  0.00    +0.295 HD
ENDBRANCH  55  57
ENDBRANCH  54  55
ENDBRANCH  11  54
TORSDOF 25
