REMARK  Name = DB12518
REMARK                            x       y       z     vdW  Elec       q    Type
REMARK                         _______ _______ _______ _____ _____    ______ ____
ROOT
ATOM      1  C   LIG    1       -0.837   0.507   0.350  0.00  0.00    +0.251 C 
ATOM      2  O   LIG    1       -0.359   1.079   1.331  0.00  0.00    -0.270 OA
ATOM      3  N   LIG    1       -0.096   0.004  -0.655  0.00  0.00    -0.313 N 
ATOM      4  H   LIG    1       -0.579  -0.417  -1.435  0.00  0.00    +0.149 HD
ENDROOT
BRANCH   1   5
ATOM      5  C   LIG    1       -2.342   0.346   0.200  0.00  0.00    +0.122 A 
ATOM      6  C   LIG    1       -2.986  -0.919   0.032  0.00  0.00    +0.151 A 
ATOM      7  C   LIG    1       -4.394  -0.969  -0.080  0.00  0.00    +0.085 A 
ATOM      8  C   LIG    1       -5.143   0.201  -0.013  0.00  0.00    +0.047 A 
ATOM      9  C   LIG    1       -4.527   1.432   0.158  0.00  0.00    +0.085 A 
ATOM     10 CL   LIG    1       -5.511   2.852   0.251  0.00  0.00    -0.080 Cl
ATOM     11 CL   LIG    1       -5.292  -2.447  -0.292  0.00  0.00    -0.080 Cl
ATOM     12  C   LIG    1       -3.134   1.514   0.252  0.00  0.00    +0.154 A 
BRANCH   6  13
ATOM     13  O   LIG    1       -2.334  -2.027  -0.001  0.00  0.00    -0.504 OA
ATOM     14  H   LIG    1       -1.399  -2.023   0.071  0.00  0.00    +0.292 HD
ENDBRANCH   6  13
BRANCH  12  15
ATOM     15  O   LIG    1       -2.562   2.757   0.411  0.00  0.00    -0.493 OA
ATOM     16  C   LIG    1       -2.246   3.416  -0.810  0.00  0.00    +0.277 C 
ENDBRANCH  12  15
ENDBRANCH   1   5
BRANCH   3  17
ATOM     17  C   LIG    1        1.366   0.006  -0.718  0.00  0.00    +0.089 C 
BRANCH  17  18
ATOM     18  C   LIG    1        2.015  -1.309  -0.224  0.00  0.00    -0.051 C 
ATOM     19  C   LIG    1        1.568  -1.775   1.169  0.00  0.00    -0.016 C 
ATOM     20  C   LIG    1        2.621  -2.762   1.662  0.00  0.00    -0.020 C 
ATOM     21  C   LIG    1        3.878  -2.519   0.823  0.00  0.00    -0.078 C 
ATOM     22  N   LIG    1        3.551  -1.317  -0.090  0.00  0.00    +0.382 N 
ATOM     23  H   LIG    1        3.809  -0.472   0.400  0.00  0.00    -0.081 HD
BRANCH  22  24
ATOM     24  C   LIG    1        4.294  -1.339  -1.445  0.00  0.00    -0.082 C 
ATOM     25  C   LIG    1        5.807  -1.179  -1.234  0.00  0.00    -0.017 C 
ENDBRANCH  22  24
ENDBRANCH  17  18
ENDBRANCH   3  17
TORSDOF 6
