REMARK  Name = DB12092
REMARK                            x       y       z     vdW  Elec       q    Type
REMARK                         _______ _______ _______ _____ _____    ______ ____
ROOT
ATOM      1  C   LIG    1        0.112  -0.294  -0.031  0.00  0.00    -0.044 C 
ENDROOT
BRANCH   1   5
ATOM      2  N   LIG    1       -2.126   3.212  -1.578  0.00  0.00    -0.331 N 
ATOM      3  C   LIG    1       -0.660   3.144  -1.732  0.00  0.00    +0.086 C 
ATOM      4  C   LIG    1       -0.092   1.712  -1.630  0.00  0.00    -0.060 C 
ATOM      5  N   LIG    1       -0.429   1.145  -0.235  0.00  0.00    +0.383 N 
ATOM      6  H   LIG    1       -0.032   1.753   0.468  0.00  0.00    -0.082 HD
ATOM      7  C   LIG    1       -1.962   1.167  -0.072  0.00  0.00    -0.060 C 
ATOM      8  C   LIG    1       -2.472   2.615  -0.273  0.00  0.00    +0.086 C 
BRANCH   2  10
ATOM      9  C   LIG    1       -2.829   4.040  -3.769  0.00  0.00    +0.141 A 
ATOM     10  C   LIG    1       -2.949   3.116  -2.704  0.00  0.00    +0.072 A 
ATOM     11  C   LIG    1       -3.903   2.089  -2.809  0.00  0.00    +0.027 A 
ATOM     12  C   LIG    1       -4.709   1.962  -3.937  0.00  0.00    +0.002 A 
ATOM     13  C   LIG    1       -4.579   2.862  -4.986  0.00  0.00    +0.004 A 
ATOM     14  C   LIG    1       -3.650   3.894  -4.903  0.00  0.00    +0.047 A 
BRANCH   9  16
ATOM     15  C   LIG    1       -1.740   6.008  -4.699  0.00  0.00    +0.277 C 
ATOM     16  O   LIG    1       -1.923   5.081  -3.634  0.00  0.00    -0.493 OA
ENDBRANCH   9  16
ENDBRANCH   2  10
ENDBRANCH   1   5
BRANCH   1  17
ATOM     17  C   LIG    1        1.660  -0.362  -0.017  0.00  0.00    +0.135 C 
BRANCH  17  18
ATOM     18  O   LIG    1        2.191   0.565   0.915  0.00  0.00    -0.390 OA
ATOM     19  H   LIG    1        1.964   1.453   0.632  0.00  0.00    +0.210 HD
ENDBRANCH  17  18
BRANCH  17  20
ATOM     20  C   LIG    1        2.162  -1.770   0.357  0.00  0.00    +0.258 C 
BRANCH  20  21
ATOM     21  O   LIG    1        3.568  -1.845   0.132  0.00  0.00    -0.489 OA
BRANCH  21  22
ATOM     22  C   LIG    1        4.253  -3.014   0.416  0.00  0.00    +0.128 A 
ATOM     23  C   LIG    1        5.662  -3.031   0.183  0.00  0.00    +0.024 A 
ATOM     24  C   LIG    1        6.410  -4.219   0.461  0.00  0.00    -0.014 A 
ATOM     25  C   LIG    1        5.738  -5.358   0.963  0.00  0.00    +0.009 A 
ATOM     26  C   LIG    1        4.367  -5.323   1.183  0.00  0.00    +0.004 A 
ATOM     27  C   LIG    1        7.808  -4.232   0.229  0.00  0.00    +0.008 A 
ATOM     28  C   LIG    1        8.451  -3.102  -0.265  0.00  0.00    +0.001 A 
ATOM     29  C   LIG    1        7.732  -1.944  -0.537  0.00  0.00    +0.001 A 
ATOM     30  C   LIG    1        6.358  -1.898  -0.320  0.00  0.00    +0.012 A 
ATOM     31  C   LIG    1        3.636  -4.172   0.914  0.00  0.00    +0.046 A 
ENDBRANCH  21  22
ENDBRANCH  20  21
ENDBRANCH  17  20
ENDBRANCH   1  17
TORSDOF 8
