REMARK  Name = DB12384
REMARK                            x       y       z     vdW  Elec       q    Type
REMARK                         _______ _______ _______ _____ _____    ______ ____
ROOT
ATOM      1  C   LIG    1       -5.532   4.882   0.017  0.00  0.00    +0.000 C 
ATOM      2  C   LIG    1       -5.572   6.397  -0.322  0.00  0.00    +0.000 C 
ATOM      3  O   LIG    1       -6.527   7.028  -0.776  0.00  0.00    +0.000 OA
ATOM      4  O   LIG    1       -4.419   7.114  -0.158  0.00  0.00    +0.000 OA
ATOM      5  C   LIG    1       -3.226   6.559   0.418  0.00  0.00    +0.000 C 
ATOM      6  C   LIG    1       -3.039   5.059   0.185  0.00  0.00    +0.000 A 
ATOM      7  C   LIG    1       -1.659   4.539   0.197  0.00  0.00    +0.000 A 
ATOM      8  O   LIG    1       -0.672   5.260   0.354  0.00  0.00    +0.000 OA
ATOM      9  N   LIG    1       -1.551   3.181   0.026  0.00  0.00    +0.000 N 
ATOM     10  C   LIG    1       -0.277   2.472  -0.001  0.00  0.00    +0.000 C 
ATOM     11  C   LIG    1       -0.710   1.038  -0.169  0.00  0.00    +0.000 A 
ATOM     12  C   LIG    1        0.021  -0.162  -0.230  0.00  0.00    +0.000 A 
ATOM     13  C   LIG    1       -0.738  -1.377  -0.368  0.00  0.00    +0.000 A 
ATOM     14  C   LIG    1       -0.153  -2.672  -0.389  0.00  0.00    +0.000 A 
ATOM     15  C   LIG    1       -0.934  -3.815  -0.537  0.00  0.00    +0.000 A 
ATOM     16  C   LIG    1       -2.314  -3.714  -0.665  0.00  0.00    +0.000 A 
ATOM     17  C   LIG    1       -2.935  -2.470  -0.634  0.00  0.00    +0.000 A 
ATOM     18  C   LIG    1       -2.165  -1.292  -0.480  0.00  0.00    +0.000 A 
ATOM     19  N   LIG    1       -2.827  -0.107  -0.433  0.00  0.00    +0.000 NA
ATOM     20  C   LIG    1       -2.091   1.012  -0.267  0.00  0.00    +0.000 A 
ATOM     21  C   LIG    1       -2.640   2.367  -0.150  0.00  0.00    +0.000 A 
ATOM     22  C   LIG    1       -3.905   2.829  -0.182  0.00  0.00    +0.000 A 
ATOM     23  C   LIG    1       -4.128   4.265  -0.015  0.00  0.00    +0.000 A 
ENDROOT
BRANCH  12  24
ATOM     24 SI   LIG    1        1.934  -0.067  -0.088  0.00  0.00    +0.000 Si
ATOM     25  C   LIG    1        2.656   1.578  -0.689  0.00  0.00    +0.000 C 
ATOM     26  C   LIG    1        2.824  -1.317  -1.200  0.00  0.00    +0.000 C 
BRANCH  24  27
ATOM     27  C   LIG    1        2.493  -0.327   1.720  0.00  0.00    +0.000 C 
ATOM     28  C   LIG    1        4.032  -0.257   1.821  0.00  0.00    +0.000 C 
ATOM     29  C   LIG    1        1.882   0.767   2.621  0.00  0.00    +0.000 C 
ATOM     30  C   LIG    1        2.026  -1.704   2.237  0.00  0.00    +0.000 C 
ENDBRANCH  24  27
ENDBRANCH  12  24
BRANCH   1  32
ATOM     31  C   LIG    1       -5.522   5.241   2.633  0.00  0.00    +0.000 C 
ATOM     32  C   LIG    1       -6.212   4.625   1.398  0.00  0.00    +0.000 C 
ENDBRANCH   1  32
BRANCH   1  33
ATOM     33  O   LIG    1       -6.373   4.224  -0.922  0.00  0.00    +0.000 OA
ATOM     34  H   LIG    1       -6.005   4.347  -1.800  0.00  0.00    +0.000 HD
ENDBRANCH   1  33
BRANCH  15  35
ATOM     35  O   LIG    1       -0.336  -5.047  -0.554  0.00  0.00    +0.000 OA
ATOM     36  H   LIG    1       -0.963  -5.766  -0.659  0.00  0.00    +0.000 HD
ENDBRANCH  15  35
TORSDOF 5
