REMARK  Name = DB12685
REMARK                            x       y       z     vdW  Elec       q    Type
REMARK                         _______ _______ _______ _____ _____    ______ ____
ROOT
ATOM      1  C   LIG    1       -0.000   0.181   0.621  0.00  0.00    +0.109 C 
ENDROOT
BRANCH   1   2
ATOM      2  N   LIG    1        1.441  -0.068   0.721  0.00  0.00    -0.299 N 
ATOM      3  H   LIG    1        1.864   0.153   1.611  0.00  0.00    +0.150 HD
ATOM      4  C   LIG    1        2.248  -0.490  -0.275  0.00  0.00    +0.303 C 
ATOM      5  N   LIG    1        3.592  -0.482  -0.009  0.00  0.00    -0.277 N 
ATOM      6  O   LIG    1        1.781  -0.872  -1.351  0.00  0.00    -0.253 OA
BRANCH   5   7
ATOM      7  C   LIG    1        4.605  -0.900  -1.022  0.00  0.00    +0.106 C 
ATOM      8  C   LIG    1        4.829  -0.032  -2.304  0.00  0.00    +0.135 C 
ATOM      9  C   LIG    1        5.614  -0.783  -3.399  0.00  0.00    +0.033 C 
ATOM     10  C   LIG    1        6.918  -1.397  -2.856  0.00  0.00    +0.003 C 
ATOM     11  C   LIG    1        6.654  -2.336  -1.668  0.00  0.00    +0.002 C 
ATOM     12  C   LIG    1        5.870  -1.655  -0.528  0.00  0.00    +0.025 C 
BRANCH   8  13
ATOM     13  O   LIG    1        3.677   0.560  -2.872  0.00  0.00    -0.390 OA
ATOM     14  H   LIG    1        3.066  -0.139  -3.115  0.00  0.00    +0.210 HD
ENDBRANCH   8  13
ENDBRANCH   5   7
BRANCH   5  15
ATOM     15  C   LIG    1        4.157  -0.130   1.314  0.00  0.00    +0.078 C 
ATOM     16  C   LIG    1        5.233   0.938   1.414  0.00  0.00    +0.024 C 
ATOM     17  C   LIG    1        3.859   1.219   1.953  0.00  0.00    +0.024 C 
ENDBRANCH   5  15
ENDBRANCH   1   2
BRANCH   1  18
ATOM     18  C   LIG    1       -0.353   1.619   0.182  0.00  0.00    +0.060 C 
BRANCH  18  19
ATOM     19  C   LIG    1        0.187   2.020  -1.201  0.00  0.00    +0.230 C 
BRANCH  19  20
ATOM     20  O   LIG    1       -0.296   3.315  -1.545  0.00  0.00    -0.492 OA
BRANCH  20  24
ATOM     21  C   LIG    1        2.215   3.325  -5.852  0.00  0.00    +0.015 A 
ATOM     22  C   LIG    1        1.319   3.917  -4.844  0.00  0.00    +0.002 A 
ATOM     23  C   LIG    1        0.967   3.261  -3.663  0.00  0.00    +0.055 A 
ATOM     24  C   LIG    1        0.107   3.883  -2.739  0.00  0.00    +0.121 A 
ATOM     25  C   LIG    1       -0.386   5.160  -3.027  0.00  0.00    +0.047 A 
ATOM     26  C   LIG    1       -0.037   5.819  -4.207  0.00  0.00    +0.030 A 
ATOM     27  C   LIG    1        0.816   5.198  -5.118  0.00  0.00    +0.049 A 
ATOM     28  N   LIG    1        1.185   5.836  -6.319  0.00  0.00    -0.322 N 
ATOM     29  H   LIG    1        0.819   6.756  -6.511  0.00  0.00    +0.169 HD
ATOM     30  C   LIG    1        2.005   5.336  -7.281  0.00  0.00    +0.249 A 
ATOM     31  O   LIG    1        2.273   5.960  -8.304  0.00  0.00    -0.268 OA
ATOM     32  C   LIG    1        2.521   4.006  -6.980  0.00  0.00    +0.071 A 
ENDBRANCH  20  24
ENDBRANCH  19  20
ENDBRANCH  18  19
ENDBRANCH   1  18
TORSDOF 8
