REMARK  Name = DB12928
REMARK                            x       y       z     vdW  Elec       q    Type
REMARK                         _______ _______ _______ _____ _____    ______ ____
ROOT
ATOM      1  C   LIG    1        3.680  -2.857   1.840  0.00  0.00    +0.139 C 
ENDROOT
BRANCH   1   2
ATOM      2  C   LIG    1        4.918  -2.920   0.953  0.00  0.00    -0.030 A 
ATOM      3  C   LIG    1        6.067  -2.210   1.310  0.00  0.00    +0.006 A 
ATOM      4  C   LIG    1        7.212  -2.298   0.522  0.00  0.00    +0.013 A 
ATOM      5  C   LIG    1        7.221  -3.102  -0.622  0.00  0.00    +0.055 A 
ATOM      6  C   LIG    1        6.071  -3.820  -0.970  0.00  0.00    +0.013 A 
ATOM      7  C   LIG    1        4.926  -3.733  -0.183  0.00  0.00    +0.006 A 
BRANCH   5   8
ATOM      8  C   LIG    1        8.489  -3.189  -1.470  0.00  0.00    +0.417 C 
ATOM      9  F   LIG    1        8.268  -3.760  -2.656  0.00  0.00    -0.166 F 
ATOM     10  F   LIG    1        9.400  -3.914  -0.821  0.00  0.00    -0.166 F 
ATOM     11  F   LIG    1        8.988  -1.970  -1.687  0.00  0.00    -0.166 F 
ENDBRANCH   5   8
ENDBRANCH   1   2
BRANCH   1  13
ATOM     12  C   LIG    1        2.138  -1.324   0.614  0.00  0.00    +0.213 C 
ATOM     13  N   LIG    1        2.891  -1.634   1.685  0.00  0.00    -0.311 N 
ATOM     14  H   LIG    1        2.963  -0.960   2.432  0.00  0.00    +0.149 HD
ATOM     15  O   LIG    1        2.021  -2.061  -0.367  0.00  0.00    -0.276 OA
BRANCH  12  16
ATOM     16  C   LIG    1        1.418   0.033   0.666  0.00  0.00    +0.098 C 
BRANCH  16  17
ATOM     17  C   LIG    1        0.098   0.075  -0.135  0.00  0.00    +0.037 C 
BRANCH  17  18
ATOM     18  C   LIG    1       -0.635   1.419  -0.001  0.00  0.00    +0.160 C 
BRANCH  18  20
ATOM     19  C   LIG    1       -2.590   2.566  -0.708  0.00  0.00    +0.193 C 
ATOM     20  O   LIG    1       -1.826   1.372  -0.773  0.00  0.00    -0.383 OA
ENDBRANCH  18  20
ENDBRANCH  17  18
ENDBRANCH  16  17
ENDBRANCH  12  16
ENDBRANCH   1  13
TORSDOF 7
