REMARK  Name = DB12392
REMARK                            x       y       z     vdW  Elec       q    Type
REMARK                         _______ _______ _______ _____ _____    ______ ____
ROOT
ATOM      1  S   LIG    1        1.899  -0.087   0.060  0.00  0.00    +0.084 S 
ATOM      2  O   LIG    1        2.199   1.341   0.217  0.00  0.00    -0.148 OA
ATOM      3  O   LIG    1        2.521  -0.890  -1.000  0.00  0.00    -0.148 OA
ENDROOT
BRANCH   1   7
ATOM      4  C   LIG    1       -2.639  -0.623  -0.154  0.00  0.00    -0.064 A 
ATOM      5  C   LIG    1       -1.795  -1.600  -0.689  0.00  0.00    +0.004 A 
ATOM      6  C   LIG    1       -0.414  -1.434  -0.631  0.00  0.00    +0.029 A 
ATOM      7  C   LIG    1        0.123  -0.292  -0.033  0.00  0.00    +0.111 A 
ATOM      8  C   LIG    1       -0.717   0.677   0.518  0.00  0.00    +0.029 A 
ATOM      9  C   LIG    1       -2.098   0.509   0.461  0.00  0.00    +0.004 A 
BRANCH   4  10
ATOM     10  C   LIG    1       -4.147  -0.821  -0.195  0.00  0.00    -0.044 C 
BRANCH  10  12
ATOM     11  C   LIG    1       -6.276  -0.946  -1.599  0.00  0.00    -0.096 C 
ATOM     12  N   LIG    1       -4.796  -0.516  -1.564  0.00  0.00    +0.379 N 
ATOM     13  H   LIG    1       -4.309  -1.074  -2.252  0.00  0.00    -0.082 HD
ATOM     14  C   LIG    1       -4.639   0.959  -1.983  0.00  0.00    -0.096 C 
ENDBRANCH  10  12
ENDBRANCH   4  10
ENDBRANCH   1   7
BRANCH   1  15
ATOM     15  N   LIG    1        2.337  -0.834   1.545  0.00  0.00    -0.225 N 
ATOM     16  C   LIG    1        2.102  -0.277   2.781  0.00  0.00    +0.119 A 
ATOM     17  C   LIG    1        2.039  -1.256   3.770  0.00  0.00    -0.006 A 
ATOM     18  C   LIG    1        2.235  -2.462   3.084  0.00  0.00    +0.029 A 
ATOM     19  C   LIG    1        2.400  -2.192   1.736  0.00  0.00    +0.112 A 
BRANCH  17  20
ATOM     20  C   LIG    1        1.811  -1.087   5.192  0.00  0.00    +0.014 C 
ATOM     21  C   LIG    1        1.640   0.084   5.840  0.00  0.00    +0.070 C 
BRANCH  21  22
ATOM     22  C   LIG    1        1.413   0.162   7.265  0.00  0.00    +0.259 C 
ATOM     23  N   LIG    1        1.268   1.426   7.700  0.00  0.00    -0.194 N 
ATOM     24  H   LIG    1        1.262   2.279   7.160  0.00  0.00    +0.183 HD
ATOM     25  O   LIG    1        1.363  -0.830   7.999  0.00  0.00    -0.269 OA
BRANCH  23  26
ATOM     26  O   LIG    1        1.012   1.636   9.060  0.00  0.00    -0.295 OA
ATOM     27  H   LIG    1        0.088   1.899   9.072  0.00  0.00    +0.241 HD
ENDBRANCH  23  26
ENDBRANCH  21  22
ENDBRANCH  17  20
ENDBRANCH   1  15
TORSDOF 7
