REMARK  Name = DB12345
REMARK                            x       y       z     vdW  Elec       q    Type
REMARK                         _______ _______ _______ _____ _____    ______ ____
ROOT
ATOM      1  C   LIG    1        1.468  -0.028   0.177  0.00  0.00    +0.082 A 
ATOM      2  S   LIG    1        2.402  -1.383   0.750  0.00  0.00    -0.080 S 
ATOM      3  C   LIG    1        3.757  -0.321   0.949  0.00  0.00    +0.073 A 
ATOM      4  C   LIG    1        3.393   0.970   0.573  0.00  0.00    +0.086 A 
ATOM      5  N   LIG    1        2.144   1.097   0.162  0.00  0.00    -0.245 NA
ENDROOT
BRANCH   1   9
ATOM      6  N   LIG    1       -2.883  -0.973  -0.115  0.00  0.00    -0.300 N 
ATOM      7  C   LIG    1       -1.963  -1.431  -1.179  0.00  0.00    +0.108 C 
ATOM      8  C   LIG    1       -0.477  -1.456  -0.764  0.00  0.00    +0.029 C 
ATOM      9  C   LIG    1        0.003  -0.091  -0.238  0.00  0.00    +0.048 C 
ATOM     10  C   LIG    1       -0.959   0.368   0.869  0.00  0.00    +0.029 C 
ATOM     11  C   LIG    1       -2.435   0.332   0.419  0.00  0.00    +0.108 C 
BRANCH   6  15
ATOM     12  C   LIG    1       -6.856  -2.125  -0.023  0.00  0.00    -0.011 A 
ATOM     13  C   LIG    1       -5.921  -2.776  -0.831  0.00  0.00    +0.119 A 
ATOM     14  N   LIG    1       -4.617  -2.400  -0.884  0.00  0.00    -0.222 NA
ATOM     15  C   LIG    1       -4.238  -1.332  -0.120  0.00  0.00    +0.218 A 
ATOM     16  N   LIG    1       -5.086  -0.653   0.707  0.00  0.00    -0.222 NA
ATOM     17  C   LIG    1       -6.384  -1.054   0.739  0.00  0.00    +0.119 A 
BRANCH  12  19
ATOM     18  C   LIG    1       -8.551  -3.658   1.084  0.00  0.00    +0.009 C 
ATOM     19  C   LIG    1       -8.309  -2.567   0.032  0.00  0.00    +0.035 C 
ENDBRANCH  12  19
ENDBRANCH   6  15
ENDBRANCH   1   9
BRANCH   4  20
ATOM     20  C   LIG    1        4.234   2.232   0.573  0.00  0.00    +0.285 C 
BRANCH  20  21
ATOM     21  O   LIG    1        5.533   1.935   1.082  0.00  0.00    -0.486 OA
BRANCH  21  22
ATOM     22  C   LIG    1        6.479   2.938   1.163  0.00  0.00    +0.121 A 
ATOM     23  C   LIG    1        6.258   4.268   0.775  0.00  0.00    +0.048 A 
ATOM     24  C   LIG    1        7.276   5.212   0.891  0.00  0.00    +0.031 A 
ATOM     25  C   LIG    1        8.526   4.837   1.397  0.00  0.00    +0.069 A 
ATOM     26  C   LIG    1        8.748   3.512   1.786  0.00  0.00    +0.031 A 
ATOM     27  C   LIG    1        7.728   2.573   1.668  0.00  0.00    +0.048 A 
BRANCH  25  28
ATOM     28  N   LIG    1        9.566   5.786   1.521  0.00  0.00    -0.200 N 
ATOM     29  N   LIG    1        9.690   6.831   0.687  0.00  0.00    -0.039 NA
ATOM     30  N   LIG    1       10.816   7.509   1.115  0.00  0.00    -0.023 NA
ATOM     31  N   LIG    1       11.374   6.864   2.214  0.00  0.00    -0.116 NA
ATOM     32  C   LIG    1       10.599   5.832   2.431  0.00  0.00    +0.250 A 
ENDBRANCH  25  28
ENDBRANCH  21  22
ENDBRANCH  20  21
ENDBRANCH   4  20
TORSDOF 7
