REMARK  Name = DB12170
REMARK                            x       y       z     vdW  Elec       q    Type
REMARK                         _______ _______ _______ _____ _____    ______ ____
ROOT
ATOM      1  N   LIG    1       -0.025   0.015  -0.016  0.00  0.00    -0.213 N 
ATOM      2  C   LIG    1       -0.623  -1.199  -0.226  0.00  0.00    +0.263 C 
ATOM      3  O   LIG    1       -1.847  -1.333  -0.246  0.00  0.00    -0.268 OA
ENDROOT
BRANCH   2   4
ATOM      4  C   LIG    1        0.219  -2.423  -0.534  0.00  0.00    +0.039 A 
ATOM      5  C   LIG    1        1.332  -2.352  -1.385  0.00  0.00    +0.016 A 
ATOM      6  C   LIG    1        2.101  -3.486  -1.655  0.00  0.00    -0.049 A 
ATOM      7  C   LIG    1        3.309  -3.388  -2.568  0.00  0.00    +0.044 C 
ATOM      8  C   LIG    1        1.740  -4.714  -1.097  0.00  0.00    +0.006 A 
ATOM      9  C   LIG    1        0.619  -4.809  -0.270  0.00  0.00    -0.049 A 
ATOM     10  C   LIG    1        0.212  -6.148   0.319  0.00  0.00    +0.044 C 
ATOM     11  C   LIG    1       -0.141  -3.668   0.001  0.00  0.00    +0.016 A 
ENDBRANCH   2   4
BRANCH   1  12
ATOM     12  N   LIG    1        1.242  -0.061   0.610  0.00  0.00    -0.227 N 
ATOM     13  H   LIG    1        1.304  -0.839   1.251  0.00  0.00    +0.173 HD
ATOM     14  C   LIG    1        2.337   0.538   0.088  0.00  0.00    +0.261 C 
ATOM     15  O   LIG    1        2.329   1.301  -0.877  0.00  0.00    -0.269 OA
BRANCH  14  16
ATOM     16  C   LIG    1        3.626   0.235   0.817  0.00  0.00    +0.045 A 
ATOM     17  C   LIG    1        4.537   1.246   1.216  0.00  0.00    +0.006 A 
ATOM     18  C   LIG    1        5.739   0.891   1.863  0.00  0.00    +0.124 A 
ATOM     19  C   LIG    1        6.013  -0.463   2.115  0.00  0.00    +0.046 A 
ATOM     20  C   LIG    1        5.114  -1.451   1.735  0.00  0.00    +0.004 A 
ATOM     21  C   LIG    1        3.933  -1.105   1.093  0.00  0.00    +0.013 A 
BRANCH  17  22
ATOM     22  C   LIG    1        4.253   2.740   0.986  0.00  0.00    +0.036 C 
ATOM     23  C   LIG    1        4.927   3.284  -0.282  0.00  0.00    +0.009 C 
ENDBRANCH  17  22
BRANCH  18  24
ATOM     24  O   LIG    1        6.604   1.912   2.223  0.00  0.00    -0.495 OA
ATOM     25  C   LIG    1        7.833   1.604   2.873  0.00  0.00    +0.277 C 
ENDBRANCH  18  24
ENDBRANCH  14  16
ENDBRANCH   1  12
BRANCH   1  26
ATOM     26  C   LIG    1       -0.727   1.337   0.023  0.00  0.00    +0.103 C 
BRANCH  26  27
ATOM     27  C   LIG    1       -1.318   1.865  -1.356  0.00  0.00    -0.017 C 
ATOM     28  C   LIG    1       -2.695   1.250  -1.718  0.00  0.00    +0.012 C 
ATOM     29  C   LIG    1       -1.502   3.406  -1.289  0.00  0.00    +0.012 C 
ATOM     30  C   LIG    1       -0.362   1.582  -2.544  0.00  0.00    +0.012 C 
ENDBRANCH  26  27
BRANCH  26  31
ATOM     31  C   LIG    1       -1.704   1.462   1.236  0.00  0.00    +0.024 C 
BRANCH  31  33
ATOM     32  C   LIG    1       -2.048   1.394   3.776  0.00  0.00    +0.004 C 
ATOM     33  C   LIG    1       -1.066   1.191   2.614  0.00  0.00    -0.002 C 
ENDBRANCH  31  33
ENDBRANCH  26  31
ENDBRANCH   1  26
TORSDOF 9
