REMARK  Name = DB12687
REMARK                            x       y       z     vdW  Elec       q    Type
REMARK                         _______ _______ _______ _____ _____    ______ ____
ROOT
ATOM      1  C   LIG    1        1.560   0.186  -0.387  0.00  0.00    +0.321 A 
ATOM      2  N   LIG    1        2.065  -1.065  -0.251  0.00  0.00    -0.178 NA
ATOM      3  C   LIG    1        3.408  -1.174  -0.058  0.00  0.00    +0.152 A 
ATOM      4  N   LIG    1        4.013  -2.418   0.165  0.00  0.00    -0.300 N 
ATOM      5  C   LIG    1        5.451  -2.533  -0.192  0.00  0.00    +0.202 C 
ATOM      6  C   LIG    1        6.256  -1.349   0.418  0.00  0.00    +0.235 C 
ATOM      7  N   LIG    1        5.603  -0.176   0.288  0.00  0.00    -0.279 N 
ATOM      8  H   LIG    1        6.132   0.642   0.554  0.00  0.00    +0.155 HD
ATOM      9  O   LIG    1        7.315  -1.470   1.030  0.00  0.00    -0.274 OA
ATOM     10  C   LIG    1        4.232  -0.033   0.031  0.00  0.00    +0.114 A 
ATOM     11  C   LIG    1        3.614   1.221  -0.110  0.00  0.00    +0.146 A 
ATOM     12  N   LIG    1        2.280   1.341  -0.331  0.00  0.00    -0.178 NA
ENDROOT
BRANCH  11  13
ATOM     13  N   LIG    1        4.335   2.414  -0.036  0.00  0.00    -0.341 N 
ATOM     14  H   LIG    1        3.846   3.291  -0.139  0.00  0.00    +0.144 HD
ATOM     15  H   LIG    1        5.331   2.388   0.125  0.00  0.00    +0.144 HD
ENDBRANCH  11  13
BRANCH   1  16
ATOM     16  O   LIG    1        0.193   0.230  -0.592  0.00  0.00    -0.462 OA
BRANCH  16  17
ATOM     17  C   LIG    1       -0.457   1.493  -0.741  0.00  0.00    +0.232 C 
BRANCH  17  18
ATOM     18  C   LIG    1       -1.972   1.286  -0.894  0.00  0.00    +0.041 C 
BRANCH  18  20
ATOM     19  C   LIG    1       -3.882   0.317  -2.303  0.00  0.00    +0.004 C 
ATOM     20  C   LIG    1       -2.365   0.484  -2.149  0.00  0.00    -0.000 C 
ENDBRANCH  18  20
ENDBRANCH  17  18
ENDBRANCH  16  17
ENDBRANCH   1  16
BRANCH   4  21
ATOM     21  C   LIG    1        3.322  -3.709   0.009  0.00  0.00    +0.142 C 
BRANCH  21  22
ATOM     22  C   LIG    1        3.232  -4.172  -1.445  0.00  0.00    -0.030 A 
ATOM     23  C   LIG    1        2.239  -3.656  -2.282  0.00  0.00    +0.007 A 
ATOM     24  C   LIG    1        2.229  -3.954  -3.646  0.00  0.00    -0.064 A 
ATOM     25  C   LIG    1        3.195  -4.818  -4.170  0.00  0.00    +0.002 A 
ATOM     26  C   LIG    1        4.182  -5.349  -3.339  0.00  0.00    +0.001 A 
ATOM     27  C   LIG    1        4.210  -5.015  -1.985  0.00  0.00    +0.005 A 
BRANCH  24  28
ATOM     28  C   LIG    1        1.169  -3.337  -4.544  0.00  0.00    -0.043 C 
BRANCH  28  29
ATOM     29  N   LIG    1        1.629  -2.057  -5.281  0.00  0.00    +0.382 N 
ATOM     30  H   LIG    1        2.420  -2.322  -5.850  0.00  0.00    -0.081 HD
ATOM     31  C   LIG    1        2.036  -0.885  -4.367  0.00  0.00    -0.078 C 
ATOM     32  C   LIG    1        0.724  -0.163  -4.071  0.00  0.00    -0.020 C 
ATOM     33  C   LIG    1       -0.166  -0.386  -5.296  0.00  0.00    -0.020 C 
ATOM     34  C   LIG    1        0.529  -1.442  -6.168  0.00  0.00    -0.078 C 
ENDBRANCH  28  29
ENDBRANCH  24  28
ENDBRANCH  21  22
ENDBRANCH   4  21
TORSDOF 9
