REMARK  Name = DB12668
REMARK                            x       y       z     vdW  Elec       q    Type
REMARK                         _______ _______ _______ _____ _____    ______ ____
ROOT
ATOM      1  N   PHE A  4        2.407  -0.714  -0.469  0.00  0.00    -0.302 N 
ATOM      2  H   PHE A  4        3.088  -1.185   0.109  0.00  0.00    +0.150 HD
ATOM      3  C   GLY A  3        2.588  -0.678  -1.800  0.00  0.00    +0.231 C 
ATOM      4  O   GLY A  3        1.797  -0.152  -2.583  0.00  0.00    -0.274 OA
ENDROOT
BRANCH   1   5
ATOM      5  CA  PHE A  4        1.341  -0.020   0.254  0.00  0.00    +0.163 C 
BRANCH   5   8
ATOM      6  N   MET A  5        1.121   2.246  -0.626  0.00  0.00    -0.301 N 
ATOM      7  H   MET A  5        0.537   1.809  -1.325  0.00  0.00    +0.150 HD
ATOM      8  C   PHE A  4        1.653   1.484   0.344  0.00  0.00    +0.234 C 
ATOM      9  O   PHE A  4        2.388   1.905   1.238  0.00  0.00    -0.274 OA
BRANCH   6  10
ATOM     10  CA  MET A  5        1.309   3.701  -0.781  0.00  0.00    +0.182 C 
BRANCH  10  11
ATOM     11  C   MET A  5        0.262   4.576   0.014  0.00  0.00    +0.325 C 
ATOM     12  O   MET A  5        0.569   5.789   0.093  0.00  0.00    -0.249 OA
BRANCH  11  13
ATOM     13  OXT MET A  5       -0.751   3.997   0.475  0.00  0.00    -0.479 OA
ATOM     14  HXT MET A  5       -0.863   3.076   0.346  0.00  0.00    +0.295 HD
ENDBRANCH  11  13
ENDBRANCH  10  11
BRANCH  10  15
ATOM     15  CB  MET A  5        1.247   4.047  -2.296  0.00  0.00    +0.044 C 
BRANCH  15  16
ATOM     16  CG  MET A  5        2.498   3.581  -3.059  0.00  0.00    +0.071 C 
BRANCH  16  18
ATOM     17  CE  MET A  5        1.405   2.441  -5.337  0.00  0.00    +0.084 C 
ATOM     18  SD  MET A  5        2.463   3.830  -4.851  0.00  0.00    -0.164 S 
ENDBRANCH  16  18
ENDBRANCH  15  16
ENDBRANCH  10  15
ENDBRANCH   6  10
ENDBRANCH   5   8
BRANCH   5  19
ATOM     19  CB  PHE A  4        1.164  -0.658   1.649  0.00  0.00    +0.067 C 
BRANCH  19  20
ATOM     20  CG  PHE A  4        0.647  -2.086   1.624  0.00  0.00    -0.045 A 
ATOM     21  CD2 PHE A  4        1.549  -3.170   1.569  0.00  0.00    +0.004 A 
ATOM     22  CE2 PHE A  4        1.069  -4.468   1.446  0.00  0.00    +0.000 A 
ATOM     23  CZ  PHE A  4       -0.296  -4.702   1.349  0.00  0.00    +0.000 A 
ATOM     24  CE1 PHE A  4       -1.194  -3.642   1.361  0.00  0.00    +0.000 A 
ATOM     25  CD1 PHE A  4       -0.734  -2.337   1.482  0.00  0.00    +0.004 A 
ENDBRANCH  19  20
ENDBRANCH   5  19
ENDBRANCH   1   5
BRANCH   3  26
ATOM     26  CA  GLY A  3        3.876  -1.314  -2.323  0.00  0.00    +0.200 C 
BRANCH  26  27
ATOM     27  N   GLY A  3        4.838  -0.226  -2.464  0.00  0.00    -0.305 N 
ATOM     28  H   GLY A  3        5.324   0.047  -1.623  0.00  0.00    +0.149 HD
ATOM     29  C   GLY A  2        5.018   0.515  -3.572  0.00  0.00    +0.231 C 
ATOM     30  O   GLY A  2        4.487   0.253  -4.650  0.00  0.00    -0.274 OA
BRANCH  29  31
ATOM     31  CA  GLY A  2        5.879   1.778  -3.440  0.00  0.00    +0.200 C 
BRANCH  31  32
ATOM     32  N   GLY A  2        5.514   2.487  -2.213  0.00  0.00    -0.308 N 
ATOM     33  H   GLY A  2        4.657   3.020  -2.254  0.00  0.00    +0.149 HD
ATOM     34  C   TYR A  1        6.195   2.462  -1.056  0.00  0.00    +0.199 C 
ATOM     35  O   TYR A  1        7.265   1.862  -0.911  0.00  0.00    -0.278 OA
BRANCH  34  36
ATOM     36  CA  TYR A  1        5.537   3.275   0.095  0.00  0.00    +0.017 C 
BRANCH  36  37
ATOM     37  N   TYR A  1        5.843   2.565   1.387  0.00  0.00    +0.386 N 
ATOM     38  H1  TYR A  1        6.832   2.362   1.425  0.00  0.00    -0.089 HD
ATOM     39  H2  TYR A  1        5.587   3.166   2.157  0.00  0.00    -0.089 HD
ATOM     40  H3  TYR A  1        5.307   1.710   1.429  0.00  0.00    -0.089 HD
ENDBRANCH  36  37
BRANCH  36  41
ATOM     41  CB  TYR A  1        5.986   4.758   0.137  0.00  0.00    +0.028 C 
BRANCH  41  42
ATOM     42  CG  TYR A  1        5.391   5.617  -0.967  0.00  0.00    -0.048 A 
ATOM     43  CD2 TYR A  1        4.126   6.215  -0.787  0.00  0.00    +0.007 A 
ATOM     44  CE2 TYR A  1        3.545   6.972  -1.822  0.00  0.00    +0.045 A 
ATOM     45  CZ  TYR A  1        4.227   7.135  -3.043  0.00  0.00    +0.117 A 
ATOM     46  CE1 TYR A  1        5.497   6.553  -3.222  0.00  0.00    +0.045 A 
ATOM     47  CD1 TYR A  1        6.080   5.798  -2.185  0.00  0.00    +0.007 A 
BRANCH  45  48
ATOM     48  OH  TYR A  1        3.657   7.852  -4.054  0.00  0.00    -0.507 OA
ATOM     49  HH  TYR A  1        2.782   8.179  -3.834  0.00  0.00    +0.292 HD
ENDBRANCH  45  48
ENDBRANCH  41  42
ENDBRANCH  36  41
ENDBRANCH  34  36
ENDBRANCH  31  32
ENDBRANCH  29  31
ENDBRANCH  26  27
ENDBRANCH   3  26
TORSDOF 19
