REMARK  Name = DB12948
REMARK                            x       y       z     vdW  Elec       q    Type
REMARK                         _______ _______ _______ _____ _____    ______ ____
ROOT
ATOM      1  C   LIG    1       -0.673  -1.127  -0.013  0.00  0.00    +0.017 A 
ATOM      2  C   LIG    1       -0.009   0.110  -0.021  0.00  0.00    +0.042 A 
ATOM      3  C   LIG    1       -0.789   1.281  -0.015  0.00  0.00    +0.062 A 
ATOM      4  C   LIG    1       -2.184   1.218  -0.005  0.00  0.00    +0.159 A 
ATOM      5  C   LIG    1       -2.825  -0.026   0.001  0.00  0.00    +0.158 A 
ATOM      6  C   LIG    1       -2.065  -1.195  -0.003  0.00  0.00    +0.050 A 
ENDROOT
BRANCH   2   7
ATOM      7  C   LIG    1        1.506   0.153  -0.028  0.00  0.00    +0.267 C 
ATOM      8  N   LIG    1        2.072   1.357  -0.244  0.00  0.00    -0.193 N 
ATOM      9  H   LIG    1        1.616   2.238  -0.431  0.00  0.00    +0.183 HD
ATOM     10  O   LIG    1        2.162  -0.878   0.147  0.00  0.00    -0.268 OA
BRANCH   8  11
ATOM     11  O   LIG    1        3.467   1.436  -0.316  0.00  0.00    -0.295 OA
ATOM     12  H   LIG    1        3.632   1.580  -1.251  0.00  0.00    +0.241 HD
ENDBRANCH   8  11
ENDBRANCH   2   7
BRANCH   4  13
ATOM     13  O   LIG    1       -2.907   2.385  -0.001  0.00  0.00    -0.503 OA
ATOM     14  H   LIG    1       -2.356   3.171  -0.009  0.00  0.00    +0.292 HD
ENDBRANCH   4  13
BRANCH   5  15
ATOM     15  O   LIG    1       -4.194  -0.120   0.012  0.00  0.00    -0.503 OA
ATOM     16  H   LIG    1       -4.508  -1.027   0.015  0.00  0.00    +0.292 HD
ENDBRANCH   5  15
TORSDOF 4
