REMARK  Name = DB12138
REMARK                            x       y       z     vdW  Elec       q    Type
REMARK                         _______ _______ _______ _____ _____    ______ ____
ROOT
ATOM      1  C   LIG    1       -0.771   1.432  -0.122  0.00  0.00    -0.017 A 
ATOM      2  C   LIG    1       -2.109   1.316  -0.517  0.00  0.00    +0.006 A 
ATOM      3  C   LIG    1       -2.740   0.074  -0.541  0.00  0.00    +0.000 A 
ATOM      4  C   LIG    1       -2.040  -1.069  -0.162  0.00  0.00    +0.001 A 
ATOM      5  C   LIG    1       -0.712  -0.967   0.245  0.00  0.00    +0.015 A 
ATOM      6  C   LIG    1       -0.070   0.278   0.281  0.00  0.00    +0.017 A 
ENDROOT
BRANCH   1   7
ATOM      7  C   LIG    1       -0.145   2.825  -0.078  0.00  0.00    +0.142 C 
BRANCH   7  11
ATOM      8  N   LIG    1        2.480   3.573  -2.459  0.00  0.00    -0.254 N 
ATOM      9  H   LIG    1        1.885   3.314  -3.232  0.00  0.00    +0.158 HD
ATOM     10  C   LIG    1        1.960   3.530  -1.218  0.00  0.00    +0.305 C 
ATOM     11  N   LIG    1        0.687   3.103  -1.249  0.00  0.00    -0.295 N 
ATOM     12  H   LIG    1        0.225   3.041  -2.144  0.00  0.00    +0.151 HD
ATOM     13  O   LIG    1        2.560   3.821  -0.181  0.00  0.00    -0.252 OA
BRANCH   8  14
ATOM     14  C   LIG    1        3.777   3.951  -2.783  0.00  0.00    +0.130 A 
ATOM     15  C   LIG    1        4.877   4.299  -2.009  0.00  0.00    +0.069 A 
ATOM     16  C   LIG    1        5.936   4.551  -2.893  0.00  0.00    +0.071 A 
ATOM     17  N   LIG    1        5.529   4.377  -4.135  0.00  0.00    -0.169 NA
ATOM     18  N   LIG    1        4.231   4.024  -4.085  0.00  0.00    -0.218 N 
BRANCH  18  19
ATOM     19  C   LIG    1        3.530   3.803  -5.297  0.00  0.00    +0.069 A 
ATOM     20  C   LIG    1        4.137   3.104  -6.350  0.00  0.00    +0.031 A 
ATOM     21  C   LIG    1        3.447   2.892  -7.543  0.00  0.00    +0.049 A 
ATOM     22  C   LIG    1        2.148   3.378  -7.701  0.00  0.00    +0.135 A 
ATOM     23  C   LIG    1        1.536   4.080  -6.656  0.00  0.00    +0.084 A 
ATOM     24 CL   LIG    1       -0.071   4.700  -6.817  0.00  0.00    -0.080 Cl
ATOM     25  C   LIG    1        2.227   4.292  -5.462  0.00  0.00    +0.051 A 
BRANCH  22  26
ATOM     26  O   LIG    1        1.493   3.158  -8.885  0.00  0.00    -0.505 OA
ATOM     27  H   LIG    1        0.615   3.547  -8.902  0.00  0.00    +0.292 HD
ENDBRANCH  22  26
ENDBRANCH  18  19
BRANCH  16  28
ATOM     28  C   LIG    1        7.385   4.967  -2.597  0.00  0.00    +0.006 C 
ATOM     29  C   LIG    1        7.740   6.258  -3.375  0.00  0.00    +0.017 C 
ATOM     30  C   LIG    1        8.348   3.835  -3.025  0.00  0.00    +0.017 C 
ATOM     31  C   LIG    1        7.583   5.241  -1.086  0.00  0.00    +0.017 C 
ENDBRANCH  16  28
ENDBRANCH   8  14
ENDBRANCH   7  11
ENDBRANCH   1   7
BRANCH   6  32
ATOM     32  S   LIG    1        1.639   0.366   0.781  0.00  0.00    -0.088 S 
BRANCH  32  33
ATOM     33  C   LIG    1        1.760  -0.827   2.080  0.00  0.00    +0.029 A 
ATOM     34  C   LIG    1        2.716  -1.835   1.996  0.00  0.00    +0.109 A 
ATOM     35  N   LIG    1        2.789  -2.775   2.993  0.00  0.00    -0.281 N 
ATOM     36  C   LIG    1        3.591  -3.885   3.195  0.00  0.00    +0.170 A 
ATOM     37  N   LIG    1        3.291  -4.444   4.352  0.00  0.00    -0.128 NA
ATOM     38  N   LIG    1        2.255  -3.747   4.949  0.00  0.00    -0.129 NA
ATOM     39  C   LIG    1        1.948  -2.725   4.120  0.00  0.00    +0.161 A 
ATOM     40  C   LIG    1        0.991  -1.698   4.214  0.00  0.00    +0.050 A 
ATOM     41  C   LIG    1        0.909  -0.759   3.184  0.00  0.00    +0.020 A 
BRANCH  36  42
ATOM     42  C   LIG    1        4.651  -4.396   2.269  0.00  0.00    +0.033 A 
ATOM     43  C   LIG    1        5.936  -4.540   2.808  0.00  0.00    +0.013 A 
ATOM     44  C   LIG    1        6.992  -5.001   2.025  0.00  0.00    +0.001 A 
ATOM     45  C   LIG    1        6.773  -5.335   0.691  0.00  0.00    +0.001 A 
ATOM     46  C   LIG    1        5.498  -5.213   0.144  0.00  0.00    +0.015 A 
ATOM     47  C   LIG    1        4.431  -4.747   0.921  0.00  0.00    +0.019 A 
BRANCH  47  48
ATOM     48  S   LIG    1        2.807  -4.680   0.202  0.00  0.00    -0.122 S 
BRANCH  48  49
ATOM     49  C   LIG    1        3.005  -4.281  -1.562  0.00  0.00    +0.102 C 
BRANCH  49  50
ATOM     50  C   LIG    1        1.796  -3.596  -2.215  0.00  0.00    +0.167 C 
BRANCH  50  51
ATOM     51  O   LIG    1        1.630  -2.288  -1.709  0.00  0.00    -0.394 OA
ATOM     52  H   LIG    1        0.862  -1.892  -2.127  0.00  0.00    +0.209 HD
ENDBRANCH  50  51
ENDBRANCH  49  50
ENDBRANCH  48  49
ENDBRANCH  47  48
ENDBRANCH  36  42
ENDBRANCH  32  33
ENDBRANCH   6  32
TORSDOF 13
