REMARK  Name = DB12831
REMARK                            x       y       z     vdW  Elec       q    Type
REMARK                         _______ _______ _______ _____ _____    ______ ____
ROOT
ATOM      1  C   LIG    1       -0.489   1.409  -0.179  0.00  0.00    +0.312 C 
ATOM      2  O   LIG    1       -1.248   1.645  -1.122  0.00  0.00    -0.250 OA
ENDROOT
BRANCH   1   3
ATOM      3  O   LIG    1       -0.039   2.300   0.747  0.00  0.00    -0.426 OA
BRANCH   3   7
ATOM      4  C   LIG    1       -1.217   6.309   0.620  0.00  0.00    +0.059 A 
ATOM      5  C   LIG    1       -0.269   5.822  -0.291  0.00  0.00    +0.018 A 
ATOM      6  C   LIG    1        0.124   4.487  -0.258  0.00  0.00    +0.047 A 
ATOM      7  C   LIG    1       -0.437   3.617   0.680  0.00  0.00    +0.132 A 
ATOM      8  C   LIG    1       -1.376   4.092   1.595  0.00  0.00    +0.047 A 
ATOM      9  C   LIG    1       -1.767   5.427   1.564  0.00  0.00    +0.018 A 
BRANCH   4  10
ATOM     10  C   LIG    1       -1.616   7.755   0.559  0.00  0.00    +0.339 C 
ATOM     11  O   LIG    1       -1.212   8.534  -0.309  0.00  0.00    -0.245 OA
BRANCH  10  12
ATOM     12  O   LIG    1       -2.443   8.125   1.571  0.00  0.00    -0.461 OA
BRANCH  12  13
ATOM     13  C   LIG    1       -2.916   9.461   1.682  0.00  0.00    +0.229 C 
ATOM     14  C   LIG    1       -3.766   9.596   2.949  0.00  0.00    +0.048 C 
ENDBRANCH  12  13
ENDBRANCH  10  12
ENDBRANCH   4  10
ENDBRANCH   3   7
ENDBRANCH   1   3
BRANCH   1  15
ATOM     15  C   LIG    1        0.051  -0.003   0.061  0.00  0.00    +0.121 C 
BRANCH  15  16
ATOM     16  C   LIG    1        1.582  -0.104  -0.088  0.00  0.00    +0.011 C 
BRANCH  16  17
ATOM     17  C   LIG    1        2.105  -1.529   0.164  0.00  0.00    +0.002 C 
BRANCH  17  18
ATOM     18  C   LIG    1        3.639  -1.629   0.077  0.00  0.00    +0.015 C 
BRANCH  18  19
ATOM     19  C   LIG    1        4.155  -3.058   0.331  0.00  0.00    +0.084 C 
BRANCH  19  20
ATOM     20  N   LIG    1        5.623  -3.154   0.289  0.00  0.00    -0.283 NA
ATOM     21  H   LIG    1        6.122  -2.301   0.083  0.00  0.00    +0.125 HD
BRANCH  20  22
ATOM     22  C   LIG    1        6.376  -4.239   0.502  0.00  0.00    +0.167 C 
BRANCH  22  23
ATOM     23  N   LIG    1        7.692  -4.114   0.425  0.00  0.00    -0.297 NA
ATOM     24  H   LIG    1        8.096  -3.341  -0.085  0.00  0.00    +0.121 HD
ATOM     25  H   LIG    1        8.290  -4.790   0.878  0.00  0.00    +0.121 HD
ENDBRANCH  22  23
BRANCH  22  26
ATOM     26  N   LIG    1        5.877  -5.439   0.788  0.00  0.00    -0.297 NA
ATOM     27  H   LIG    1        4.878  -5.564   0.857  0.00  0.00    +0.121 HD
ATOM     28  H   LIG    1        6.498  -6.223   0.925  0.00  0.00    +0.121 HD
ENDBRANCH  22  26
ENDBRANCH  20  22
ENDBRANCH  19  20
ENDBRANCH  18  19
ENDBRANCH  17  18
ENDBRANCH  16  17
ENDBRANCH  15  16
ENDBRANCH   1  15
TORSDOF 14
