REMARK  Name = DB12262
REMARK                            x       y       z     vdW  Elec       q    Type
REMARK                         _______ _______ _______ _____ _____    ______ ____
ROOT
ATOM      1  C   LIG    1        2.578   0.629   0.713  0.00  0.00    -0.080 C 
ENDROOT
BRANCH   1   2
ATOM      2  N   LIG    1        4.056   1.051   0.669  0.00  0.00    +0.384 N 
ATOM      3  H   LIG    1        4.178   1.630  -0.150  0.00  0.00    -0.085 HD
ATOM      4  H   LIG    1        4.630   0.229   0.549  0.00  0.00    -0.085 HD
BRANCH   2   5
ATOM      5  C   LIG    1        4.577   1.855   1.883  0.00  0.00    -0.034 C 
ATOM      6  C   LIG    1        4.601   0.966   3.127  0.00  0.00    -0.017 A 
ATOM      7  C   LIG    1        3.453   0.740   3.897  0.00  0.00    +0.021 A 
ATOM      8  C   LIG    1        3.483  -0.094   5.013  0.00  0.00    +0.019 A 
ATOM      9 BR   LIG    1        1.897  -0.385   6.024  0.00  0.00    -0.050 Br
ATOM     10  C   LIG    1        4.672  -0.714   5.387  0.00  0.00    +0.034 A 
ATOM     11  C   LIG    1        5.834  -0.497   4.651  0.00  0.00    +0.061 A 
ATOM     12 BR   LIG    1        7.452  -1.342   5.201  0.00  0.00    -0.046 Br
ATOM     13  C   LIG    1        5.803   0.339   3.528  0.00  0.00    +0.136 A 
ATOM     14  O   LIG    1        7.019   0.536   2.890  0.00  0.00    -0.491 OA
ATOM     15  C   LIG    1        6.988   1.124   1.586  0.00  0.00    +0.228 C 
ATOM     16  C   LIG    1        6.009   2.314   1.542  0.00  0.00    +0.030 C 
ENDBRANCH   2   5
ENDBRANCH   1   2
BRANCH   1  17
ATOM     17  C   LIG    1        2.176   0.067  -0.660  0.00  0.00    -0.000 C 
BRANCH  17  18
ATOM     18  C   LIG    1        0.699  -0.360  -0.742  0.00  0.00    +0.101 C 
BRANCH  18  19
ATOM     19  N   LIG    1       -0.240   0.733  -0.527  0.00  0.00    -0.330 N 
ATOM     20  H   LIG    1       -0.683   0.709   0.380  0.00  0.00    +0.147 HD
BRANCH  19  25
ATOM     21  C   LIG    1       -2.927   4.603  -1.230  0.00  0.00    +0.034 A 
ATOM     22  C   LIG    1       -2.002   3.627  -1.616  0.00  0.00    +0.059 A 
ATOM     23  N   LIG    1       -1.528   2.572  -0.849  0.00  0.00    -0.342 N 
ATOM     24  H   LIG    1       -1.844   2.428   0.099  0.00  0.00    +0.167 HD
ATOM     25  C   LIG    1       -0.605   1.708  -1.427  0.00  0.00    +0.100 A 
ATOM     26  C   LIG    1       -0.140   1.835  -2.698  0.00  0.00    +0.093 A 
ATOM     27  C   LIG    1       -0.579   2.917  -3.591  0.00  0.00    +0.198 A 
ATOM     28  O   LIG    1       -0.173   3.057  -4.744  0.00  0.00    -0.287 OA
ATOM     29  C   LIG    1       -1.550   3.799  -2.936  0.00  0.00    +0.082 A 
ATOM     30  S   LIG    1       -2.281   5.181  -3.690  0.00  0.00    -0.091 S 
ATOM     31  C   LIG    1       -3.185   5.520  -2.244  0.00  0.00    +0.048 A 
ENDBRANCH  19  25
ENDBRANCH  18  19
ENDBRANCH  17  18
ENDBRANCH   1  17
TORSDOF 6
