REMARK  Name = DB12920
REMARK                            x       y       z     vdW  Elec       q    Type
REMARK                         _______ _______ _______ _____ _____    ______ ____
ROOT
ATOM      1  N   LIG    1        0.671  -0.382   0.011  0.00  0.00    +0.385 N 
ATOM      2  H   LIG    1        1.188   0.358   0.465  0.00  0.00    -0.081 HD
ENDROOT
BRANCH   1   3
ATOM      3  C   LIG    1        1.405  -1.686   0.419  0.00  0.00    -0.068 C 
ATOM      4  C   LIG    1        1.638  -1.915   1.926  0.00  0.00    -0.012 C 
ATOM      5  C   LIG    1        2.967  -2.570   1.526  0.00  0.00    -0.014 C 
ATOM      6  C   LIG    1        2.932  -1.742   0.234  0.00  0.00    -0.012 C 
BRANCH   5   7
ATOM      7  C   LIG    1        4.146  -2.402   2.508  0.00  0.00    +0.011 C 
BRANCH   7   8
ATOM      8  C   LIG    1        5.498  -2.938   1.988  0.00  0.00    +0.074 C 
BRANCH   8   9
ATOM      9  C   LIG    1        6.088  -2.141   0.837  0.00  0.00    +0.108 A 
ATOM     10  N   LIG    1        6.671  -2.744  -0.253  0.00  0.00    -0.342 N 
ATOM     11  H   LIG    1        6.739  -3.745  -0.368  0.00  0.00    +0.167 HD
ATOM     12  C   LIG    1        7.101  -1.745  -1.096  0.00  0.00    +0.066 A 
ATOM     13  C   LIG    1        6.742  -0.556  -0.418  0.00  0.00    +0.089 A 
ATOM     14  C   LIG    1        7.034   0.682  -0.998  0.00  0.00    +0.030 A 
ATOM     15  C   LIG    1        7.676   0.692  -2.236  0.00  0.00    +0.006 A 
ATOM     16  C   LIG    1        8.035  -0.487  -2.913  0.00  0.00    -0.040 A 
ATOM     17  C   LIG    1        7.744  -1.739  -2.336  0.00  0.00    +0.032 A 
ATOM     18  N   LIG    1        6.128  -0.831   0.775  0.00  0.00    -0.232 NA
BRANCH  16  19
ATOM     19  C   LIG    1        8.749  -0.370  -4.286  0.00  0.00    -0.013 C 
ATOM     20  C   LIG    1        7.845   0.395  -5.285  0.00  0.00    +0.015 C 
ATOM     21  C   LIG    1       10.086   0.394  -4.116  0.00  0.00    +0.015 C 
ATOM     22  C   LIG    1        9.081  -1.745  -4.928  0.00  0.00    +0.015 C 
ENDBRANCH  16  19
ENDBRANCH   8   9
ENDBRANCH   7   8
ENDBRANCH   5   7
ENDBRANCH   1   3
BRANCH   1  24
ATOM     23  C   LIG    1        0.244  -1.214  -2.389  0.00  0.00    -0.014 C 
ATOM     24  C   LIG    1        0.696  -0.031  -1.508  0.00  0.00    -0.074 C 
ATOM     25  C   LIG    1        2.063   0.550  -1.911  0.00  0.00    -0.014 C 
ENDBRANCH   1  24
BRANCH   1  26
ATOM     26  C   LIG    1       -0.751  -0.295   0.632  0.00  0.00    -0.043 C 
BRANCH  26  27
ATOM     27  C   LIG    1       -0.993   1.094   1.267  0.00  0.00    +0.136 C 
ATOM     28  O   LIG    1       -0.746   2.113   0.302  0.00  0.00    -0.350 OA
ATOM     29  C   LIG    1       -1.859   2.931   0.117  0.00  0.00    +0.253 C 
ATOM     30  C   LIG    1       -3.059   2.081   0.528  0.00  0.00    +0.195 C 
ATOM     31  C   LIG    1       -2.442   1.340   1.715  0.00  0.00    +0.174 C 
BRANCH  29  32
ATOM     32  N   LIG    1       -1.853   3.506  -1.287  0.00  0.00    -0.286 N 
ATOM     33  C   LIG    1       -2.103   2.844  -2.461  0.00  0.00    +0.167 A 
ATOM     34  N   LIG    1       -2.441   1.546  -2.663  0.00  0.00    -0.216 NA
ATOM     35  C   LIG    1       -2.596   1.271  -3.967  0.00  0.00    +0.225 A 
ATOM     36  N   LIG    1       -2.462   2.082  -5.025  0.00  0.00    -0.219 NA
ATOM     37  C   LIG    1       -2.116   3.378  -4.794  0.00  0.00    +0.147 A 
ATOM     38  C   LIG    1       -1.918   3.791  -3.455  0.00  0.00    +0.147 A 
ATOM     39  N   LIG    1       -1.558   4.974  -2.936  0.00  0.00    -0.231 NA
ATOM     40  C   LIG    1       -1.510   4.760  -1.645  0.00  0.00    +0.203 A 
BRANCH  37  41
ATOM     41  N   LIG    1       -1.965   4.234  -5.883  0.00  0.00    -0.341 N 
ATOM     42  H   LIG    1       -2.120   3.881  -6.816  0.00  0.00    +0.144 HD
ATOM     43  H   LIG    1       -1.710   5.199  -5.724  0.00  0.00    +0.144 HD
ENDBRANCH  37  41
ENDBRANCH  29  32
BRANCH  30  44
ATOM     44  O   LIG    1       -4.183   2.899   0.801  0.00  0.00    -0.385 OA
ATOM     45  H   LIG    1       -4.957   2.338   0.895  0.00  0.00    +0.210 HD
ENDBRANCH  30  44
BRANCH  31  46
ATOM     46  O   LIG    1       -2.496   2.059   2.937  0.00  0.00    -0.387 OA
ATOM     47  H   LIG    1       -3.396   2.368   3.071  0.00  0.00    +0.210 HD
ENDBRANCH  31  46
ENDBRANCH  26  27
ENDBRANCH   1  26
TORSDOF 12
