REMARK  Name = DB12295
REMARK                            x       y       z     vdW  Elec       q    Type
REMARK                         _______ _______ _______ _____ _____    ______ ____
ROOT
ATOM      1  C   LIG    1        1.569   0.022   0.068  0.00  0.00    +0.209 A 
ATOM      2  N   LIG    1        2.208   0.580  -0.973  0.00  0.00    -0.200 NA
ATOM      3  C   LIG    1        3.554   0.516  -0.826  0.00  0.00    +0.169 A 
ATOM      4  N   LIG    1        4.531   0.967  -1.667  0.00  0.00    -0.285 N 
ATOM      5  C   LIG    1        5.698   0.681  -1.054  0.00  0.00    +0.203 A 
ATOM      6  N   LIG    1        5.554   0.067   0.094  0.00  0.00    -0.231 NA
ATOM      7  C   LIG    1        4.225  -0.040   0.250  0.00  0.00    +0.147 A 
ATOM      8  C   LIG    1        3.442  -0.596   1.288  0.00  0.00    +0.148 A 
ATOM      9  N   LIG    1        2.086  -0.551   1.166  0.00  0.00    -0.203 NA
ENDROOT
BRANCH   4  10
ATOM     10  C   LIG    1        4.304   1.700  -2.972  0.00  0.00    +0.254 C 
ATOM     11  O   LIG    1        5.317   1.405  -3.893  0.00  0.00    -0.339 OA
ATOM     12  C   LIG    1        5.674   2.534  -4.690  0.00  0.00    +0.237 C 
ATOM     13  C   LIG    1        4.628   3.596  -4.305  0.00  0.00    +0.185 C 
ATOM     14  C   LIG    1        4.254   3.222  -2.867  0.00  0.00    +0.196 C 
BRANCH  12  15
ATOM     15  C   LIG    1        7.104   2.996  -4.334  0.00  0.00    +0.245 C 
ATOM     16  N   LIG    1        7.829   3.515  -5.339  0.00  0.00    -0.310 N 
ATOM     17  H   LIG    1        7.364   3.708  -6.214  0.00  0.00    +0.149 HD
ATOM     18  O   LIG    1        7.523   2.899  -3.178  0.00  0.00    -0.273 OA
BRANCH  16  19
ATOM     19  C   LIG    1        9.178   4.055  -5.192  0.00  0.00    +0.073 C 
ATOM     20  C   LIG    1       10.311   3.126  -4.811  0.00  0.00    +0.024 C 
ATOM     21  C   LIG    1       10.222   3.674  -6.216  0.00  0.00    +0.024 C 
ENDBRANCH  16  19
ENDBRANCH  12  15
BRANCH  13  22
ATOM     22  O   LIG    1        3.526   3.580  -5.200  0.00  0.00    -0.386 OA
ATOM     23  H   LIG    1        3.176   2.686  -5.237  0.00  0.00    +0.210 HD
ENDBRANCH  13  22
BRANCH  14  24
ATOM     24  O   LIG    1        2.984   3.652  -2.407  0.00  0.00    -0.385 OA
ATOM     25  H   LIG    1        2.905   3.434  -1.475  0.00  0.00    +0.210 HD
ENDBRANCH  14  24
ENDBRANCH   4  10
BRANCH   8  26
ATOM     26  N   LIG    1        3.991  -1.183   2.426  0.00  0.00    -0.341 N 
ATOM     27  H   LIG    1        3.377  -1.559   3.132  0.00  0.00    +0.144 HD
ATOM     28  H   LIG    1        4.995  -1.218   2.530  0.00  0.00    +0.144 HD
ENDBRANCH   8  26
BRANCH   1  30
ATOM     29  C   LIG    1       -1.087   0.050  -0.091  0.00  0.00    -0.094 C 
ATOM     30  C   LIG    1        0.132   0.037  -0.009  0.00  0.00    -0.026 C 
BRANCH  29  31
ATOM     31  C   LIG    1       -2.556   0.062  -0.219  0.00  0.00    +0.093 C 
BRANCH  31  36
ATOM     32  C   LIG    1       -5.635  -2.525  -4.229  0.00  0.00    +0.403 C 
ATOM     33  N   LIG    1       -4.745  -2.347  -3.149  0.00  0.00    -0.267 N 
ATOM     34  C   LIG    1       -5.321  -2.238  -1.786  0.00  0.00    +0.111 C 
ATOM     35  C   LIG    1       -4.696  -1.022  -1.071  0.00  0.00    +0.023 C 
ATOM     36  C   LIG    1       -3.160  -1.083  -1.071  0.00  0.00    +0.004 C 
ATOM     37  C   LIG    1       -2.737  -1.037  -2.554  0.00  0.00    +0.023 C 
ATOM     38  C   LIG    1       -3.274  -2.246  -3.349  0.00  0.00    +0.111 C 
ATOM     39  O   LIG    1       -6.865  -2.587  -4.133  0.00  0.00    -0.226 OA
BRANCH  32  41
ATOM     40  C   LIG    1       -5.702  -2.840  -6.628  0.00  0.00    +0.282 C 
ATOM     41  O   LIG    1       -4.986  -2.641  -5.417  0.00  0.00    -0.454 OA
ENDBRANCH  32  41
ENDBRANCH  31  36
ENDBRANCH  29  31
ENDBRANCH   1  30
TORSDOF 10
