REMARK  Name = DB12703
REMARK                            x       y       z     vdW  Elec       q    Type
REMARK                         _______ _______ _______ _____ _____    ______ ____
ROOT
ATOM      1  C   LIG    1       -0.701  -1.207   0.065  0.00  0.00    +0.238 A 
ATOM      2  N   LIG    1       -2.063  -1.264   0.028  0.00  0.00    -0.219 NA
ATOM      3  C   LIG    1       -2.759  -0.101   0.014  0.00  0.00    +0.123 A 
ATOM      4  C   LIG    1       -2.160   1.165   0.040  0.00  0.00    +0.002 A 
ATOM      5  C   LIG    1       -0.758   1.195   0.088  0.00  0.00    +0.039 A 
ATOM      6  C   LIG    1       -0.007   0.011   0.094  0.00  0.00    +0.110 A 
ENDROOT
BRANCH   4   7
ATOM      7  C   LIG    1       -2.968   2.422   0.010  0.00  0.00    -0.016 A 
ATOM      8  C   LIG    1       -2.461   3.578  -0.597  0.00  0.00    +0.019 A 
ATOM      9  C   LIG    1       -3.199   4.793  -0.639  0.00  0.00    +0.009 A 
ATOM     10  C   LIG    1       -4.491   4.817  -0.027  0.00  0.00    +0.072 A 
ATOM     11  N   LIG    1       -5.258   5.941   0.005  0.00  0.00    -0.255 NA
ATOM     12  C   LIG    1       -4.766   7.068  -0.558  0.00  0.00    +0.112 A 
ATOM     13  C   LIG    1       -3.523   7.138  -1.177  0.00  0.00    +0.029 A 
ATOM     14  C   LIG    1       -4.997   3.644   0.576  0.00  0.00    +0.029 A 
ATOM     15  C   LIG    1       -2.713   6.000  -1.244  0.00  0.00    -0.006 A 
ATOM     16  C   LIG    1       -4.241   2.476   0.585  0.00  0.00    +0.010 A 
BRANCH  15  17
ATOM     17  C   LIG    1       -1.395   6.088  -1.931  0.00  0.00    +0.004 A 
ATOM     18  C   LIG    1       -1.069   5.257  -3.009  0.00  0.00    +0.143 A 
ATOM     19  N   LIG    1        0.129   5.316  -3.649  0.00  0.00    -0.157 NA
ATOM     20  N   LIG    1        1.057   6.204  -3.252  0.00  0.00    -0.158 NA
ATOM     21  C   LIG    1        0.789   7.042  -2.217  0.00  0.00    +0.135 A 
ATOM     22  C   LIG    1       -0.426   7.016  -1.534  0.00  0.00    +0.031 A 
ENDBRANCH  15  17
ENDBRANCH   4   7
BRANCH   1  24
ATOM     23  C   LIG    1       -0.676  -3.642   0.031  0.00  0.00    +0.279 C 
ATOM     24  O   LIG    1        0.016  -2.394   0.072  0.00  0.00    -0.478 OA
ENDBRANCH   1  24
BRANCH   6  25
ATOM     25  N   LIG    1        1.397   0.011   0.120  0.00  0.00    -0.211 N 
ATOM     26  H   LIG    1        1.869  -0.881   0.113  0.00  0.00    +0.174 HD
BRANCH  25  27
ATOM     27  S   LIG    1        2.389   1.484   0.056  0.00  0.00    +0.075 S 
ATOM     28  O   LIG    1        2.107   2.136  -1.228  0.00  0.00    -0.150 OA
ATOM     29  O   LIG    1        2.159   2.203   1.315  0.00  0.00    -0.150 OA
BRANCH  27  30
ATOM     30  C   LIG    1        4.088   0.923   0.020  0.00  0.00    +0.144 A 
ATOM     31  C   LIG    1        4.545   0.131  -1.041  0.00  0.00    +0.153 A 
ATOM     32  F   LIG    1        3.711  -0.226  -2.046  0.00  0.00    -0.203 F 
ATOM     33  C   LIG    1        5.872  -0.299  -1.069  0.00  0.00    +0.078 A 
ATOM     34  C   LIG    1        6.746   0.055  -0.042  0.00  0.00    +0.126 A 
ATOM     35  F   LIG    1        8.032  -0.361  -0.073  0.00  0.00    -0.205 F 
ATOM     36  C   LIG    1        6.292   0.840   1.019  0.00  0.00    +0.040 A 
ATOM     37  C   LIG    1        4.967   1.273   1.052  0.00  0.00    +0.034 A 
ENDBRANCH  27  30
ENDBRANCH  25  27
ENDBRANCH   6  25
TORSDOF 6
