REMARK  Name = DB12355
REMARK                            x       y       z     vdW  Elec       q    Type
REMARK                         _______ _______ _______ _____ _____    ______ ____
ROOT
ATOM      1  N   LIG    1       -2.087   1.232   0.253  0.00  0.00    -0.260 N 
ATOM      2  C   LIG    1       -0.754   1.062  -0.049  0.00  0.00    +0.263 C 
ATOM      3  O   LIG    1        0.036   1.992  -0.241  0.00  0.00    -0.271 OA
ATOM      4  C   LIG    1       -0.303  -0.436  -0.133  0.00  0.00    +0.280 C 
ATOM      5  N   LIG    1       -0.925  -1.114  -1.267  0.00  0.00    -0.249 NA
ATOM      6  C   LIG    1       -2.179  -1.382  -1.248  0.00  0.00    +0.095 C 
ATOM      7  C   LIG    1       -3.069  -1.045  -0.095  0.00  0.00    +0.024 A 
ATOM      8  C   LIG    1       -4.000  -2.019   0.313  0.00  0.00    +0.012 A 
ATOM      9  C   LIG    1       -4.901  -1.782   1.343  0.00  0.00    +0.001 A 
ATOM     10  C   LIG    1       -4.893  -0.558   1.991  0.00  0.00    +0.002 A 
ATOM     11  C   LIG    1       -3.966   0.410   1.622  0.00  0.00    +0.024 A 
ATOM     12  C   LIG    1       -3.003   0.191   0.619  0.00  0.00    +0.046 A 
ENDROOT
BRANCH   4  13
ATOM     13  N   LIG    1        1.168  -0.588  -0.205  0.00  0.00    -0.270 N 
ATOM     14  H   LIG    1        1.518  -1.356   0.348  0.00  0.00    +0.153 HD
ATOM     15  C   LIG    1        2.012  -0.177  -1.175  0.00  0.00    +0.306 C 
ATOM     16  N   LIG    1        3.280  -0.524  -0.879  0.00  0.00    -0.269 N 
ATOM     17  H   LIG    1        3.438  -0.914   0.038  0.00  0.00    +0.156 HD
ATOM     18  O   LIG    1        1.652   0.433  -2.183  0.00  0.00    -0.252 OA
BRANCH  16  19
ATOM     19  C   LIG    1        4.444  -0.355  -1.652  0.00  0.00    +0.037 A 
ATOM     20  C   LIG    1        4.452  -0.134  -3.040  0.00  0.00    +0.046 A 
ATOM     21  C   LIG    1        5.656   0.010  -3.736  0.00  0.00    +0.029 A 
ATOM     22  C   LIG    1        6.866  -0.075  -3.032  0.00  0.00    +0.023 A 
ATOM     23  C   LIG    1        6.866  -0.307  -1.658  0.00  0.00    +0.004 A 
ATOM     24  C   LIG    1        5.662  -0.451  -0.973  0.00  0.00    +0.023 A 
BRANCH  21  25
ATOM     25  N   LIG    1        5.593   0.232  -5.122  0.00  0.00    -0.347 N 
ATOM     26  H   LIG    1        4.698   0.162  -5.586  0.00  0.00    +0.146 HD
ATOM     27  C   LIG    1        6.791   0.328  -5.943  0.00  0.00    +0.125 C 
ENDBRANCH  21  25
ENDBRANCH  16  19
ENDBRANCH   4  13
BRANCH   6  28
ATOM     28  C   LIG    1       -2.769  -2.063  -2.434  0.00  0.00    +0.089 A 
ATOM     29  N   LIG    1       -4.077  -1.793  -2.715  0.00  0.00    -0.253 NA
ATOM     30  C   LIG    1       -4.641  -2.369  -3.807  0.00  0.00    +0.111 A 
ATOM     31  C   LIG    1       -3.939  -3.221  -4.660  0.00  0.00    +0.020 A 
ATOM     32  C   LIG    1       -2.599  -3.487  -4.378  0.00  0.00    +0.004 A 
ATOM     33  C   LIG    1       -2.001  -2.903  -3.260  0.00  0.00    +0.030 A 
ENDBRANCH   6  28
BRANCH   1  34
ATOM     34  C   LIG    1       -2.570   2.642   0.303  0.00  0.00    +0.188 C 
BRANCH  34  35
ATOM     35  C   LIG    1       -2.096   3.426   1.555  0.00  0.00    +0.156 C 
ATOM     36  O   LIG    1       -1.823   2.833   2.602  0.00  0.00    -0.295 OA
BRANCH  35  38
ATOM     37  C   LIG    1       -0.596   5.213   0.591  0.00  0.00    +0.018 C 
ATOM     38  C   LIG    1       -1.887   4.960   1.408  0.00  0.00    +0.022 C 
ATOM     39  C   LIG    1       -3.106   5.620   0.718  0.00  0.00    +0.018 C 
ATOM     40  C   LIG    1       -1.688   5.615   2.802  0.00  0.00    +0.018 C 
ENDBRANCH  35  38
ENDBRANCH  34  35
ENDBRANCH   1  34
TORSDOF 7
