REMARK  Name = DB12195
REMARK                            x       y       z     vdW  Elec       q    Type
REMARK                         _______ _______ _______ _____ _____    ______ ____
ROOT
ATOM      1  C   LIG    1        1.703  -0.111  -0.169  0.00  0.00    +0.086 C 
ENDROOT
BRANCH   1   4
ATOM      2  C   LIG    1       -1.841  -1.357   0.727  0.00  0.00    -0.005 A 
ATOM      3  C   LIG    1       -0.535  -1.292   0.225  0.00  0.00    +0.017 A 
ATOM      4  C   LIG    1        0.255  -0.140   0.365  0.00  0.00    +0.006 A 
ATOM      5  C   LIG    1       -0.286   0.968   1.041  0.00  0.00    +0.121 A 
ATOM      6  C   LIG    1       -1.585   0.916   1.544  0.00  0.00    +0.046 A 
ATOM      7  C   LIG    1       -2.355  -0.234   1.389  0.00  0.00    +0.013 A 
BRANCH   2   9
ATOM      8  N   LIG    1       -3.817  -2.741   0.965  0.00  0.00    -0.154 NA
ATOM      9  C   LIG    1       -2.620  -2.589   0.545  0.00  0.00    +0.143 C 
BRANCH   8  12
ATOM     10  C   LIG    1       -6.656  -3.223   1.913  0.00  0.00    +0.092 C 
ATOM     11  C   LIG    1       -5.778  -4.206   1.167  0.00  0.00    +0.174 A 
ATOM     12  N   LIG    1       -4.486  -3.942   0.753  0.00  0.00    -0.114 N 
ATOM     13  N   LIG    1       -4.025  -5.048   0.125  0.00  0.00    -0.021 NA
ATOM     14  N   LIG    1       -5.053  -5.967   0.170  0.00  0.00    -0.021 NA
ATOM     15  N   LIG    1       -6.144  -5.418   0.829  0.00  0.00    -0.111 NA
ENDBRANCH   8  12
ENDBRANCH   2   9
BRANCH   5  16
ATOM     16  O   LIG    1        0.432   2.124   1.213  0.00  0.00    -0.506 OA
ATOM     17  H   LIG    1        1.314   2.072   0.837  0.00  0.00    +0.292 HD
ENDBRANCH   5  16
ENDBRANCH   1   4
BRANCH   1  18
ATOM     18  C   LIG    1        2.414  -1.492  -0.157  0.00  0.00    +0.006 A 
ATOM     19  C   LIG    1        3.038  -2.024   0.998  0.00  0.00    +0.121 A 
ATOM     20  C   LIG    1        3.673  -3.268   0.933  0.00  0.00    +0.046 A 
ATOM     21  C   LIG    1        3.698  -3.991  -0.256  0.00  0.00    +0.013 A 
ATOM     22  C   LIG    1        3.093  -3.489  -1.414  0.00  0.00    -0.005 A 
ATOM     23  C   LIG    1        2.468  -2.239  -1.346  0.00  0.00    +0.017 A 
BRANCH  19  24
ATOM     24  O   LIG    1        3.038  -1.422   2.124  0.00  0.00    -0.506 OA
ATOM     25  H   LIG    1        2.623  -0.586   2.208  0.00  0.00    +0.292 HD
ENDBRANCH  19  24
BRANCH  22  26
ATOM     26  C   LIG    1        3.093  -4.228  -2.682  0.00  0.00    +0.143 C 
ATOM     27  N   LIG    1        3.482  -5.440  -2.797  0.00  0.00    -0.154 NA
BRANCH  27  28
ATOM     28  N   LIG    1        3.444  -6.073  -4.036  0.00  0.00    -0.114 N 
ATOM     29  N   LIG    1        3.042  -5.555  -5.219  0.00  0.00    -0.021 NA
ATOM     30  N   LIG    1        3.189  -6.566  -6.146  0.00  0.00    -0.021 NA
ATOM     31  N   LIG    1        3.681  -7.705  -5.525  0.00  0.00    -0.111 NA
ATOM     32  C   LIG    1        3.824  -7.382  -4.262  0.00  0.00    +0.174 A 
ATOM     33  C   LIG    1        4.339  -8.323  -3.192  0.00  0.00    +0.092 C 
ENDBRANCH  27  28
ENDBRANCH  22  26
ENDBRANCH   1  18
BRANCH   1  34
ATOM     34  C   LIG    1        1.862   0.677  -1.482  0.00  0.00    -0.035 A 
ATOM     35  C   LIG    1        3.007   1.457  -1.679  0.00  0.00    +0.008 A 
ATOM     36  C   LIG    1        3.154   2.210  -2.840  0.00  0.00    +0.046 A 
ATOM     37  C   LIG    1        2.151   2.193  -3.807  0.00  0.00    +0.117 A 
ATOM     38  C   LIG    1        1.001   1.428  -3.618  0.00  0.00    +0.046 A 
ATOM     39  C   LIG    1        0.855   0.676  -2.456  0.00  0.00    +0.008 A 
BRANCH  37  40
ATOM     40  O   LIG    1        2.293   2.936  -4.948  0.00  0.00    -0.507 OA
ATOM     41  H   LIG    1        3.119   3.425  -4.974  0.00  0.00    +0.292 HD
ENDBRANCH  37  40
ENDBRANCH   1  34
TORSDOF 10
