REMARK  Name = DB12158
REMARK                            x       y       z     vdW  Elec       q    Type
REMARK                         _______ _______ _______ _____ _____    ______ ____
ROOT
ATOM      1  C   LIG    1        1.487  -0.016   0.044  0.00  0.00    +0.248 C 
ATOM      2  N   LIG    1        2.111   0.165   1.249  0.00  0.00    -0.294 N 
ATOM      3  C   LIG    1        3.592   0.192   1.444  0.00  0.00    +0.073 C 
ATOM      4  C   LIG    1        4.532   0.497   0.255  0.00  0.00    +0.028 C 
ATOM      5  C   LIG    1        3.982  -1.165   2.099  0.00  0.00    +0.022 C 
ATOM      6  C   LIG    1        3.171  -1.469   3.374  0.00  0.00    +0.010 C 
ATOM      7  C   LIG    1        1.658  -1.342   3.120  0.00  0.00    +0.044 C 
ATOM      8  C   LIG    1        1.358   0.052   2.518  0.00  0.00    +0.115 C 
ATOM      9  O   LIG    1        2.074  -0.154  -1.029  0.00  0.00    -0.270 OA
ENDROOT
BRANCH   1  13
ATOM     10  C   LIG    1       -2.625   2.824  -0.321  0.00  0.00    +0.044 C 
ATOM     11  C   LIG    1       -1.998   1.450  -0.163  0.00  0.00    -0.050 A 
ATOM     12  C   LIG    1       -0.612   1.298  -0.151  0.00  0.00    +0.017 A 
ATOM     13  C   LIG    1       -0.024   0.036   0.004  0.00  0.00    +0.048 A 
ATOM     14  C   LIG    1       -0.845  -1.115   0.139  0.00  0.00    +0.031 A 
ATOM     15  C   LIG    1       -2.237  -0.931   0.131  0.00  0.00    +0.012 A 
ATOM     16  C   LIG    1       -2.809   0.329  -0.018  0.00  0.00    +0.004 A 
BRANCH  14  17
ATOM     17  C   LIG    1       -0.324  -2.510   0.309  0.00  0.00    +0.160 A 
ATOM     18  N   LIG    1       -0.901  -3.267   1.287  0.00  0.00    -0.236 NA
ATOM     19  C   LIG    1       -0.417  -4.526   1.448  0.00  0.00    +0.114 A 
ATOM     20  C   LIG    1        0.610  -5.042   0.654  0.00  0.00    +0.039 A 
ATOM     21  C   LIG    1        1.125  -4.199  -0.332  0.00  0.00    +0.114 A 
ATOM     22  N   LIG    1        0.668  -2.934  -0.522  0.00  0.00    -0.236 NA
ENDBRANCH  14  17
ENDBRANCH   1  13
BRANCH   7  23
ATOM     23  C   LIG    1        0.819  -1.615   4.380  0.00  0.00    +0.235 C 
BRANCH  23  24
ATOM     24  O   LIG    1       -0.557  -1.639   3.999  0.00  0.00    -0.476 OA
BRANCH  24  25
ATOM     25  C   LIG    1       -1.531  -1.924   4.936  0.00  0.00    +0.215 A 
ATOM     26  N   LIG    1       -1.174  -2.123   6.239  0.00  0.00    -0.218 NA
ATOM     27  C   LIG    1       -2.156  -2.400   7.135  0.00  0.00    +0.153 A 
ATOM     28  C   LIG    1       -3.502  -2.489   6.778  0.00  0.00    +0.142 A 
ATOM     29  F   LIG    1       -4.446  -2.768   7.706  0.00  0.00    -0.204 F 
ATOM     30  C   LIG    1       -3.855  -2.285   5.443  0.00  0.00    +0.045 A 
ATOM     31  C   LIG    1       -2.859  -1.998   4.507  0.00  0.00    +0.070 A 
ENDBRANCH  24  25
ENDBRANCH  23  24
ENDBRANCH   7  23
TORSDOF 5
