REMARK  Name = DB12689
REMARK                            x       y       z     vdW  Elec       q    Type
REMARK                         _______ _______ _______ _____ _____    ______ ____
ROOT
ATOM      1  C   LIG    1       -6.255   0.763   0.058  0.00  0.00    +0.115 A 
ATOM      2  N   LIG    1       -6.478  -0.602   0.061  0.00  0.00    -0.303 N 
ATOM      3  C   LIG    1       -5.216  -1.143   0.048  0.00  0.00    +0.121 A 
ATOM      4  C   LIG    1       -4.313  -0.087   0.055  0.00  0.00    +0.089 A 
ATOM      5  N   LIG    1       -4.975   1.062   0.056  0.00  0.00    -0.232 NA
ENDROOT
BRANCH   2   6
ATOM      6  C   LIG    1       -7.691  -1.317   0.055  0.00  0.00    +0.048 A 
ATOM      7  C   LIG    1       -8.679  -1.038   1.005  0.00  0.00    +0.030 A 
ATOM      8  C   LIG    1       -9.867  -1.763   0.998  0.00  0.00    +0.048 A 
ATOM      9  C   LIG    1      -10.064  -2.768   0.050  0.00  0.00    +0.129 A 
ATOM     10  C   LIG    1       -9.079  -3.044  -0.900  0.00  0.00    +0.048 A 
ATOM     11  C   LIG    1       -7.888  -2.323  -0.895  0.00  0.00    +0.030 A 
BRANCH   9  12
ATOM     12  O   LIG    1      -11.235  -3.484   0.047  0.00  0.00    -0.456 OA
BRANCH  12  13
ATOM     13  C   LIG    1      -11.267  -4.625   0.809  0.00  0.00    +0.129 A 
ATOM     14  C   LIG    1      -10.815  -5.835   0.276  0.00  0.00    +0.048 A 
ATOM     15  C   LIG    1      -10.853  -6.991   1.051  0.00  0.00    +0.023 A 
ATOM     16  C   LIG    1      -11.346  -6.935   2.354  0.00  0.00    +0.041 A 
ATOM     17 CL   LIG    1      -11.396  -8.369   3.313  0.00  0.00    -0.084 Cl
ATOM     18  C   LIG    1      -11.803  -5.730   2.887  0.00  0.00    +0.023 A 
ATOM     19  C   LIG    1      -11.765  -4.573   2.112  0.00  0.00    +0.048 A 
ENDBRANCH  12  13
ENDBRANCH   9  12
ENDBRANCH   2   6
BRANCH   4  20
ATOM     20  C   LIG    1       -2.815  -0.152   0.053  0.00  0.00    +0.002 A 
ATOM     21  C   LIG    1       -2.040   0.999  -0.134  0.00  0.00    +0.013 A 
ATOM     22  C   LIG    1       -0.651   0.920  -0.139  0.00  0.00    +0.046 A 
ATOM     23  C   LIG    1       -0.009  -0.304   0.043  0.00  0.00    +0.121 A 
ATOM     24  C   LIG    1       -0.782  -1.459   0.237  0.00  0.00    +0.046 A 
ATOM     25  C   LIG    1       -2.172  -1.380   0.240  0.00  0.00    +0.013 A 
BRANCH  23  26
ATOM     26  O   LIG    1        1.372  -0.284   0.015  0.00  0.00    -0.492 OA
BRANCH  26  27
ATOM     27  C   LIG    1        2.096  -1.501   0.180  0.00  0.00    +0.227 C 
BRANCH  27  28
ATOM     28  C   LIG    1        3.596  -1.219   0.013  0.00  0.00    +0.022 C 
BRANCH  28  29
ATOM     29  C   LIG    1        3.957  -0.733  -1.406  0.00  0.00    -0.076 C 
BRANCH  29  30
ATOM     30  N   LIG    1        5.435  -0.273  -1.480  0.00  0.00    +0.379 N 
ATOM     31  H   LIG    1        5.619   0.242  -0.630  0.00  0.00    -0.082 HD
BRANCH  30  32
ATOM     32  C   LIG    1        5.684   0.706  -2.656  0.00  0.00    -0.082 C 
ATOM     33  C   LIG    1        5.120   2.103  -2.347  0.00  0.00    -0.017 C 
ENDBRANCH  30  32
BRANCH  30  34
ATOM     34  C   LIG    1        6.422  -1.468  -1.502  0.00  0.00    -0.082 C 
ATOM     35  C   LIG    1        7.812  -1.044  -0.998  0.00  0.00    -0.017 C 
ENDBRANCH  30  34
ENDBRANCH  29  30
ENDBRANCH  28  29
ENDBRANCH  27  28
ENDBRANCH  26  27
ENDBRANCH  23  26
ENDBRANCH   4  20
BRANCH   1  36
ATOM     36  C   LIG    1       -7.342   1.826  -0.012  0.00  0.00    +0.075 C 
BRANCH  36  37
ATOM     37  C   LIG    1       -8.016   1.884  -1.396  0.00  0.00    +0.007 C 
BRANCH  37  39
ATOM     38  C   LIG    1       -9.770   3.029  -2.869  0.00  0.00    +0.004 C 
ATOM     39  C   LIG    1       -9.104   2.967  -1.488  0.00  0.00    -0.003 C 
ENDBRANCH  37  39
ENDBRANCH  36  37
ENDBRANCH   1  36
TORSDOF 14
