REMARK  Name = DB12669
REMARK                            x       y       z     vdW  Elec       q    Type
REMARK                         _______ _______ _______ _____ _____    ______ ____
ROOT
ATOM      1  N   LIG    1        0.893   1.320  -0.432  0.00  0.00    -0.299 N 
ATOM      2  H   LIG    1        0.408   0.549  -0.867  0.00  0.00    +0.154 HD
ENDROOT
BRANCH   1   3
ATOM      3  C   LIG    1        2.239   1.012  -0.144  0.00  0.00    +0.134 A 
ATOM      4  N   LIG    1        2.978   1.908   0.558  0.00  0.00    -0.220 NA
ATOM      5  C   LIG    1        4.260   1.571   0.823  0.00  0.00    +0.223 A 
ATOM      6  N   LIG    1        4.889   0.428   0.460  0.00  0.00    -0.235 NA
ATOM      7  C   LIG    1        4.152  -0.478  -0.243  0.00  0.00    +0.080 A 
ATOM      8  C   LIG    1        4.764  -1.685  -0.645  0.00  0.00    +0.078 A 
ATOM      9  C   LIG    1        4.048  -2.649  -1.371  0.00  0.00    +0.164 A 
ATOM     10  C   LIG    1        2.707  -2.422  -1.702  0.00  0.00    +0.162 A 
ATOM     11  C   LIG    1        2.081  -1.228  -1.311  0.00  0.00    +0.062 A 
ATOM     12  C   LIG    1        2.787  -0.237  -0.580  0.00  0.00    +0.044 A 
BRANCH  10  13
ATOM     13  O   LIG    1        2.064  -3.420  -2.416  0.00  0.00    -0.491 OA
ATOM     14  C   LIG    1        0.697  -3.257  -2.780  0.00  0.00    +0.277 C 
ENDBRANCH  10  13
BRANCH   9  15
ATOM     15  O   LIG    1        4.600  -3.846  -1.795  0.00  0.00    -0.488 OA
BRANCH  15  16
ATOM     16  C   LIG    1        5.967  -4.135  -1.515  0.00  0.00    +0.230 C 
BRANCH  16  17
ATOM     17  C   LIG    1        6.318  -5.501  -2.130  0.00  0.00    +0.056 C 
BRANCH  17  18
ATOM     18  C   LIG    1        7.752  -5.987  -1.846  0.00  0.00    +0.087 C 
BRANCH  18  19
ATOM     19  N   LIG    1        8.741  -5.075  -2.437  0.00  0.00    -0.306 NA
ATOM     20  C   LIG    1        9.632  -5.701  -3.423  0.00  0.00    +0.066 C 
ATOM     21  C   LIG    1       10.675  -6.636  -2.762  0.00  0.00    -0.064 C 
ATOM     22  N   LIG    1       11.507  -5.809  -1.755  0.00  0.00    +0.379 N 
ATOM     23  H   LIG    1       11.976  -5.072  -2.264  0.00  0.00    -0.082 HD
ATOM     24  C   LIG    1       12.557  -6.697  -1.059  0.00  0.00    -0.096 C 
ATOM     25  C   LIG    1       10.567  -5.157  -0.716  0.00  0.00    -0.064 C 
ATOM     26  C   LIG    1        9.519  -4.295  -1.464  0.00  0.00    +0.066 C 
ENDBRANCH  18  19
ENDBRANCH  17  18
ENDBRANCH  16  17
ENDBRANCH  15  16
ENDBRANCH   9  15
ENDBRANCH   1   3
BRANCH   1  31
ATOM     27  C   LIG    1       -3.847   5.089  -0.108  0.00  0.00    +0.167 A 
ATOM     28  S   LIG    1       -3.915   3.416  -0.608  0.00  0.00    -0.052 S 
ATOM     29  C   LIG    1       -2.178   3.327  -0.345  0.00  0.00    +0.043 A 
ATOM     30  C   LIG    1       -1.298   2.250  -0.518  0.00  0.00    +0.040 A 
ATOM     31  C   LIG    1        0.059   2.437  -0.233  0.00  0.00    +0.034 A 
ATOM     32  C   LIG    1        0.516   3.691   0.203  0.00  0.00    +0.025 A 
ATOM     33  C   LIG    1       -0.350   4.772   0.379  0.00  0.00    +0.031 A 
ATOM     34  C   LIG    1       -1.712   4.590   0.103  0.00  0.00    +0.080 A 
ATOM     35  N   LIG    1       -2.667   5.548   0.226  0.00  0.00    -0.225 NA
BRANCH  27  39
ATOM     36  N   LIG    1       -6.533   7.413   0.046  0.00  0.00    -0.266 N 
ATOM     37  H   LIG    1       -7.132   6.705  -0.352  0.00  0.00    +0.156 HD
ATOM     38  C   LIG    1       -5.232   7.086   0.192  0.00  0.00    +0.310 C 
ATOM     39  N   LIG    1       -5.050   5.782  -0.107  0.00  0.00    -0.248 N 
ATOM     40  H   LIG    1       -5.863   5.248  -0.378  0.00  0.00    +0.158 HD
ATOM     41  O   LIG    1       -4.339   7.863   0.534  0.00  0.00    -0.252 OA
BRANCH  36  45
ATOM     42  C   LIG    1       -6.743  11.890   2.264  0.00  0.00    +0.044 C 
ATOM     43  C   LIG    1       -7.332  10.833   1.346  0.00  0.00    -0.048 A 
ATOM     44  C   LIG    1       -6.649   9.634   1.137  0.00  0.00    +0.030 A 
ATOM     45  C   LIG    1       -7.176   8.647   0.285  0.00  0.00    +0.077 A 
ATOM     46  C   LIG    1       -8.414   8.862  -0.348  0.00  0.00    +0.141 A 
ATOM     47  C   LIG    1       -9.086  10.078  -0.132  0.00  0.00    +0.048 A 
ATOM     48  C   LIG    1       -8.548  11.054   0.703  0.00  0.00    +0.007 A 
BRANCH  46  49
ATOM     49  O   LIG    1       -8.910   7.856  -1.165  0.00  0.00    -0.493 OA
ATOM     50  C   LIG    1      -10.166   8.030  -1.811  0.00  0.00    +0.277 C 
ENDBRANCH  46  49
ENDBRANCH  36  45
ENDBRANCH  27  39
ENDBRANCH   1  31
TORSDOF 11
