REMARK  Name = DB12997
REMARK                            x       y       z     vdW  Elec       q    Type
REMARK                         _______ _______ _______ _____ _____    ______ ____
ROOT
ATOM      1  C   LIG    1        1.365   0.028   0.553  0.00  0.00    +0.130 A 
ATOM      2  N   LIG    1        1.875  -1.207   0.839  0.00  0.00    -0.231 NA
ATOM      3  C   LIG    1        3.189  -1.267   1.168  0.00  0.00    +0.222 A 
ATOM      4  N   LIG    1        4.043  -0.217   1.242  0.00  0.00    -0.231 NA
ATOM      5  C   LIG    1        3.530   1.017   0.956  0.00  0.00    +0.130 A 
ATOM      6  C   LIG    1        2.179   1.173   0.600  0.00  0.00    +0.066 A 
ENDROOT
BRANCH   1   9
ATOM      7  N   LIG    1       -0.800  -1.020   0.174  0.00  0.00    -0.277 N 
ATOM      8  H   LIG    1       -0.257  -1.858   0.325  0.00  0.00    +0.155 HD
ATOM      9  C   LIG    1       -0.103   0.142   0.191  0.00  0.00    +0.267 C 
ATOM     10  O   LIG    1       -0.588   1.243  -0.075  0.00  0.00    -0.268 OA
BRANCH   7  13
ATOM     11  C   LIG    1       -3.901  -2.853  -0.680  0.00  0.00    +0.078 A 
ATOM     12  C   LIG    1       -2.558  -2.573  -0.377  0.00  0.00    +0.163 A 
ATOM     13  C   LIG    1       -2.170  -1.256  -0.064  0.00  0.00    +0.078 A 
ATOM     14  C   LIG    1       -3.148  -0.250   0.004  0.00  0.00    +0.039 A 
ATOM     15  C   LIG    1       -4.488  -0.526  -0.280  0.00  0.00    +0.059 A 
ATOM     16  C   LIG    1       -4.854  -1.827  -0.634  0.00  0.00    +0.039 A 
BRANCH  11  19
ATOM     17  C   LIG    1       -5.375  -4.838  -0.795  0.00  0.00    +0.217 C 
ATOM     18  O   LIG    1       -6.313  -4.383  -0.138  0.00  0.00    -0.275 OA
ATOM     19  N   LIG    1       -4.233  -4.170  -1.057  0.00  0.00    -0.283 N 
ATOM     20  H   LIG    1       -3.490  -4.685  -1.507  0.00  0.00    +0.155 HD
BRANCH  17  21
ATOM     21  C   LIG    1       -5.453  -6.269  -1.351  0.00  0.00    +0.096 C 
BRANCH  21  22
ATOM     22  C   LIG    1       -6.188  -7.282  -0.442  0.00  0.00    +0.010 C 
BRANCH  22  23
ATOM     23  C   LIG    1       -5.481  -7.568   0.904  0.00  0.00    +0.016 C 
BRANCH  23  24
ATOM     24  C   LIG    1       -6.244  -8.531   1.838  0.00  0.00    +0.084 C 
BRANCH  24  25
ATOM     25  N   LIG    1       -6.343  -9.911   1.329  0.00  0.00    -0.283 NA
ATOM     26  H   LIG    1       -5.886 -10.097   0.448  0.00  0.00    +0.125 HD
BRANCH  25  27
ATOM     27  C   LIG    1       -6.968 -10.947   1.899  0.00  0.00    +0.167 C 
BRANCH  27  28
ATOM     28  N   LIG    1       -7.611 -10.872   3.061  0.00  0.00    -0.297 NA
ATOM     29  H   LIG    1       -7.649  -9.995   3.560  0.00  0.00    +0.121 HD
ATOM     30  H   LIG    1       -8.077 -11.687   3.433  0.00  0.00    +0.121 HD
ENDBRANCH  27  28
BRANCH  27  31
ATOM     31  N   LIG    1       -6.947 -12.114   1.273  0.00  0.00    -0.297 NA
ATOM     32  H   LIG    1       -7.115 -12.965   1.790  0.00  0.00    +0.121 HD
ATOM     33  H   LIG    1       -6.769 -12.152   0.280  0.00  0.00    +0.121 HD
ENDBRANCH  27  31
ENDBRANCH  25  27
ENDBRANCH  24  25
ENDBRANCH  23  24
ENDBRANCH  22  23
ENDBRANCH  21  22
ENDBRANCH  17  21
ENDBRANCH  11  19
BRANCH  15  34
ATOM     34  C   LIG    1       -5.532   0.588  -0.202  0.00  0.00    +0.418 C 
ATOM     35  F   LIG    1       -6.766   0.105  -0.041  0.00  0.00    -0.166 F 
ATOM     36  F   LIG    1       -5.500   1.293  -1.332  0.00  0.00    -0.166 F 
ATOM     37  F   LIG    1       -5.278   1.407   0.820  0.00  0.00    -0.166 F 
ENDBRANCH  15  34
BRANCH  12  38
ATOM     38  O   LIG    1       -1.637  -3.603  -0.436  0.00  0.00    -0.487 OA
BRANCH  38  39
ATOM     39  C   LIG    1       -1.131  -4.115   0.804  0.00  0.00    +0.155 C 
ATOM     40  C   LIG    1       -0.309  -5.373   0.532  0.00  0.00    +0.023 C 
ATOM     41  C   LIG    1       -0.386  -6.157   1.837  0.00  0.00    -0.079 C 
ATOM     42  N   LIG    1       -1.827  -5.928   2.301  0.00  0.00    +0.381 N 
ATOM     43  H   LIG    1       -2.433  -6.593   1.842  0.00  0.00    -0.086 HD
ATOM     44  H   LIG    1       -1.935  -6.057   3.297  0.00  0.00    -0.086 HD
ATOM     45  C   LIG    1       -2.199  -4.506   1.850  0.00  0.00    -0.038 C 
ENDBRANCH  38  39
ENDBRANCH  12  38
ENDBRANCH   7  13
ENDBRANCH   1   9
BRANCH   5  46
ATOM     46  C   LIG    1        4.450   2.220   1.032  0.00  0.00    +0.267 C 
ATOM     47  O   LIG    1        4.062   3.319   0.631  0.00  0.00    -0.268 OA
ATOM     48  N   LIG    1        5.684   1.992   1.541  0.00  0.00    -0.277 N 
ATOM     49  H   LIG    1        5.903   1.031   1.761  0.00  0.00    +0.155 HD
BRANCH  48  50
ATOM     50  C   LIG    1        6.744   2.895   1.766  0.00  0.00    +0.078 A 
ATOM     51  C   LIG    1        8.040   2.359   1.874  0.00  0.00    +0.163 A 
ATOM     52  C   LIG    1        9.127   3.201   2.157  0.00  0.00    +0.078 A 
ATOM     53  C   LIG    1        8.914   4.578   2.317  0.00  0.00    +0.039 A 
ATOM     54  C   LIG    1        7.633   5.123   2.200  0.00  0.00    +0.059 A 
ATOM     55  C   LIG    1        6.555   4.276   1.931  0.00  0.00    +0.039 A 
BRANCH  54  56
ATOM     56  C   LIG    1        7.390   6.620   2.391  0.00  0.00    +0.418 C 
ATOM     57  F   LIG    1        7.140   7.175   1.206  0.00  0.00    -0.166 F 
ATOM     58  F   LIG    1        8.440   7.241   2.931  0.00  0.00    -0.166 F 
ATOM     59  F   LIG    1        6.339   6.823   3.188  0.00  0.00    -0.166 F 
ENDBRANCH  54  56
BRANCH  52  60
ATOM     60  N   LIG    1       10.395   2.609   2.314  0.00  0.00    -0.283 N 
ATOM     61  H   LIG    1       10.378   1.645   2.614  0.00  0.00    +0.155 HD
ATOM     62  C   LIG    1       11.604   3.142   2.036  0.00  0.00    +0.217 C 
ATOM     63  O   LIG    1       11.775   4.249   1.524  0.00  0.00    -0.275 OA
BRANCH  62  64
ATOM     64  C   LIG    1       12.808   2.240   2.357  0.00  0.00    +0.096 C 
BRANCH  64  65
ATOM     65  C   LIG    1       14.133   3.006   2.569  0.00  0.00    +0.010 C 
BRANCH  65  66
ATOM     66  C   LIG    1       15.305   2.076   2.949  0.00  0.00    +0.016 C 
BRANCH  66  67
ATOM     67  C   LIG    1       16.637   2.802   3.233  0.00  0.00    +0.084 C 
BRANCH  67  68
ATOM     68  N   LIG    1       17.244   3.428   2.045  0.00  0.00    -0.283 NA
ATOM     69  H   LIG    1       16.739   3.321   1.177  0.00  0.00    +0.125 HD
BRANCH  68  70
ATOM     70  C   LIG    1       18.387   4.118   1.982  0.00  0.00    +0.167 C 
BRANCH  70  71
ATOM     71  N   LIG    1       19.166   4.352   3.035  0.00  0.00    -0.297 NA
ATOM     72  H   LIG    1       20.139   4.587   2.900  0.00  0.00    +0.121 HD
ATOM     73  H   LIG    1       18.782   4.293   3.967  0.00  0.00    +0.121 HD
ENDBRANCH  70  71
BRANCH  70  74
ATOM     74  N   LIG    1       18.767   4.598   0.807  0.00  0.00    -0.297 NA
ATOM     75  H   LIG    1       18.198   4.436  -0.012  0.00  0.00    +0.121 HD
ATOM     76  H   LIG    1       19.621   5.131   0.734  0.00  0.00    +0.121 HD
ENDBRANCH  70  74
ENDBRANCH  68  70
ENDBRANCH  67  68
ENDBRANCH  66  67
ENDBRANCH  65  66
ENDBRANCH  64  65
ENDBRANCH  62  64
ENDBRANCH  52  60
BRANCH  51  77
ATOM     77  O   LIG    1        8.255   1.003   1.721  0.00  0.00    -0.487 OA
BRANCH  77  78
ATOM     78  C   LIG    1        8.211   0.512   0.378  0.00  0.00    +0.155 C 
ATOM     79  C   LIG    1        7.609  -0.901   0.358  0.00  0.00    +0.023 C 
ATOM     80  C   LIG    1        8.764  -1.848   0.035  0.00  0.00    -0.079 C 
ATOM     81  N   LIG    1        9.684  -0.990  -0.835  0.00  0.00    +0.381 N 
ATOM     82  H   LIG    1       10.620  -1.365  -0.901  0.00  0.00    -0.086 HD
ATOM     83  H   LIG    1        9.310  -0.925  -1.771  0.00  0.00    -0.086 HD
ATOM     84  C   LIG    1        9.648   0.385  -0.158  0.00  0.00    -0.038 C 
ENDBRANCH  77  78
ENDBRANCH  51  77
ENDBRANCH  48  50
ENDBRANCH   5  46
TORSDOF 28
