REMARK  Name = DB12459
REMARK                            x       y       z     vdW  Elec       q    Type
REMARK                         _______ _______ _______ _____ _____    ______ ____
ROOT
ATOM      1  C   LIG    1       -2.434   6.834   4.929  0.00  0.00    +0.188 C 
ATOM      2  C   LIG    1       -1.810   7.147   6.318  0.00  0.00    +0.344 C 
ATOM      3  O   LIG    1       -1.558   8.257   6.788  0.00  0.00    -0.247 OA
ATOM      4  O   LIG    1       -1.437   6.075   7.086  0.00  0.00    -0.457 OA
ATOM      5  C   LIG    1       -1.697   4.720   6.684  0.00  0.00    +0.273 C 
ATOM      6  C   LIG    1       -1.577   4.499   5.174  0.00  0.00    +0.061 A 
ATOM      7  C   LIG    1       -1.086   3.192   4.703  0.00  0.00    +0.259 A 
ATOM      8  O   LIG    1       -0.769   2.278   5.468  0.00  0.00    -0.267 OA
ATOM      9  N   LIG    1       -1.015   3.060   3.339  0.00  0.00    -0.302 N 
ATOM     10  C   LIG    1       -0.569   1.840   2.672  0.00  0.00    +0.163 C 
ATOM     11  C   LIG    1       -0.686   2.228   1.222  0.00  0.00    +0.003 A 
ATOM     12  C   LIG    1       -0.413   1.514   0.052  0.00  0.00    -0.033 A 
ATOM     13  C   LIG    1       -0.609   2.172  -1.210  0.00  0.00    +0.004 A 
ATOM     14  C   LIG    1       -0.355   1.569  -2.475  0.00  0.00    +0.010 A 
ATOM     15  C   LIG    1       -0.573   2.275  -3.655  0.00  0.00    +0.001 A 
ATOM     16  C   LIG    1       -1.043   3.583  -3.624  0.00  0.00    +0.002 A 
ATOM     17  C   LIG    1       -1.301   4.212  -2.410  0.00  0.00    +0.028 A 
ATOM     18  C   LIG    1       -1.090   3.524  -1.190  0.00  0.00    +0.072 A 
ATOM     19  N   LIG    1       -1.354   4.187  -0.030  0.00  0.00    -0.245 NA
ATOM     20  C   LIG    1       -1.144   3.529   1.132  0.00  0.00    +0.093 A 
ATOM     21  C   LIG    1       -1.361   4.073   2.476  0.00  0.00    +0.071 A 
ATOM     22  C   LIG    1       -1.797   5.277   2.894  0.00  0.00    +0.035 A 
ATOM     23  C   LIG    1       -1.910   5.518   4.332  0.00  0.00    +0.008 A 
ENDROOT
BRANCH   1  25
ATOM     24  C   LIG    1       -4.804   6.534   3.819  0.00  0.00    +0.007 C 
ATOM     25  C   LIG    1       -3.985   6.783   5.101  0.00  0.00    +0.048 C 
ENDBRANCH   1  25
BRANCH   1  26
ATOM     26  O   LIG    1       -2.153   7.933   4.071  0.00  0.00    -0.373 OA
ATOM     27  H   LIG    1       -1.201   8.010   3.975  0.00  0.00    +0.211 HD
ENDBRANCH   1  26
BRANCH  12  28
ATOM     28  C   LIG    1        0.095   0.074   0.106  0.00  0.00    +0.017 C 
BRANCH  28  29
ATOM     29  C   LIG    1        1.623  -0.009  -0.046  0.00  0.00    -0.078 C 
BRANCH  29  30
ATOM     30  N   LIG    1        2.063  -1.480   0.050  0.00  0.00    +0.381 N 
ATOM     31  H   LIG    1        1.553  -1.996  -0.653  0.00  0.00    -0.086 HD
ATOM     32  H   LIG    1        1.794  -1.847   0.952  0.00  0.00    -0.086 HD
BRANCH  30  33
ATOM     33  C   LIG    1        3.565  -1.749  -0.169  0.00  0.00    -0.078 C 
ATOM     34  C   LIG    1        4.390  -1.161   0.993  0.00  0.00    -0.014 C 
ATOM     35  C   LIG    1        3.759  -3.267  -0.322  0.00  0.00    -0.014 C 
ENDBRANCH  30  33
ENDBRANCH  29  30
ENDBRANCH  28  29
ENDBRANCH  12  28
TORSDOF 6
