REMARK  Name = DB12730
REMARK                            x       y       z     vdW  Elec       q    Type
REMARK                         _______ _______ _______ _____ _____    ______ ____
ROOT
ATOM      1  C   LIG    1        2.125   0.658  -1.486  0.00  0.00    +0.129 C 
ENDROOT
BRANCH   1   2
ATOM      2  C   LIG    1        3.667   0.591  -1.522  0.00  0.00    +0.218 C 
ATOM      3  N   LIG    1        4.331   1.447  -2.341  0.00  0.00    -0.296 N 
ATOM      4  C   LIG    1        5.803   1.508  -2.450  0.00  0.00    +0.105 C 
ATOM      5  C   LIG    1        6.035   2.457  -3.639  0.00  0.00    +0.026 C 
ATOM      6  C   LIG    1        4.738   2.422  -4.420  0.00  0.00    +0.021 C 
ATOM      7  C   LIG    1        3.668   2.297  -3.339  0.00  0.00    +0.108 C 
ATOM      8  O   LIG    1        4.252  -0.224  -0.806  0.00  0.00    -0.276 OA
BRANCH   4   9
ATOM      9  C   LIG    1        6.565   1.912  -1.143  0.00  0.00    +0.150 C 
BRANCH   9  10
ATOM     10  O   LIG    1        6.100   3.198  -0.718  0.00  0.00    -0.377 OA
ATOM     11  C   LIG    1        5.310   3.205   0.464  0.00  0.00    +0.194 C 
ENDBRANCH   9  10
BRANCH   9  12
ATOM     12  C   LIG    1        8.115   1.991  -1.295  0.00  0.00    +0.102 C 
ATOM     13  C   LIG    1        8.810   2.371   0.033  0.00  0.00    +0.020 C 
BRANCH  12  14
ATOM     14  C   LIG    1        8.700   0.680  -1.861  0.00  0.00    +0.219 C 
ATOM     15  N   LIG    1        9.072   0.705  -3.154  0.00  0.00    -0.306 N 
ATOM     16  H   LIG    1        9.070   1.597  -3.627  0.00  0.00    +0.149 HD
ATOM     17  O   LIG    1        8.777  -0.325  -1.152  0.00  0.00    -0.275 OA
BRANCH  15  18
ATOM     18  C   LIG    1        9.576  -0.426  -3.942  0.00  0.00    +0.133 C 
BRANCH  18  19
ATOM     19  C   LIG    1       10.088   0.087  -5.284  0.00  0.00    +0.099 A 
ATOM     20  S   LIG    1       11.632  -0.368  -5.948  0.00  0.00    -0.079 S 
ATOM     21  C   LIG    1       11.289   0.610  -7.340  0.00  0.00    +0.066 A 
ATOM     22  C   LIG    1       10.040   1.193  -7.176  0.00  0.00    +0.119 A 
ATOM     23  N   LIG    1        9.404   0.901  -6.059  0.00  0.00    -0.250 NA
ENDBRANCH  18  19
BRANCH  18  24
ATOM     24  C   LIG    1        8.492  -1.523  -4.135  0.00  0.00    +0.064 C 
BRANCH  24  25
ATOM     25  C   LIG    1        8.973  -2.737  -4.922  0.00  0.00    -0.045 A 
ATOM     26  C   LIG    1        9.764  -3.702  -4.294  0.00  0.00    +0.004 A 
ATOM     27  C   LIG    1       10.214  -4.807  -5.013  0.00  0.00    +0.000 A 
ATOM     28  C   LIG    1        9.871  -4.941  -6.357  0.00  0.00    +0.000 A 
ATOM     29  C   LIG    1        9.082  -3.983  -6.989  0.00  0.00    +0.000 A 
ATOM     30  C   LIG    1        8.631  -2.878  -6.270  0.00  0.00    +0.004 A 
ENDBRANCH  24  25
ENDBRANCH  18  24
ENDBRANCH  15  18
ENDBRANCH  12  14
ENDBRANCH   9  12
ENDBRANCH   4   9
ENDBRANCH   1   2
BRANCH   1  31
ATOM     31  C   LIG    1        1.442  -0.046  -0.282  0.00  0.00    +0.147 C 
BRANCH  31  32
ATOM     32  O   LIG    1        1.935   0.575   0.909  0.00  0.00    -0.377 OA
ATOM     33  C   LIG    1        1.948  -0.253   2.065  0.00  0.00    +0.194 C 
ENDBRANCH  31  32
BRANCH  31  34
ATOM     34  C   LIG    1       -0.129  -0.029  -0.315  0.00  0.00    +0.108 C 
BRANCH  34  35
ATOM     35  N   LIG    1       -0.710   1.306   0.015  0.00  0.00    -0.297 N 
ATOM     36  C   LIG    1       -0.808   2.331  -0.882  0.00  0.00    +0.236 C 
ATOM     37  O   LIG    1       -0.535   2.199  -2.079  0.00  0.00    -0.274 OA
ATOM     38  C   LIG    1       -1.087   1.437   1.431  0.00  0.00    +0.132 C 
BRANCH  36  39
ATOM     39  C   LIG    1       -1.255   3.745  -0.404  0.00  0.00    +0.161 C 
BRANCH  39  40
ATOM     40  N   LIG    1       -0.627   4.776  -1.242  0.00  0.00    -0.305 N 
ATOM     41  H   LIG    1       -0.644   4.589  -2.234  0.00  0.00    +0.149 HD
ATOM     42  C   LIG    1        0.038   5.852  -0.791  0.00  0.00    +0.200 C 
ATOM     43  O   LIG    1        0.121   6.170   0.397  0.00  0.00    -0.278 OA
BRANCH  42  44
ATOM     44  C   LIG    1        0.738   6.715  -1.876  0.00  0.00    +0.021 C 
BRANCH  44  45
ATOM     45  N   LIG    1       -0.133   7.929  -2.186  0.00  0.00    +0.384 N 
ATOM     46  H   LIG    1        0.459   8.465  -2.805  0.00  0.00    -0.082 HD
ATOM     47  C   LIG    1       -1.402   7.612  -3.010  0.00  0.00    -0.096 C 
ATOM     48  C   LIG    1       -0.464   8.879  -1.012  0.00  0.00    -0.096 C 
ENDBRANCH  44  45
BRANCH  44  49
ATOM     49  C   LIG    1        2.235   7.035  -1.530  0.00  0.00    -0.022 C 
ATOM     50  C   LIG    1        3.043   5.874  -0.904  0.00  0.00    +0.006 C 
ATOM     51  C   LIG    1        2.985   7.542  -2.776  0.00  0.00    +0.006 C 
ENDBRANCH  44  49
ENDBRANCH  42  44
ENDBRANCH  39  40
BRANCH  39  52
ATOM     52  C   LIG    1       -2.818   3.832  -0.442  0.00  0.00    +0.012 C 
ATOM     53  C   LIG    1       -3.329   5.116   0.238  0.00  0.00    +0.009 C 
ATOM     54  C   LIG    1       -3.451   3.688  -1.844  0.00  0.00    +0.009 C 
ENDBRANCH  39  52
ENDBRANCH  36  39
ENDBRANCH  34  35
BRANCH  34  55
ATOM     55  C   LIG    1       -0.794  -0.781  -1.527  0.00  0.00    +0.009 C 
ATOM     56  C   LIG    1       -0.216  -2.202  -1.727  0.00  0.00    +0.009 C 
BRANCH  55  58
ATOM     57  C   LIG    1       -3.082  -1.304  -2.668  0.00  0.00    +0.004 C 
ATOM     58  C   LIG    1       -2.344  -0.826  -1.406  0.00  0.00    +0.002 C 
ENDBRANCH  55  58
ENDBRANCH  34  55
ENDBRANCH  31  34
ENDBRANCH   1  31
TORSDOF 21
