REMARK  Name = DB12791
REMARK                            x       y       z     vdW  Elec       q    Type
REMARK                         _______ _______ _______ _____ _____    ______ ____
ROOT
ATOM      1  O   LIG    1       -0.385   1.515   0.163  0.00  0.00    -0.478 OA
ATOM      2  C   LIG    1       -1.670   1.754   0.567  0.00  0.00    +0.202 C 
ATOM      3  C   LIG    1       -2.480   0.810   1.110  0.00  0.00    +0.046 C 
ATOM      4  C   LIG    1       -2.031  -0.619   1.367  0.00  0.00    +0.107 C 
ATOM      5  C   LIG    1       -0.480  -0.726   1.237  0.00  0.00    +0.137 C 
ATOM      6  C   LIG    1        0.021   0.140   0.041  0.00  0.00    +0.227 C 
ENDROOT
BRANCH   5   7
ATOM      7  N   LIG    1        0.015  -2.115   1.228  0.00  0.00    -0.307 N 
ATOM      8  H   LIG    1       -0.351  -2.703   0.493  0.00  0.00    +0.149 HD
ATOM      9  C   LIG    1        0.898  -2.657   2.087  0.00  0.00    +0.210 C 
ATOM     10  C   LIG    1        1.269  -4.116   1.845  0.00  0.00    +0.109 C 
ATOM     11  O   LIG    1        1.405  -2.049   3.029  0.00  0.00    -0.276 OA
ENDBRANCH   5   7
BRANCH   2  12
ATOM     12  C   LIG    1       -2.125   3.244   0.325  0.00  0.00    +0.372 C 
ATOM     13  O   LIG    1       -3.239   3.573   0.799  0.00  0.00    -0.242 OA
BRANCH  12  14
ATOM     14  O   LIG    1       -1.318   3.959  -0.314  0.00  0.00    -0.475 OA
ATOM     15  H   LIG    1       -0.511   3.595  -0.620  0.00  0.00    +0.296 HD
ENDBRANCH  12  14
ENDBRANCH   2  12
BRANCH   4  16
ATOM     16  N   LIG    1       -2.514  -1.146   2.665  0.00  0.00    -0.275 NA
ATOM     17  H   LIG    1       -2.864  -2.092   2.636  0.00  0.00    +0.126 HD
BRANCH  16  18
ATOM     18  C   LIG    1       -2.425  -0.618   3.892  0.00  0.00    +0.167 C 
BRANCH  18  19
ATOM     19  N   LIG    1       -1.821   0.532   4.179  0.00  0.00    -0.297 NA
ATOM     20  H   LIG    1       -1.406   1.076   3.436  0.00  0.00    +0.121 HD
ATOM     21  H   LIG    1       -1.803   0.871   5.130  0.00  0.00    +0.121 HD
ENDBRANCH  18  19
BRANCH  18  22
ATOM     22  N   LIG    1       -2.970  -1.289   4.896  0.00  0.00    -0.297 NA
ATOM     23  H   LIG    1       -2.663  -1.114   5.842  0.00  0.00    +0.121 HD
ATOM     24  H   LIG    1       -3.694  -1.968   4.713  0.00  0.00    +0.121 HD
ENDBRANCH  18  22
ENDBRANCH  16  18
ENDBRANCH   4  16
BRANCH   6  25
ATOM     25  C   LIG    1        1.563   0.089  -0.178  0.00  0.00    +0.191 C 
BRANCH  25  26
ATOM     26  O   LIG    1        2.182   0.578   1.015  0.00  0.00    -0.373 OA
ATOM     27  C   LIG    1        3.523   0.163   1.239  0.00  0.00    +0.194 C 
ENDBRANCH  25  26
BRANCH  25  28
ATOM     28  C   LIG    1        2.097   0.826  -1.447  0.00  0.00    +0.172 C 
BRANCH  28  29
ATOM     29  O   LIG    1        1.849   2.217  -1.369  0.00  0.00    -0.387 OA
ATOM     30  H   LIG    1        2.116   2.527  -0.500  0.00  0.00    +0.210 HD
ENDBRANCH  28  29
BRANCH  28  31
ATOM     31  C   LIG    1        1.522   0.309  -2.785  0.00  0.00    +0.189 C 
BRANCH  31  32
ATOM     32  O   LIG    1        1.871  -1.043  -3.013  0.00  0.00    -0.392 OA
ATOM     33  H   LIG    1        1.519  -1.308  -3.866  0.00  0.00    +0.210 HD
ENDBRANCH  31  32
ENDBRANCH  28  31
ENDBRANCH  25  28
ENDBRANCH   6  25
TORSDOF 13
