REMARK  Name = DB12113
REMARK                            x       y       z     vdW  Elec       q    Type
REMARK                         _______ _______ _______ _____ _____    ______ ____
ROOT
ATOM      1  C   LIG    1        4.391  -0.271   2.498  0.00  0.00    +0.071 A 
ATOM      2  C   LIG    1        4.145   0.551   3.611  0.00  0.00    +0.042 A 
ATOM      3  C   LIG    1        5.087   0.723   4.634  0.00  0.00    +0.057 A 
ATOM      4  C   LIG    1        6.320   0.052   4.540  0.00  0.00    +0.053 A 
ATOM      5 CL   LIG    1        7.541   0.169   5.766  0.00  0.00    -0.083 Cl
ATOM      6  C   LIG    1        6.585  -0.755   3.433  0.00  0.00    +0.023 A 
ATOM      7  C   LIG    1        5.638  -0.913   2.423  0.00  0.00    +0.029 A 
ENDROOT
BRANCH   1  11
ATOM      8  N   LIG    1        1.304  -0.070   0.631  0.00  0.00    -0.256 N 
ATOM      9  C   LIG    1        2.053  -0.436   1.744  0.00  0.00    +0.353 A 
ATOM     10  O   LIG    1        1.574  -0.674   2.858  0.00  0.00    -0.244 OA
ATOM     11  N   LIG    1        3.417  -0.422   1.463  0.00  0.00    -0.182 N 
ATOM     12  N   LIG    1        3.944  -0.554   0.171  0.00  0.00    -0.165 NA
ATOM     13  C   LIG    1        3.159  -0.316  -0.813  0.00  0.00    +0.203 A 
ATOM     14  C   LIG    1        1.746   0.026  -0.679  0.00  0.00    +0.275 A 
ATOM     15  O   LIG    1        1.060   0.359  -1.648  0.00  0.00    -0.266 OA
BRANCH   8  16
ATOM     16  C   LIG    1       -0.129   0.237   0.882  0.00  0.00    +0.163 C 
BRANCH  16  17
ATOM     17  C   LIG    1       -0.388   1.645   1.476  0.00  0.00    +0.160 C 
BRANCH  17  18
ATOM     18  O   LIG    1       -0.002   2.631   0.536  0.00  0.00    -0.388 OA
ATOM     19  H   LIG    1       -0.532   2.524  -0.257  0.00  0.00    +0.210 HD
ENDBRANCH  17  18
BRANCH  17  20
ATOM     20  C   LIG    1       -1.864   1.854   1.861  0.00  0.00    +0.192 C 
BRANCH  20  22
ATOM     21  C   LIG    1       -3.332   3.317   3.025  0.00  0.00    +0.194 C 
ATOM     22  O   LIG    1       -2.006   3.072   2.582  0.00  0.00    -0.380 OA
ENDBRANCH  20  22
ENDBRANCH  17  20
ENDBRANCH  16  17
ENDBRANCH   8  16
ENDBRANCH   1  11
BRANCH   3  23
ATOM     23  C   LIG    1        4.726   1.595   5.809  0.00  0.00    +0.246 C 
ATOM     24  N   LIG    1        3.526   1.323   6.354  0.00  0.00    -0.309 N 
ATOM     25  H   LIG    1        3.055   0.480   6.058  0.00  0.00    +0.149 HD
ATOM     26  O   LIG    1        5.471   2.500   6.185  0.00  0.00    -0.270 OA
BRANCH  24  27
ATOM     27  C   LIG    1        2.803   2.145   7.328  0.00  0.00    +0.139 C 
BRANCH  27  28
ATOM     28  C   LIG    1        1.605   2.925   6.709  0.00  0.00    +0.081 C 
ATOM     29  C   LIG    1        0.906   3.818   7.776  0.00  0.00    +0.036 C 
ATOM     30  C   LIG    1       -0.114   3.115   8.696  0.00  0.00    +0.003 C 
ATOM     31  C   LIG    1       -1.545   3.082   8.127  0.00  0.00    +0.000 C 
ATOM     32  C   LIG    1       -1.760   2.191   6.890  0.00  0.00    +0.000 C 
ATOM     33  C   LIG    1       -0.811   2.437   5.701  0.00  0.00    +0.003 C 
ATOM     34  C   LIG    1        0.640   1.970   5.938  0.00  0.00    +0.036 C 
BRANCH  28  35
ATOM     35  O   LIG    1        2.120   3.853   5.765  0.00  0.00    -0.387 OA
ATOM     36  H   LIG    1        1.386   4.346   5.391  0.00  0.00    +0.210 HD
ENDBRANCH  28  35
ENDBRANCH  27  28
ENDBRANCH  24  27
ENDBRANCH   3  23
TORSDOF 10
