REMARK  Name = DB12743
REMARK                            x       y       z     vdW  Elec       q    Type
REMARK                         _______ _______ _______ _____ _____    ______ ____
ROOT
ATOM      1  C   LIG    1        1.752  -0.089  -0.136  0.00  0.00    +0.216 C 
ATOM      2  N   LIG    1        2.196  -1.373  -0.055  0.00  0.00    -0.305 N 
ATOM      3  C   LIG    1        3.636  -1.685   0.027  0.00  0.00    +0.089 C 
ATOM      4  C   LIG    1        3.912  -2.352   1.394  0.00  0.00    -0.058 C 
ATOM      5  N   LIG    1        3.023  -3.610   1.575  0.00  0.00    +0.389 N 
ATOM      6  H   LIG    1        3.241  -4.255   0.829  0.00  0.00    -0.080 HD
ATOM      7  C   LIG    1        1.537  -3.197   1.427  0.00  0.00    -0.058 C 
ATOM      8  C   LIG    1        1.308  -2.546   0.046  0.00  0.00    +0.089 C 
ATOM      9  O   LIG    1        2.530   0.867  -0.162  0.00  0.00    -0.276 OA
ENDROOT
BRANCH   1  10
ATOM     10  C   LIG    1        0.227   0.179  -0.213  0.00  0.00    +0.108 C 
BRANCH  10  11
ATOM     11  C   LIG    1       -0.264   1.664  -0.179  0.00  0.00    +0.058 C 
BRANCH  11  15
ATOM     12  C   LIG    1        0.672   3.579   3.589  0.00  0.00    +0.000 A 
ATOM     13  C   LIG    1        1.450   3.863   2.469  0.00  0.00    +0.000 A 
ATOM     14  C   LIG    1        1.156   3.254   1.252  0.00  0.00    +0.004 A 
ATOM     15  C   LIG    1        0.084   2.358   1.151  0.00  0.00    -0.040 A 
ATOM     16  C   LIG    1       -0.688   2.080   2.285  0.00  0.00    +0.004 A 
ATOM     17  C   LIG    1       -0.396   2.690   3.502  0.00  0.00    +0.000 A 
ENDBRANCH  11  15
BRANCH  11  18
ATOM     18  C   LIG    1       -0.022   2.513  -1.448  0.00  0.00    -0.040 A 
ATOM     19  C   LIG    1        0.678   2.026  -2.562  0.00  0.00    +0.004 A 
ATOM     20  C   LIG    1        0.862   2.826  -3.686  0.00  0.00    +0.000 A 
ATOM     21  C   LIG    1        0.339   4.115  -3.710  0.00  0.00    +0.000 A 
ATOM     22  C   LIG    1       -0.370   4.610  -2.620  0.00  0.00    +0.000 A 
ATOM     23  C   LIG    1       -0.553   3.809  -1.497  0.00  0.00    +0.004 A 
ENDBRANCH  11  18
ENDBRANCH  10  11
ENDBRANCH   1  10
BRANCH   5  24
ATOM     24  C   LIG    1        3.301  -4.320   2.934  0.00  0.00    -0.007 C 
BRANCH  24  25
ATOM     25  C   LIG    1        2.362  -5.493   3.236  0.00  0.00    -0.057 A 
ATOM     26  C   LIG    1        2.210  -6.541   2.319  0.00  0.00    +0.002 A 
ATOM     27  C   LIG    1        1.340  -7.592   2.598  0.00  0.00    +0.000 A 
ATOM     28  C   LIG    1        0.622  -7.595   3.791  0.00  0.00    +0.000 A 
ATOM     29  C   LIG    1        0.764  -6.556   4.708  0.00  0.00    +0.000 A 
ATOM     30  C   LIG    1        1.633  -5.505   4.430  0.00  0.00    +0.002 A 
ENDBRANCH  24  25
BRANCH  24  31
ATOM     31  C   LIG    1        4.769  -4.704   3.149  0.00  0.00    -0.057 A 
ATOM     32  C   LIG    1        5.464  -5.441   2.182  0.00  0.00    +0.002 A 
ATOM     33  C   LIG    1        6.801  -5.772   2.382  0.00  0.00    +0.000 A 
ATOM     34  C   LIG    1        7.446  -5.365   3.547  0.00  0.00    +0.000 A 
ATOM     35  C   LIG    1        6.765  -4.628   4.514  0.00  0.00    +0.000 A 
ATOM     36  C   LIG    1        5.428  -4.295   4.314  0.00  0.00    +0.002 A 
ENDBRANCH  24  31
ENDBRANCH   5  24
TORSDOF 7
