REMARK  Name = DB12193
REMARK                            x       y       z     vdW  Elec       q    Type
REMARK                         _______ _______ _______ _____ _____    ______ ____
ROOT
ATOM      1  C   LIG    1        2.211   0.812   1.115  0.00  0.00    -0.035 A 
ATOM      2  C   LIG    1        1.875   0.329   2.384  0.00  0.00    +0.050 A 
ATOM      3  C   LIG    1        2.335   0.960   3.538  0.00  0.00    +0.128 A 
ATOM      4  O   LIG    1        1.911   0.385   4.720  0.00  0.00    -0.486 OA
ATOM      5  C   LIG    1        1.809   1.248   5.862  0.00  0.00    +0.109 C 
ATOM      6  C   LIG    1        3.215   1.904   6.035  0.00  0.00    +0.044 C 
ATOM      7  C   LIG    1        3.659   2.735   4.798  0.00  0.00    +0.038 C 
ATOM      8  C   LIG    1        5.189   3.002   4.903  0.00  0.00    +0.050 C 
ATOM      9  C   LIG    1        5.560   3.604   6.272  0.00  0.00    +0.033 C 
ATOM     10  C   LIG    1        4.727   3.486   7.340  0.00  0.00    -0.016 C 
ATOM     11  C   LIG    1        3.406   2.723   7.341  0.00  0.00    +0.035 C 
ATOM     12  C   LIG    1        0.675   2.285   5.648  0.00  0.00    +0.055 C 
ATOM     13  C   LIG    1        1.512   0.277   7.025  0.00  0.00    +0.055 C 
ATOM     14  C   LIG    1        3.186   2.081   3.483  0.00  0.00    +0.039 A 
ATOM     15  C   LIG    1        3.490   2.582   2.203  0.00  0.00    +0.124 A 
ATOM     16  C   LIG    1        3.022   1.953   1.047  0.00  0.00    +0.050 A 
ENDROOT
BRANCH   1  17
ATOM     17  C   LIG    1        1.659   0.100  -0.148  0.00  0.00    -0.010 C 
ATOM     18  C   LIG    1        2.072   0.798  -1.475  0.00  0.00    +0.016 C 
ATOM     19  C   LIG    1        2.234  -1.338  -0.200  0.00  0.00    +0.016 C 
BRANCH  17  20
ATOM     20  C   LIG    1        0.100   0.009  -0.092  0.00  0.00    +0.011 C 
BRANCH  20  21
ATOM     21  C   LIG    1       -0.653   1.355   0.033  0.00  0.00    +0.001 C 
BRANCH  21  22
ATOM     22  C   LIG    1       -2.186   1.219   0.127  0.00  0.00    +0.000 C 
BRANCH  22  23
ATOM     23  C   LIG    1       -2.688   0.583   1.438  0.00  0.00    -0.000 C 
BRANCH  23  25
ATOM     24  C   LIG    1       -4.727  -0.064   2.848  0.00  0.00    +0.004 C 
ATOM     25  C   LIG    1       -4.224   0.559   1.539  0.00  0.00    -0.003 C 
ENDBRANCH  23  25
ENDBRANCH  22  23
ENDBRANCH  21  22
ENDBRANCH  20  21
ENDBRANCH  17  20
ENDBRANCH   1  17
BRANCH   9  26
ATOM     26  C   LIG    1        6.942   4.369   6.391  0.00  0.00    +0.332 C 
ATOM     27  O   LIG    1        7.757   4.162   5.462  0.00  0.00    -0.245 OA
BRANCH  26  28
ATOM     28  O   LIG    1        7.097   5.104   7.396  0.00  0.00    -0.477 OA
ATOM     29  H   LIG    1        6.412   5.181   8.030  0.00  0.00    +0.295 HD
ENDBRANCH  26  28
ENDBRANCH   9  26
BRANCH  15  30
ATOM     30  O   LIG    1        4.225   3.727   2.040  0.00  0.00    -0.506 OA
ATOM     31  H   LIG    1        4.358   3.957   1.118  0.00  0.00    +0.292 HD
ENDBRANCH  15  30
TORSDOF 9
