REMARK  Name = DB12721
REMARK                            x       y       z     vdW  Elec       q    Type
REMARK                         _______ _______ _______ _____ _____    ______ ____
ROOT
ATOM      1  N   LIG    1        3.235  -1.272  -0.219  0.00  0.00    -0.348 N 
ATOM      2  C   LIG    1        3.995  -1.786   0.817  0.00  0.00    +0.051 A 
ATOM      3  C   LIG    1        3.624  -2.566   1.921  0.00  0.00    +0.046 A 
ATOM      4  C   LIG    1        4.637  -2.984   2.782  0.00  0.00    +0.043 A 
ATOM      5 CL   LIG    1        4.230  -3.951   4.153  0.00  0.00    -0.083 Cl
ATOM      6  C   LIG    1        5.968  -2.651   2.555  0.00  0.00    +0.021 A 
ATOM      7  C   LIG    1        6.340  -1.870   1.464  0.00  0.00    +0.012 A 
ATOM      8  C   LIG    1        5.353  -1.396   0.578  0.00  0.00    +0.012 A 
ATOM      9  C   LIG    1        5.372  -0.567  -0.609  0.00  0.00    +0.062 A 
ATOM     10  C   LIG    1        4.063  -0.575  -1.064  0.00  0.00    +0.099 A 
ENDROOT
BRANCH   9  11
ATOM     11  C   LIG    1        6.446   0.099  -1.322  0.00  0.00    +0.249 C 
ATOM     12  N   LIG    1        7.547   0.488  -0.615  0.00  0.00    -0.297 N 
ATOM     13  C   LIG    1        8.722   1.007  -1.346  0.00  0.00    +0.111 C 
ATOM     14  C   LIG    1        8.499   2.514  -1.631  0.00  0.00    +0.059 C 
ATOM     15  C   LIG    1        8.216   3.323  -0.339  0.00  0.00    +0.098 C 
ATOM     16  O   LIG    1        9.415   3.378   0.436  0.00  0.00    -0.364 OA
ATOM     17  C   LIG    1        9.975   4.686   0.355  0.00  0.00    +0.196 C 
ATOM     18  C   LIG    1        8.918   5.562  -0.266  0.00  0.00    -0.016 A 
ATOM     19  C   LIG    1        8.885   6.939  -0.490  0.00  0.00    +0.006 A 
ATOM     20  C   LIG    1        7.773   7.506  -1.116  0.00  0.00    +0.000 A 
ATOM     21  C   LIG    1        6.710   6.696  -1.523  0.00  0.00    +0.000 A 
ATOM     22  C   LIG    1        6.753   5.318  -1.301  0.00  0.00    +0.007 A 
ATOM     23  C   LIG    1        7.857   4.760  -0.650  0.00  0.00    -0.010 A 
ATOM     24  C   LIG    1        7.125   2.624   0.510  0.00  0.00    +0.059 C 
ATOM     25  C   LIG    1        7.413   1.117   0.720  0.00  0.00    +0.111 C 
ATOM     26  O   LIG    1        6.338   0.270  -2.540  0.00  0.00    -0.270 OA
ENDBRANCH   9  11
BRANCH   1  27
ATOM     27  C   LIG    1        1.791  -1.397  -0.380  0.00  0.00    +0.103 C 
BRANCH  27  28
ATOM     28  C   LIG    1        1.067  -0.422   0.573  0.00  0.00    -0.058 C 
BRANCH  28  30
ATOM     29  C   LIG    1       -1.130  -1.778   0.665  0.00  0.00    -0.097 C 
ATOM     30  N   LIG    1       -0.461  -0.428   0.335  0.00  0.00    +0.377 N 
ATOM     31  H   LIG    1       -0.611  -0.249  -0.648  0.00  0.00    -0.083 HD
ATOM     32  C   LIG    1       -1.145   0.720   1.105  0.00  0.00    -0.097 C 
ENDBRANCH  28  30
ENDBRANCH  27  28
ENDBRANCH   1  27
TORSDOF 4
