REMARK  Name = DB12279
REMARK                            x       y       z     vdW  Elec       q    Type
REMARK                         _______ _______ _______ _____ _____    ______ ____
ROOT
ATOM      1  C   LIG    1       -5.840   1.757  -0.366  0.00  0.00    +0.038 C 
ATOM      2  C   LIG    1       -4.600   2.662  -0.544  0.00  0.00    +0.156 C 
ATOM      3  N   LIG    1       -4.759   3.595  -1.659  0.00  0.00    -0.304 N 
ATOM      4  H   LIG    1       -4.827   4.558  -1.359  0.00  0.00    +0.149 HD
ATOM      5  C   LIG    1       -4.751   3.387  -2.988  0.00  0.00    +0.217 C 
ATOM      6  O   LIG    1       -4.790   4.350  -3.752  0.00  0.00    -0.276 OA
ATOM      7  C   LIG    1       -4.719   1.971  -3.598  0.00  0.00    +0.144 C 
ATOM      8  C   LIG    1       -3.320   1.359  -3.882  0.00  0.00    +0.208 C 
ATOM      9  O   LIG    1       -2.749   0.776  -2.709  0.00  0.00    -0.457 OA
ATOM     10  C   LIG    1       -3.086  -0.467  -2.286  0.00  0.00    +0.310 C 
ATOM     11  C   LIG    1       -2.292  -0.896  -1.050  0.00  0.00    +0.153 C 
ATOM     12  C   LIG    1       -0.748  -0.775  -1.210  0.00  0.00    +0.145 C 
ATOM     13  C   LIG    1       -0.048   0.058  -0.092  0.00  0.00    +0.105 C 
ATOM     14  N   LIG    1       -0.542   1.443  -0.080  0.00  0.00    -0.308 N 
ATOM     15  H   LIG    1       -0.123   2.064  -0.759  0.00  0.00    +0.149 HD
ATOM     16  C   LIG    1       -1.458   1.955   0.759  0.00  0.00    +0.234 C 
ATOM     17  O   LIG    1       -2.009   1.308   1.650  0.00  0.00    -0.274 OA
ATOM     18  C   LIG    1       -1.794   3.452   0.590  0.00  0.00    +0.169 C 
ATOM     19  C   LIG    1       -1.573   4.023  -0.835  0.00  0.00    +0.112 C 
ATOM     20  S   LIG    1        0.129   4.580  -1.141  0.00  0.00    -0.091 S 
ATOM     21  S   LIG    1        0.102   5.420  -3.000  0.00  0.00    -0.093 S 
ATOM     22  C   LIG    1        0.863   4.183  -4.091  0.00  0.00    +0.085 C 
ATOM     23  C   LIG    1       -0.081   3.377  -4.994  0.00  0.00    +0.038 C 
ATOM     24  C   LIG    1       -1.030   2.454  -4.257  0.00  0.00    -0.027 C 
ATOM     25  N   LIG    1       -3.110   3.818   1.129  0.00  0.00    -0.302 N 
ATOM     26  H   LIG    1       -3.048   4.386   1.962  0.00  0.00    +0.150 HD
ATOM     27  O   LIG    1       -3.927  -1.207  -2.797  0.00  0.00    -0.251 OA
ATOM     28  C   LIG    1       -2.329   2.294  -4.570  0.00  0.00    +0.013 C 
ATOM     29  C   LIG    1       -4.358   3.513   0.719  0.00  0.00    +0.234 C 
ATOM     30  O   LIG    1       -5.339   3.937   1.330  0.00  0.00    -0.274 OA
ENDROOT
BRANCH  13  31
ATOM     31  C   LIG    1        1.514   0.045  -0.161  0.00  0.00    +0.006 C 
ATOM     32  C   LIG    1        2.085   0.662  -1.457  0.00  0.00    +0.009 C 
ATOM     33  C   LIG    1        2.156   0.702   1.079  0.00  0.00    +0.009 C 
ENDBRANCH  13  31
BRANCH  12  34
ATOM     34  O   LIG    1       -0.219  -2.087  -1.288  0.00  0.00    -0.389 OA
ATOM     35  H   LIG    1        0.731  -2.028  -1.410  0.00  0.00    +0.210 HD
ENDBRANCH  12  34
TORSDOF 2
