REMARK  Name = DB12818
REMARK                            x       y       z     vdW  Elec       q    Type
REMARK                         _______ _______ _______ _____ _____    ______ ____
ROOT
ATOM      1  C   LIG    1        1.511   0.036  -0.014  0.00  0.00    +0.123 A 
ATOM      2  O   LIG    1        2.027   0.703  -1.089  0.00  0.00    -0.426 OA
ATOM      3  C   LIG    1        3.377   0.839  -1.318  0.00  0.00    +0.348 A 
ATOM      4  O   LIG    1        3.702   1.462  -2.329  0.00  0.00    -0.244 OA
ATOM      5  C   LIG    1        4.322   0.219  -0.313  0.00  0.00    +0.108 A 
ATOM      6  C   LIG    1        5.725   0.284  -0.417  0.00  0.00    +0.135 A 
ATOM      7  C   LIG    1        6.531  -0.315   0.553  0.00  0.00    +0.091 A 
ATOM      8  C   LIG    1        5.966  -0.991   1.645  0.00  0.00    +0.124 A 
ATOM      9  C   LIG    1        4.577  -1.054   1.747  0.00  0.00    +0.054 A 
ATOM     10  C   LIG    1        3.759  -0.459   0.786  0.00  0.00    -0.001 A 
ATOM     11  C   LIG    1        2.297  -0.536   0.919  0.00  0.00    +0.051 A 
ENDROOT
BRANCH   1  13
ATOM     12  C   LIG    1       -0.603   1.496  -0.078  0.00  0.00    +0.027 C 
ATOM     13  C   LIG    1       -0.018   0.062  -0.015  0.00  0.00    +0.160 C 
BRANCH  13  14
ATOM     14  C   LIG    1       -0.538  -0.872  -1.144  0.00  0.00    +0.315 C 
ATOM     15  O   LIG    1       -0.622  -2.093  -0.876  0.00  0.00    -0.250 OA
BRANCH  14  16
ATOM     16  O   LIG    1       -0.836  -0.382  -2.259  0.00  0.00    -0.480 OA
ATOM     17  H   LIG    1       -0.754   0.540  -2.403  0.00  0.00    +0.295 HD
ENDBRANCH  14  16
ENDBRANCH  13  14
ENDBRANCH   1  13
BRANCH   6  18
ATOM     18  O   LIG    1        6.355   0.927  -1.454  0.00  0.00    -0.506 OA
ATOM     19  H   LIG    1        7.311   0.887  -1.388  0.00  0.00    +0.292 HD
ENDBRANCH   6  18
BRANCH   8  20
ATOM     20  O   LIG    1        6.692  -1.610   2.644  0.00  0.00    -0.495 OA
ATOM     21  C   LIG    1        8.114  -1.572   2.593  0.00  0.00    +0.277 C 
ENDBRANCH   8  20
TORSDOF 5
