REMARK  Name = DB12300
REMARK                            x       y       z     vdW  Elec       q    Type
REMARK                         _______ _______ _______ _____ _____    ______ ____
ROOT
ATOM      1  C   LIG    1        1.488   0.000   0.000  0.00  0.00    -0.018 A 
ATOM      2  C   LIG    1        2.207  -1.021   0.635  0.00  0.00    +0.011 A 
ATOM      3  C   LIG    1        3.599  -1.022   0.637  0.00  0.00    +0.033 A 
ATOM      4  C   LIG    1        4.313   0.000   0.000  0.00  0.00    +0.122 A 
ATOM      5  C   LIG    1        3.599   1.023  -0.637  0.00  0.00    +0.033 A 
ATOM      6  C   LIG    1        2.207   1.021  -0.635  0.00  0.00    +0.011 A 
ENDROOT
BRANCH   1  10
ATOM      7  C   LIG    1       -2.809   0.000   0.000  0.00  0.00    +0.000 A 
ATOM      8  C   LIG    1       -2.118   1.207   0.041  0.00  0.00    +0.001 A 
ATOM      9  C   LIG    1       -0.725   1.205   0.041  0.00  0.00    +0.008 A 
ATOM     10  C   LIG    1       -0.007   0.000   0.000  0.00  0.00    -0.018 A 
ATOM     11  C   LIG    1       -0.725  -1.205  -0.041  0.00  0.00    +0.008 A 
ATOM     12  C   LIG    1       -2.118  -1.207  -0.041  0.00  0.00    +0.001 A 
ENDBRANCH   1  10
BRANCH   4  13
ATOM     13  N   LIG    1        5.797   0.000   0.000  0.00  0.00    +0.006 N 
ATOM     14  O   LIG    1        6.385  -0.931   0.543  0.00  0.00    -0.130 OA
BRANCH  13  15
ATOM     15  O   LIG    1        6.385   0.931  -0.543  0.00  0.00    -0.396 OA
ATOM     16  H   LIG    1        5.897   1.622  -0.946  0.00  0.00    +0.329 HD
ENDBRANCH  13  15
ENDBRANCH   4  13
TORSDOF 3
