REMARK  Name = DB12312
REMARK                            x       y       z     vdW  Elec       q    Type
REMARK                         _______ _______ _______ _____ _____    ______ ____
ROOT
ATOM      1  C   LIG    1       -0.808  -0.600   1.241  0.00  0.00    +0.330 C 
ATOM      2  O   LIG    1       -1.255   0.112   2.146  0.00  0.00    -0.249 OA
ENDROOT
BRANCH   1   3
ATOM      3  C   LIG    1       -0.192  -0.038  -0.041  0.00  0.00    +0.166 C 
BRANCH   3   5
ATOM      4  C   LIG    1       -0.387   1.856  -1.792  0.00  0.00    +0.006 C 
ATOM      5  C   LIG    1       -0.862   1.309  -0.436  0.00  0.00    +0.027 C 
ENDBRANCH   3   5
BRANCH   3   6
ATOM      6  N   LIG    1        1.310   0.026   0.012  0.00  0.00    -0.286 NA
BRANCH   6   7
ATOM      7  C   LIG    1        1.845   0.836   1.123  0.00  0.00    +0.113 C 
BRANCH   7   8
ATOM      8  C   LIG    1        3.293   1.313   0.893  0.00  0.00    +0.174 C 
BRANCH   8   9
ATOM      9  O   LIG    1        3.585   2.339   1.831  0.00  0.00    -0.382 OA
ATOM     10  C   LIG    1        4.889   2.881   1.690  0.00  0.00    +0.194 C 
ENDBRANCH   8   9
ENDBRANCH   7   8
ENDBRANCH   6   7
BRANCH   6  11
ATOM     11  C   LIG    1        1.992  -1.280  -0.062  0.00  0.00    +0.113 C 
BRANCH  11  12
ATOM     12  C   LIG    1        1.617  -2.107  -1.315  0.00  0.00    +0.174 C 
BRANCH  12  13
ATOM     13  O   LIG    1        2.497  -3.207  -1.520  0.00  0.00    -0.382 OA
ATOM     14  C   LIG    1        3.752  -2.877  -2.101  0.00  0.00    +0.194 C 
ENDBRANCH  12  13
ENDBRANCH  11  12
ENDBRANCH   6  11
ENDBRANCH   3   6
ENDBRANCH   1   3
BRANCH   1  15
ATOM     15  O   LIG    1       -0.783  -1.964   1.243  0.00  0.00    -0.417 OA
BRANCH  15  16
ATOM     16  C   LIG    1       -1.205  -2.651   2.363  0.00  0.00    +0.214 A 
ATOM     17  C   LIG    1       -0.317  -2.853   3.434  0.00  0.00    +0.166 A 
ATOM     18  C   LIG    1       -0.760  -3.569   4.557  0.00  0.00    +0.053 A 
ATOM     19  C   LIG    1       -2.055  -4.084   4.610  0.00  0.00    -0.043 A 
ATOM     20  C   LIG    1       -2.527  -4.846   5.835  0.00  0.00    +0.044 C 
ATOM     21  C   LIG    1       -2.923  -3.882   3.537  0.00  0.00    +0.053 A 
ATOM     22  C   LIG    1       -2.509  -3.170   2.400  0.00  0.00    +0.166 A 
BRANCH  17  23
ATOM     23  O   LIG    1        0.955  -2.321   3.313  0.00  0.00    -0.491 OA
ATOM     24  C   LIG    1        1.876  -2.451   4.389  0.00  0.00    +0.277 C 
ENDBRANCH  17  23
BRANCH  22  25
ATOM     25  O   LIG    1       -3.316  -2.942   1.300  0.00  0.00    -0.491 OA
ATOM     26  C   LIG    1       -4.649  -3.440   1.294  0.00  0.00    +0.277 C 
ENDBRANCH  22  25
ENDBRANCH  15  16
ENDBRANCH   1  15
TORSDOF 13
