REMARK  Name = DB12449
REMARK                            x       y       z     vdW  Elec       q    Type
REMARK                         _______ _______ _______ _____ _____    ______ ____
ROOT
ATOM      1  C   LIG    1       -0.104   0.112  -0.170  0.00  0.00    +0.030 C 
ATOM      2  C   LIG    1        1.442   0.004  -0.045  0.00  0.00    +0.044 C 
ATOM      3  C   LIG    1        2.020   0.804  -1.263  0.00  0.00    +0.030 C 
ATOM      4  N   LIG    1        1.910  -1.422   0.067  0.00  0.00    -0.180 NA
ATOM      5  C   LIG    1        1.631  -2.224   1.309  0.00  0.00    +0.044 C 
ATOM      6  C   LIG    1        0.124  -2.575   1.463  0.00  0.00    +0.030 C 
ATOM      7  C   LIG    1        2.393  -3.592   1.409  0.00  0.00    +0.030 C 
ATOM      8  C   LIG    1        2.126  -1.397   2.541  0.00  0.00    +0.055 C 
ATOM      9  C   LIG    1        1.711   0.089   2.581  0.00  0.00    +0.118 C 
ATOM     10  C   LIG    1        1.942   0.778   1.219  0.00  0.00    +0.055 C 
ENDROOT
BRANCH   4  11
ATOM     11  O   LIG    1        3.179  -1.710  -0.583  0.00  0.00    -0.311 OA
ATOM     12  H   LIG    1        3.274  -1.150  -1.370  0.00  0.00    +0.237 HD
ENDBRANCH   4  11
BRANCH   9  13
ATOM     13  O   LIG    1        0.393   0.269   3.062  0.00  0.00    -0.392 OA
ATOM     14  H   LIG    1        0.434   0.769   3.879  0.00  0.00    +0.210 HD
ENDBRANCH   9  13
TORSDOF 2
