REMARK  Name = DB12942
REMARK                            x       y       z     vdW  Elec       q    Type
REMARK                         _______ _______ _______ _____ _____    ______ ____
ROOT
ATOM      1  O   LIG    1        0.044   0.230  -0.264  0.00  0.00    -0.340 OA
ENDROOT
BRANCH   1   6
ATOM      2  C   LIG    1        0.291   3.522   1.154  0.00  0.00    +0.178 C 
ATOM      3  C   LIG    1       -1.186   3.780   1.548  0.00  0.00    +0.177 C 
ATOM      4  C   LIG    1       -2.116   3.182   0.469  0.00  0.00    +0.179 C 
ATOM      5  C   LIG    1       -1.751   1.708   0.156  0.00  0.00    +0.201 C 
ATOM      6  C   LIG    1       -0.242   1.590  -0.125  0.00  0.00    +0.282 C 
ATOM      7  O   LIG    1        0.482   2.115   0.962  0.00  0.00    -0.341 OA
BRANCH   5   8
ATOM      8  O   LIG    1       -2.512   1.202  -0.929  0.00  0.00    -0.384 OA
ATOM      9  H   LIG    1       -2.637   1.906  -1.570  0.00  0.00    +0.210 HD
ENDBRANCH   5   8
BRANCH   4  10
ATOM     10  O   LIG    1       -3.486   3.343   0.797  0.00  0.00    -0.386 OA
ATOM     11  H   LIG    1       -3.662   2.855   1.605  0.00  0.00    +0.210 HD
ENDBRANCH   4  10
BRANCH   3  12
ATOM     12  O   LIG    1       -1.487   3.288   2.845  0.00  0.00    -0.386 OA
ATOM     13  H   LIG    1       -1.034   3.832   3.494  0.00  0.00    +0.210 HD
ENDBRANCH   3  12
BRANCH   2  14
ATOM     14  C   LIG    1        1.306   4.036   2.196  0.00  0.00    +0.190 C 
BRANCH  14  15
ATOM     15  O   LIG    1        2.625   3.916   1.705  0.00  0.00    -0.392 OA
ATOM     16  H   LIG    1        2.841   2.983   1.644  0.00  0.00    +0.210 HD
ENDBRANCH  14  15
ENDBRANCH   2  14
ENDBRANCH   1   6
BRANCH   1  17
ATOM     17  C   LIG    1        1.356  -0.109  -0.725  0.00  0.00    +0.183 C 
BRANCH  17  18
ATOM     18  C   LIG    1        1.348  -0.197  -2.280  0.00  0.00    +0.171 C 
BRANCH  18  19
ATOM     19  O   LIG    1        0.455  -1.205  -2.726  0.00  0.00    -0.387 OA
ATOM     20  H   LIG    1       -0.412  -1.028  -2.353  0.00  0.00    +0.210 HD
ENDBRANCH  18  19
BRANCH  18  21
ATOM     21  C   LIG    1        2.747  -0.449  -2.888  0.00  0.00    +0.189 C 
BRANCH  21  22
ATOM     22  O   LIG    1        2.759  -0.207  -4.282  0.00  0.00    -0.392 OA
ATOM     23  H   LIG    1        3.634  -0.409  -4.622  0.00  0.00    +0.210 HD
ENDBRANCH  21  22
ENDBRANCH  18  21
ENDBRANCH  17  18
BRANCH  17  24
ATOM     24  C   LIG    1        1.862  -1.366   0.047  0.00  0.00    +0.176 C 
BRANCH  24  25
ATOM     25  O   LIG    1        1.027  -2.488  -0.188  0.00  0.00    -0.386 OA
ATOM     26  H   LIG    1        0.893  -2.575  -1.136  0.00  0.00    +0.210 HD
ENDBRANCH  24  25
BRANCH  24  27
ATOM     27  C   LIG    1        2.087  -1.133   1.572  0.00  0.00    +0.171 C 
BRANCH  27  28
ATOM     28  O   LIG    1        0.885  -0.834   2.260  0.00  0.00    -0.387 OA
ATOM     29  H   LIG    1        0.300  -1.592   2.182  0.00  0.00    +0.210 HD
ENDBRANCH  27  28
BRANCH  27  30
ATOM     30  C   LIG    1        2.854  -2.255   2.315  0.00  0.00    +0.189 C 
BRANCH  30  31
ATOM     31  O   LIG    1        2.145  -3.479   2.364  0.00  0.00    -0.392 OA
ATOM     32  H   LIG    1        2.674  -4.121   2.843  0.00  0.00    +0.210 HD
ENDBRANCH  30  31
ENDBRANCH  27  30
ENDBRANCH  24  27
ENDBRANCH  17  24
ENDBRANCH   1  17
TORSDOF 17
