REMARK  Name = DB12052
REMARK                            x       y       z     vdW  Elec       q    Type
REMARK                         _______ _______ _______ _____ _____    ______ ____
ROOT
ATOM      1  C   LIG    1       -5.279   1.641   0.264  0.00  0.00    +0.214 A 
ATOM      2  C   LIG    1       -4.419   2.683   0.222  0.00  0.00    +0.181 A 
ATOM      3  O   LIG    1       -3.076   2.540   0.096  0.00  0.00    -0.450 OA
ATOM      4  C   LIG    1       -2.522   1.273   0.066  0.00  0.00    +0.150 A 
ATOM      5  C   LIG    1       -1.123   1.214  -0.016  0.00  0.00    +0.041 A 
ATOM      6  C   LIG    1       -0.483  -0.032  -0.070  0.00  0.00    +0.134 A 
ATOM      7  C   LIG    1       -1.268  -1.194  -0.027  0.00  0.00    +0.092 A 
ATOM      8  C   LIG    1       -2.658  -1.133   0.056  0.00  0.00    +0.135 A 
ATOM      9  C   LIG    1       -3.318   0.111   0.102  0.00  0.00    +0.109 A 
ATOM     10  C   LIG    1       -4.821   0.244   0.183  0.00  0.00    +0.238 A 
ATOM     11  O   LIG    1       -5.582  -0.724   0.181  0.00  0.00    -0.283 OA
ENDROOT
BRANCH   2  12
ATOM     12  C   LIG    1       -4.788   4.118   0.204  0.00  0.00    +0.021 A 
ATOM     13  C   LIG    1       -4.037   5.039   0.941  0.00  0.00    +0.015 A 
ATOM     14  C   LIG    1       -4.383   6.388   0.956  0.00  0.00    +0.046 A 
ATOM     15  C   LIG    1       -5.495   6.839   0.230  0.00  0.00    +0.120 A 
ATOM     16  C   LIG    1       -6.243   5.921  -0.507  0.00  0.00    +0.046 A 
ATOM     17  C   LIG    1       -5.894   4.574  -0.522  0.00  0.00    +0.015 A 
BRANCH  15  18
ATOM     18  O   LIG    1       -5.918   8.154   0.188  0.00  0.00    -0.495 OA
ATOM     19  C   LIG    1       -5.197   9.139   0.921  0.00  0.00    +0.277 C 
ENDBRANCH  15  18
ENDBRANCH   2  12
BRANCH   8  20
ATOM     20  O   LIG    1       -3.327  -2.330   0.094  0.00  0.00    -0.506 OA
ATOM     21  H   LIG    1       -2.739  -3.088   0.060  0.00  0.00    +0.292 HD
ENDBRANCH   8  20
BRANCH   1  22
ATOM     22  O   LIG    1       -6.623   1.830   0.329  0.00  0.00    -0.453 OA
BRANCH  22  26
ATOM     23  C   LIG    1       -9.639  -1.056   0.766  0.00  0.00    +0.041 C 
ATOM     24  C   LIG    1       -9.011   0.342   0.642  0.00  0.00    +0.150 C 
ATOM     25  O   LIG    1       -7.961   0.426   1.615  0.00  0.00    -0.334 OA
ATOM     26  C   LIG    1       -7.224   1.625   1.585  0.00  0.00    +0.339 C 
ATOM     27  C   LIG    1       -8.140   2.826   1.873  0.00  0.00    +0.214 C 
ATOM     28  C   LIG    1       -9.319   2.853   0.872  0.00  0.00    +0.180 C 
ATOM     29  C   LIG    1      -10.039   1.488   0.826  0.00  0.00    +0.174 C 
BRANCH  27  30
ATOM     30  O   LIG    1       -8.560   2.823   3.227  0.00  0.00    -0.383 OA
ATOM     31  H   LIG    1       -9.251   3.481   3.333  0.00  0.00    +0.210 HD
ENDBRANCH  27  30
BRANCH  28  32
ATOM     32  O   LIG    1      -10.206   3.932   1.122  0.00  0.00    -0.386 OA
ATOM     33  H   LIG    1      -10.642   3.781   1.964  0.00  0.00    +0.210 HD
ENDBRANCH  28  32
BRANCH  29  34
ATOM     34  O   LIG    1      -11.034   1.462  -0.185  0.00  0.00    -0.387 OA
ATOM     35  H   LIG    1      -10.623   1.685  -1.023  0.00  0.00    +0.210 HD
ENDBRANCH  29  34
ENDBRANCH  22  26
ENDBRANCH   1  22
BRANCH   5  36
ATOM     36  C   LIG    1       -0.304   2.508  -0.035  0.00  0.00    +0.069 C 
BRANCH  36  37
ATOM     37  C   LIG    1       -0.256   3.146  -1.416  0.00  0.00    -0.023 C 
ATOM     38  C   LIG    1        0.822   3.363  -2.201  0.00  0.00    -0.079 C 
ATOM     39  C   LIG    1        2.252   2.972  -1.854  0.00  0.00    +0.038 C 
ATOM     40  C   LIG    1        0.680   4.034  -3.557  0.00  0.00    +0.038 C 
ENDBRANCH  36  37
ENDBRANCH   5  36
BRANCH   6  41
ATOM     41  O   LIG    1        0.900  -0.044  -0.159  0.00  0.00    -0.460 OA
BRANCH  41  42
ATOM     42  C   LIG    1        1.603  -1.254  -0.200  0.00  0.00    +0.339 C 
ATOM     43  O   LIG    1        1.527  -1.887   1.052  0.00  0.00    -0.331 OA
ATOM     44  C   LIG    1        2.136  -3.181   1.072  0.00  0.00    +0.179 C 
ATOM     45  C   LIG    1        3.661  -3.002   0.873  0.00  0.00    +0.177 C 
ATOM     46  C   LIG    1        3.943  -2.198  -0.416  0.00  0.00    +0.180 C 
ATOM     47  C   LIG    1        3.073  -0.918  -0.500  0.00  0.00    +0.214 C 
BRANCH  45  48
ATOM     48  O   LIG    1        4.336  -4.249   0.851  0.00  0.00    -0.386 OA
ATOM     49  H   LIG    1        4.318  -4.624   1.735  0.00  0.00    +0.210 HD
ENDBRANCH  45  48
BRANCH  46  50
ATOM     50  O   LIG    1        5.320  -1.885  -0.543  0.00  0.00    -0.386 OA
ATOM     51  H   LIG    1        5.830  -2.641  -0.241  0.00  0.00    +0.210 HD
ENDBRANCH  46  50
BRANCH  47  52
ATOM     52  O   LIG    1        3.208  -0.294  -1.764  0.00  0.00    -0.383 OA
ATOM     53  H   LIG    1        4.133  -0.324  -2.018  0.00  0.00    +0.210 HD
ENDBRANCH  47  52
BRANCH  44  54
ATOM     54  C   LIG    1        1.773  -3.857   2.412  0.00  0.00    +0.190 C 
BRANCH  54  55
ATOM     55  O   LIG    1        0.383  -4.101   2.490  0.00  0.00    -0.392 OA
ATOM     56  H   LIG    1        0.187  -4.492   3.344  0.00  0.00    +0.210 HD
ENDBRANCH  54  55
ENDBRANCH  44  54
ENDBRANCH  41  42
ENDBRANCH   6  41
TORSDOF 17
