REMARK  Name = DB12106
REMARK                            x       y       z     vdW  Elec       q    Type
REMARK                         _______ _______ _______ _____ _____    ______ ____
ROOT
ATOM      1  C   LIG    1        1.966  -1.443   0.054  0.00  0.00    +0.094 A 
ATOM      2  N   LIG    1        2.958  -1.919   0.770  0.00  0.00    -0.234 NA
ATOM      3  C   LIG    1        3.119  -3.210   0.338  0.00  0.00    +0.089 A 
ATOM      4  C   LIG    1        4.032  -4.179   0.764  0.00  0.00    +0.030 A 
ATOM      5  C   LIG    1        3.989  -5.434   0.158  0.00  0.00    +0.006 A 
ATOM      6  C   LIG    1        3.070  -5.754  -0.856  0.00  0.00    -0.040 A 
ATOM      7  C   LIG    1        2.147  -4.783  -1.293  0.00  0.00    +0.032 A 
ATOM      8  C   LIG    1        2.193  -3.527  -0.683  0.00  0.00    +0.066 A 
ATOM      9  N   LIG    1        1.471  -2.368  -0.842  0.00  0.00    -0.343 N 
ATOM     10  H   LIG    1        0.707  -2.181  -1.474  0.00  0.00    +0.167 HD
ENDROOT
BRANCH   6  11
ATOM     11  C   LIG    1        3.100  -7.181  -1.466  0.00  0.00    -0.013 C 
ATOM     12  C   LIG    1        2.836  -8.231  -0.358  0.00  0.00    +0.015 C 
ATOM     13  C   LIG    1        2.031  -7.402  -2.571  0.00  0.00    +0.015 C 
ATOM     14  C   LIG    1        4.485  -7.448  -2.106  0.00  0.00    +0.015 C 
ENDBRANCH   6  11
BRANCH   1  15
ATOM     15  C   LIG    1        1.422  -0.023   0.199  0.00  0.00    +0.004 C 
BRANCH  15  16
ATOM     16  N   LIG    1        2.362   0.887  -0.620  0.00  0.00    +0.385 N 
ATOM     17  H   LIG    1        2.328   0.638  -1.598  0.00  0.00    -0.089 HD
ATOM     18  H   LIG    1        2.083   1.853  -0.518  0.00  0.00    -0.089 HD
ATOM     19  H   LIG    1        3.311   0.787  -0.288  0.00  0.00    -0.089 HD
ENDBRANCH  15  16
BRANCH  15  21
ATOM     20  C   LIG    1       -1.012  -0.708   0.694  0.00  0.00    +0.016 C 
ATOM     21  C   LIG    1       -0.090   0.168  -0.188  0.00  0.00    +0.064 C 
BRANCH  21  22
ATOM     22  C   LIG    1       -0.590   1.632  -0.118  0.00  0.00    +0.212 C 
ATOM     23  N   LIG    1       -1.319   2.087  -1.140  0.00  0.00    -0.329 N 
ATOM     24  H   LIG    1       -1.665   3.036  -1.131  0.00  0.00    +0.145 HD
ATOM     25  H   LIG    1       -1.546   1.486  -1.919  0.00  0.00    +0.145 HD
ATOM     26  O   LIG    1       -0.318   2.342   0.848  0.00  0.00    -0.276 OA
ENDBRANCH  21  22
ENDBRANCH  15  21
ENDBRANCH   1  15
TORSDOF 5
