REMARK  Name = DB12458
REMARK                            x       y       z     vdW  Elec       q    Type
REMARK                         _______ _______ _______ _____ _____    ______ ____
ROOT
ATOM      1  C   LIG    1       -0.051  -0.055   0.033  0.00  0.00    +0.121 A 
ATOM      2  O   LIG    1       -0.596   1.142   0.257  0.00  0.00    -0.383 OA
ATOM      3  N   LIG    1       -2.028   0.933   0.219  0.00  0.00    -0.185 N 
ATOM      4  H   LIG    1       -2.716   1.622   0.361  0.00  0.00    +0.211 HD
ATOM      5  C   LIG    1       -2.247  -0.329  -0.038  0.00  0.00    +0.280 A 
ATOM      6  O   LIG    1       -3.342  -0.875  -0.152  0.00  0.00    -0.265 OA
ATOM      7  C   LIG    1       -0.980  -0.994  -0.169  0.00  0.00    +0.114 A 
ENDROOT
BRANCH   1   8
ATOM      8  C   LIG    1        1.466  -0.088   0.019  0.00  0.00    -0.008 C 
BRANCH   8   9
ATOM      9  N   LIG    1        2.088   0.108   1.406  0.00  0.00    +0.383 N 
ATOM     10  H   LIG    1        1.819   1.007   1.781  0.00  0.00    -0.089 HD
ATOM     11  H   LIG    1        1.770  -0.617   2.033  0.00  0.00    -0.089 HD
ATOM     12  H   LIG    1        3.095   0.069   1.345  0.00  0.00    -0.089 HD
ENDBRANCH   8   9
ENDBRANCH   1   8
TORSDOF 2
