REMARK  Name = DB12288
REMARK                            x       y       z     vdW  Elec       q    Type
REMARK                         _______ _______ _______ _____ _____    ______ ____
ROOT
ATOM      1  C   LIG    1        1.502  -0.071   0.037  0.00  0.00    +0.056 C 
ENDROOT
BRANCH   1   5
ATOM      2  C   LIG    1       -1.791   3.323   0.001  0.00  0.00    +0.121 A 
ATOM      3  C   LIG    1       -0.688   2.453  -0.001  0.00  0.00    +0.056 A 
ATOM      4  C   LIG    1       -0.893   1.065  -0.074  0.00  0.00    +0.006 A 
ATOM      5  C   LIG    1       -0.012  -0.078  -0.078  0.00  0.00    -0.021 A 
ATOM      6  C   LIG    1       -0.839  -1.180  -0.185  0.00  0.00    +0.087 A 
ATOM      7  N   LIG    1       -2.152  -0.791  -0.232  0.00  0.00    -0.360 N 
ATOM      8  H   LIG    1       -2.913  -1.451  -0.302  0.00  0.00    +0.165 HD
ATOM      9  C   LIG    1       -2.232   0.581  -0.161  0.00  0.00    +0.047 A 
ATOM     10  C   LIG    1       -3.338   1.435  -0.165  0.00  0.00    +0.030 A 
ATOM     11  C   LIG    1       -3.081   2.802  -0.078  0.00  0.00    +0.047 A 
BRANCH   2  13
ATOM     12  C   LIG    1       -0.406   5.305   0.135  0.00  0.00    +0.277 C 
ATOM     13  O   LIG    1       -1.693   4.699   0.078  0.00  0.00    -0.495 OA
ENDBRANCH   2  13
ENDBRANCH   1   5
BRANCH   1  14
ATOM     14  C   LIG    1        2.003  -0.056   1.497  0.00  0.00    +0.109 C 
BRANCH  14  15
ATOM     15  N   LIG    1        1.531   1.098   2.263  0.00  0.00    -0.309 N 
ATOM     16  H   LIG    1        0.661   0.976   2.761  0.00  0.00    +0.149 HD
ATOM     17  C   LIG    1        2.129   2.304   2.309  0.00  0.00    +0.279 C 
ATOM     18  O   LIG    1        3.201   2.535   1.746  0.00  0.00    -0.267 OA
BRANCH  17  19
ATOM     19  C   LIG    1        1.393   3.311   3.056  0.00  0.00    +0.193 A 
ATOM     20  O   LIG    1        0.134   2.978   3.479  0.00  0.00    -0.458 OA
ATOM     21  C   LIG    1       -0.653   3.929   4.045  0.00  0.00    +0.199 A 
ATOM     22  C   LIG    1       -0.217   5.169   4.347  0.00  0.00    +0.089 A 
ATOM     23  C   LIG    1        1.162   5.575   4.041  0.00  0.00    +0.186 A 
ATOM     24  O   LIG    1        1.626   6.674   4.338  0.00  0.00    -0.288 OA
ATOM     25  C   LIG    1        1.921   4.538   3.320  0.00  0.00    +0.102 A 
ENDBRANCH  17  19
ENDBRANCH  14  15
ENDBRANCH   1  14
TORSDOF 5
