REMARK  Name = DB12894
REMARK                            x       y       z     vdW  Elec       q    Type
REMARK                         _______ _______ _______ _____ _____    ______ ____
ROOT
ATOM      1  C   LIG    1       -0.937   3.537  -1.574  0.00  0.00    +0.118 A 
ATOM      2  N   LIG    1       -1.983   2.653  -1.446  0.00  0.00    -0.273 N 
ATOM      3  C   LIG    1       -3.292   3.087  -1.556  0.00  0.00    +0.331 A 
ATOM      4  O   LIG    1       -4.307   2.395  -1.463  0.00  0.00    -0.246 OA
ATOM      5  N   LIG    1       -3.408   4.433  -1.800  0.00  0.00    -0.274 N 
ATOM      6  H   LIG    1       -4.356   4.771  -1.886  0.00  0.00    +0.173 HD
ATOM      7  C   LIG    1       -2.441   5.387  -1.947  0.00  0.00    +0.272 A 
ATOM      8  O   LIG    1       -2.711   6.566  -2.168  0.00  0.00    -0.266 OA
ATOM      9  C   LIG    1       -1.093   4.854  -1.813  0.00  0.00    +0.121 A 
ATOM     10 CL   LIG    1        0.295   5.938  -1.962  0.00  0.00    -0.076 Cl
ENDROOT
BRANCH   2  11
ATOM     11  C   LIG    1       -1.697   1.247  -1.190  0.00  0.00    +0.227 C 
ATOM     12  O   LIG    1       -0.961   1.107  -0.008  0.00  0.00    -0.348 OA
ATOM     13  C   LIG    1       -0.181  -0.088  -0.017  0.00  0.00    +0.180 C 
ATOM     14  C   LIG    1       -0.405  -0.674  -1.419  0.00  0.00    +0.201 C 
ATOM     15  F   LIG    1       -1.378  -1.587  -1.343  0.00  0.00    -0.243 F 
ATOM     16  C   LIG    1       -0.910   0.492  -2.255  0.00  0.00    +0.094 C 
BRANCH  13  17
ATOM     17  C   LIG    1        1.276   0.283   0.337  0.00  0.00    +0.190 C 
BRANCH  17  18
ATOM     18  O   LIG    1        1.900   1.076  -0.656  0.00  0.00    -0.392 OA
ATOM     19  H   LIG    1        2.797   1.269  -0.374  0.00  0.00    +0.210 HD
ENDBRANCH  17  18
ENDBRANCH  13  17
ENDBRANCH   2  11
TORSDOF 3
