REMARK  Name = DB12230
REMARK                            x       y       z     vdW  Elec       q    Type
REMARK                         _______ _______ _______ _____ _____    ______ ____
ROOT
ATOM      1  C   LIG    1       -1.352  -0.952   0.493  0.00  0.00    +0.057 C 
ATOM      2  C   LIG    1       -2.161  -1.988   0.995  0.00  0.00    +0.057 C 
ATOM      3  C   LIG    1       -3.354  -2.321   0.333  0.00  0.00    +0.138 C 
ATOM      4  C   LIG    1       -3.736  -1.624  -0.823  0.00  0.00    +0.137 C 
ATOM      5  C   LIG    1       -2.928  -0.589  -1.324  0.00  0.00    +0.045 C 
ATOM      6  N   LIG    1       -0.173  -0.601   1.112  0.00  0.00    -0.274 NA
ATOM      7  H   LIG    1        0.113  -1.106   1.938  0.00  0.00    +0.126 HD
ATOM      8  C   LIG    1        0.636   0.380   0.657  0.00  0.00    +0.177 C 
ATOM      9  N   LIG    1        0.313   1.109  -0.446  0.00  0.00    -0.261 NA
ATOM     10  H   LIG    1        0.245   2.084  -0.154  0.00  0.00    +0.127 HD
ATOM     11  C   LIG    1       -0.831   0.805  -1.103  0.00  0.00    +0.112 C 
ATOM     12  C   LIG    1       -1.718  -0.229  -0.677  0.00  0.00    +0.042 C 
ENDROOT
BRANCH   8  13
ATOM     13  N   LIG    1        1.881   0.691   1.337  0.00  0.00    -0.267 NA
ATOM     14  C   LIG    1        2.460  -0.358   2.209  0.00  0.00    +0.089 C 
ATOM     15  C   LIG    1        3.052  -1.570   1.445  0.00  0.00    +0.034 C 
ATOM     16  C   LIG    1        4.256  -1.249   0.525  0.00  0.00    +0.109 C 
ATOM     17  N   LIG    1        4.002  -0.225  -0.504  0.00  0.00    -0.300 N 
ATOM     18  C   LIG    1        3.258  -0.520  -1.608  0.00  0.00    +0.216 C 
ATOM     19  O   LIG    1        2.749  -1.631  -1.782  0.00  0.00    -0.276 OA
ATOM     20  C   LIG    1        4.077   1.147   0.035  0.00  0.00    +0.123 C 
ATOM     21  C   LIG    1        2.809   1.698   0.754  0.00  0.00    +0.106 C 
BRANCH  18  22
ATOM     22  C   LIG    1        3.071   0.572  -2.686  0.00  0.00    +0.096 C 
BRANCH  22  23
ATOM     23  C   LIG    1        2.233   0.135  -3.908  0.00  0.00    +0.006 C 
ATOM     24  C   LIG    1        2.014   1.275  -4.912  0.00  0.00    +0.004 C 
ENDBRANCH  22  23
ENDBRANCH  18  22
ENDBRANCH   8  13
BRANCH  11  25
ATOM     25  N   LIG    1       -1.084   1.578  -2.237  0.00  0.00    -0.310 NA
ATOM     26  H   LIG    1       -0.426   2.299  -2.497  0.00  0.00    +0.120 HD
ATOM     27  H   LIG    1       -1.918   1.411  -2.781  0.00  0.00    +0.120 HD
ENDBRANCH  11  25
BRANCH   4  28
ATOM     28  O   LIG    1       -4.925  -2.013  -1.416  0.00  0.00    -0.370 OA
ATOM     29  C   LIG    1       -5.376  -1.353  -2.594  0.00  0.00    +0.195 C 
ENDBRANCH   4  28
BRANCH   3  30
ATOM     30  O   LIG    1       -4.202  -3.326   0.764  0.00  0.00    -0.370 OA
ATOM     31  C   LIG    1       -3.875  -4.075   1.930  0.00  0.00    +0.195 C 
ENDBRANCH   3  30
TORSDOF 6
