REMARK  Name = DB12588
REMARK                            x       y       z     vdW  Elec       q    Type
REMARK                         _______ _______ _______ _____ _____    ______ ____
ROOT
ATOM      1  C   LIG    1        0.302   0.076   0.574  0.00  0.00    +0.217 A 
ATOM      2  N   LIG    1       -0.325  -1.131   0.560  0.00  0.00    -0.221 NA
ATOM      3  C   LIG    1       -1.676  -1.121   0.687  0.00  0.00    +0.137 A 
ATOM      4  C   LIG    1       -2.408   0.060   0.820  0.00  0.00    +0.099 A 
ATOM      5 CL   LIG    1       -4.131  -0.010   0.977  0.00  0.00    -0.078 Cl
ATOM      6  C   LIG    1       -1.689   1.268   0.819  0.00  0.00    +0.148 A 
ATOM      7  N   LIG    1       -0.331   1.270   0.693  0.00  0.00    -0.198 NA
ENDROOT
BRANCH   1   8
ATOM      8  N   LIG    1        1.698   0.156   0.440  0.00  0.00    -0.304 N 
ATOM      9  H   LIG    1        2.084   1.075   0.276  0.00  0.00    +0.150 HD
BRANCH   8  10
ATOM     10  C   LIG    1        2.590  -0.989   0.225  0.00  0.00    +0.138 C 
ATOM     11  C   LIG    1        4.046  -0.526   0.030  0.00  0.00    +0.036 C 
BRANCH  10  12
ATOM     12  C   LIG    1        2.473  -2.042   1.332  0.00  0.00    +0.149 A 
ATOM     13  N   LIG    1        2.864  -1.682   2.588  0.00  0.00    -0.236 NA
ATOM     14  C   LIG    1        2.739  -2.635   3.550  0.00  0.00    +0.152 A 
ATOM     15  C   LIG    1        2.244  -3.912   3.277  0.00  0.00    +0.159 A 
ATOM     16  F   LIG    1        2.127  -4.845   4.248  0.00  0.00    -0.202 F 
ATOM     17  C   LIG    1        1.877  -4.184   1.957  0.00  0.00    +0.152 A 
ATOM     18  N   LIG    1        1.987  -3.260   0.966  0.00  0.00    -0.236 NA
ENDBRANCH  10  12
ENDBRANCH   8  10
ENDBRANCH   1   8
BRANCH   6  19
ATOM     19  N   LIG    1       -2.391   2.483   0.950  0.00  0.00    -0.282 N 
ATOM     20  H   LIG    1       -3.382   2.323   1.056  0.00  0.00    +0.155 HD
BRANCH  19  21
ATOM     21  C   LIG    1       -1.946   3.789   0.953  0.00  0.00    +0.146 A 
ATOM     22  C   LIG    1       -2.750   4.925   1.131  0.00  0.00    +0.068 A 
ATOM     23  C   LIG    1       -1.922   6.031   1.066  0.00  0.00    +0.035 A 
ATOM     24  C   LIG    1       -2.159   7.516   1.180  0.00  0.00    +0.065 C 
ATOM     25  N   LIG    1       -0.686   5.485   0.853  0.00  0.00    -0.280 N 
ATOM     26  H   LIG    1        0.165   6.020   0.754  0.00  0.00    +0.189 HD
ATOM     27  N   LIG    1       -0.689   4.151   0.782  0.00  0.00    -0.158 NA
ENDBRANCH  19  21
ENDBRANCH   6  19
TORSDOF 5
