REMARK  Name = DB12598
REMARK                            x       y       z     vdW  Elec       q    Type
REMARK                         _______ _______ _______ _____ _____    ______ ____
ROOT
ATOM      1  O   LIG    1       -0.594  -1.025   0.160  0.00  0.00    -0.422 OA
ENDROOT
BRANCH   1   3
ATOM      2  C   LIG    1       -2.694  -1.070   1.307  0.00  0.00    +0.055 A 
ATOM      3  C   LIG    1       -1.971  -1.055   0.114  0.00  0.00    +0.133 A 
ATOM      4  C   LIG    1       -2.642  -1.117  -1.109  0.00  0.00    +0.047 A 
ATOM      5  C   LIG    1       -4.032  -1.169  -1.158  0.00  0.00    +0.012 A 
ATOM      6  C   LIG    1       -4.791  -1.166   0.038  0.00  0.00    -0.017 A 
ATOM      7  C   LIG    1       -6.207  -1.212   0.023  0.00  0.00    +0.024 A 
ATOM      8  C   LIG    1       -6.962  -1.213   1.210  0.00  0.00    +0.061 A 
ATOM      9  C   LIG    1       -6.261  -1.169   2.428  0.00  0.00    +0.016 A 
ATOM     10  C   LIG    1       -4.871  -1.122   2.480  0.00  0.00    +0.009 A 
ATOM     11  C   LIG    1       -4.111  -1.119   1.290  0.00  0.00    -0.014 A 
BRANCH   8  12
ATOM     12  C   LIG    1       -8.439  -1.260   1.177  0.00  0.00    +0.266 C 
ATOM     13  N   LIG    1       -9.093  -2.015   2.055  0.00  0.00    -0.288 N 
ATOM     14  H   LIG    1       -8.575  -2.553   2.735  0.00  0.00    +0.301 HD
ATOM     15  H   LIG    1      -10.101  -2.052   2.037  0.00  0.00    +0.301 HD
BRANCH  12  16
ATOM     16  N   LIG    1       -9.100  -0.545   0.270  0.00  0.00    -0.250 N 
ATOM     17  H   LIG    1       -8.588   0.028  -0.385  0.00  0.00    +0.288 HD
ATOM     18  H   LIG    1      -10.108  -0.572   0.245  0.00  0.00    +0.288 HD
ENDBRANCH  12  16
ENDBRANCH   8  12
ENDBRANCH   1   3
BRANCH   1  19
ATOM     19  C   LIG    1        0.079   0.131  -0.140  0.00  0.00    +0.344 C 
ATOM     20  O   LIG    1       -0.476   1.201  -0.413  0.00  0.00    -0.245 OA
BRANCH  19  21
ATOM     21  C   LIG    1        1.571  -0.026  -0.084  0.00  0.00    +0.060 A 
ATOM     22  C   LIG    1        2.180  -1.267   0.158  0.00  0.00    +0.017 A 
ATOM     23  C   LIG    1        3.567  -1.381   0.196  0.00  0.00    +0.024 A 
ATOM     24  C   LIG    1        4.371  -0.251   0.006  0.00  0.00    +0.030 A 
ATOM     25  C   LIG    1        3.772   0.982  -0.257  0.00  0.00    +0.024 A 
ATOM     26  C   LIG    1        2.385   1.095  -0.295  0.00  0.00    +0.017 A 
BRANCH  24  27
ATOM     27  N   LIG    1        5.804  -0.308   0.004  0.00  0.00    -0.310 N 
ATOM     28  H   LIG    1        6.269   0.454  -0.468  0.00  0.00    +0.149 HD
BRANCH  27  29
ATOM     29  C   LIG    1        6.645  -1.115   0.668  0.00  0.00    +0.184 C 
BRANCH  29  30
ATOM     30  N   LIG    1        7.938  -0.999   0.404  0.00  0.00    -0.294 NA
ATOM     31  H   LIG    1        8.293  -0.154  -0.020  0.00  0.00    +0.122 HD
ATOM     32  H   LIG    1        8.568  -1.757   0.625  0.00  0.00    +0.122 HD
ENDBRANCH  29  30
BRANCH  29  33
ATOM     33  N   LIG    1        6.295  -2.007   1.592  0.00  0.00    -0.294 NA
ATOM     34  H   LIG    1        5.323  -2.115   1.841  0.00  0.00    +0.122 HD
ATOM     35  H   LIG    1        7.002  -2.569   2.045  0.00  0.00    +0.122 HD
ENDBRANCH  29  33
ENDBRANCH  27  29
ENDBRANCH  24  27
ENDBRANCH  19  21
ENDBRANCH   1  19
TORSDOF 9
