REMARK  Name = DB12658
REMARK                            x       y       z     vdW  Elec       q    Type
REMARK                         _______ _______ _______ _____ _____    ______ ____
ROOT
ATOM      1  N   LIG    1        1.555  -0.073  -0.062  0.00  0.00    -0.294 N 
ATOM      2  C   LIG    1        2.168   0.221   1.124  0.00  0.00    +0.240 C 
ATOM      3  O   LIG    1        3.374   0.029   1.308  0.00  0.00    -0.271 OA
ATOM      4  C   LIG    1        2.291  -0.759  -1.131  0.00  0.00    +0.133 C 
ENDROOT
BRANCH   2   5
ATOM      5  C   LIG    1        1.346   0.790   2.176  0.00  0.00    +0.068 C 
ATOM      6  C   LIG    1        1.844   1.604   3.132  0.00  0.00    +0.014 C 
BRANCH   6   7
ATOM      7  C   LIG    1        1.063   2.268   4.195  0.00  0.00    -0.006 A 
ATOM      8  C   LIG    1        1.730   2.891   5.257  0.00  0.00    +0.120 A 
ATOM      9  N   LIG    1        1.094   3.540   6.265  0.00  0.00    -0.239 NA
ATOM     10  C   LIG    1       -0.260   3.569   6.232  0.00  0.00    +0.128 A 
ATOM     11  N   LIG    1       -0.871   4.324   7.233  0.00  0.00    -0.270 N 
ATOM     12  H   LIG    1       -0.317   4.564   8.043  0.00  0.00    +0.156 HD
ATOM     13  C   LIG    1       -2.151   4.754   7.282  0.00  0.00    +0.219 C 
ATOM     14  C   LIG    1       -2.971   4.412   6.007  0.00  0.00    +0.101 C 
ATOM     15  C   LIG    1       -2.539   3.081   5.324  0.00  0.00    +0.048 C 
ATOM     16  O   LIG    1       -2.599   5.394   8.230  0.00  0.00    -0.275 OA
ATOM     17  C   LIG    1       -1.025   2.974   5.224  0.00  0.00    -0.006 A 
ATOM     18  C   LIG    1       -0.341   2.319   4.196  0.00  0.00    +0.016 A 
ENDBRANCH   6   7
ENDBRANCH   2   5
BRANCH   1  19
ATOM     19  C   LIG    1        0.111   0.044  -0.357  0.00  0.00    +0.182 C 
BRANCH  19  22
ATOM     20  C   LIG    1        1.112   2.992  -1.698  0.00  0.00    +0.048 C 
ATOM     21  C   LIG    1       -0.039   2.692  -0.765  0.00  0.00    -0.000 A 
ATOM     22  C   LIG    1       -0.435   1.460  -0.240  0.00  0.00    +0.126 A 
ATOM     23  O   LIG    1       -1.525   1.582   0.571  0.00  0.00    -0.458 OA
ATOM     24  C   LIG    1       -1.837   2.905   0.601  0.00  0.00    +0.136 A 
ATOM     25  C   LIG    1       -2.884   3.484   1.328  0.00  0.00    +0.047 A 
ATOM     26  C   LIG    1       -3.027   4.868   1.231  0.00  0.00    +0.004 A 
ATOM     27  C   LIG    1       -2.167   5.632   0.440  0.00  0.00    +0.001 A 
ATOM     28  C   LIG    1       -1.127   5.041  -0.285  0.00  0.00    +0.012 A 
ATOM     29  C   LIG    1       -0.951   3.649  -0.206  0.00  0.00    +0.023 A 
ENDBRANCH  19  22
ENDBRANCH   1  19
TORSDOF 4
