REMARK  Name = DB12902
REMARK                            x       y       z     vdW  Elec       q    Type
REMARK                         _______ _______ _______ _____ _____    ______ ____
ROOT
ATOM      1  C   LIG    1        3.953   2.424  -0.001  0.00  0.00    +0.044 C 
ATOM      2  C   LIG    1        3.854   1.714  -1.360  0.00  0.00    +0.171 C 
ATOM      3  O   LIG    1        2.527   1.257  -1.546  0.00  0.00    -0.305 OA
ATOM      4  P   LIG    1        1.910   0.156  -0.508  0.00  0.00    +0.348 P 
ATOM      5  O   LIG    1        2.468  -1.212  -0.694  0.00  0.00    -0.254 OA
ATOM      6  N   LIG    1        2.231   0.902   1.009  0.00  0.00    -0.218 NA
ATOM      7  C   LIG    1        3.569   1.503   1.171  0.00  0.00    +0.097 C 
ENDROOT
BRANCH   4   8
ATOM      8  N   LIG    1        0.209   0.328  -0.616  0.00  0.00    -0.217 NA
BRANCH   8   9
ATOM      9  C   LIG    1       -0.607  -0.803  -1.079  0.00  0.00    +0.111 C 
BRANCH   9  10
ATOM     10  C   LIG    1       -0.935  -1.819   0.025  0.00  0.00    +0.124 C 
ATOM     11 CL   LIG    1       -1.915  -3.150  -0.638  0.00  0.00    -0.124 Cl
ENDBRANCH   9  10
ENDBRANCH   8   9
BRANCH   8  12
ATOM     12  C   LIG    1       -0.432   1.657  -0.577  0.00  0.00    +0.111 C 
BRANCH  12  13
ATOM     13  C   LIG    1       -1.763   1.760   0.195  0.00  0.00    +0.124 C 
ATOM     14 CL   LIG    1       -1.566   1.372   1.923  0.00  0.00    -0.124 Cl
ENDBRANCH  12  13
ENDBRANCH   8  12
ENDBRANCH   4   8
BRANCH   6  15
ATOM     15  C   LIG    1        1.766   0.139   2.180  0.00  0.00    +0.110 C 
BRANCH  15  16
ATOM     16  C   LIG    1        1.589   0.959   3.470  0.00  0.00    +0.124 C 
ATOM     17 CL   LIG    1        0.823  -0.042   4.729  0.00  0.00    -0.124 Cl
ENDBRANCH  15  16
ENDBRANCH   6  15
TORSDOF 7
