REMARK  Name = DB12063
REMARK                            x       y       z     vdW  Elec       q    Type
REMARK                         _______ _______ _______ _____ _____    ______ ____
ROOT
ATOM      1  C   LIG    1       -0.163   0.269  -0.232  0.00  0.00    +0.403 C 
ATOM      2  N   LIG    1        0.958   0.329   0.618  0.00  0.00    -0.265 N 
ATOM      3  C   LIG    1        1.749   1.573   0.685  0.00  0.00    +0.148 C 
ATOM      4  C   LIG    1        1.592   2.164   2.107  0.00  0.00    +0.188 C 
ATOM      5  F   LIG    1        0.319   2.525   2.298  0.00  0.00    -0.244 F 
ATOM      6  C   LIG    1        1.997   1.128   3.189  0.00  0.00    +0.043 C 
ATOM      7  C   LIG    1        1.156  -0.156   2.991  0.00  0.00    +0.027 C 
ATOM      8  C   LIG    1        1.305  -0.748   1.572  0.00  0.00    +0.111 C 
ATOM      9  O   LIG    1       -0.514   1.163  -1.007  0.00  0.00    -0.226 OA
ENDROOT
BRANCH   1  10
ATOM     10  O   LIG    1       -0.823  -0.912  -0.118  0.00  0.00    -0.445 OA
BRANCH  10  11
ATOM     11  C   LIG    1       -1.982  -1.186  -0.894  0.00  0.00    +0.269 C 
BRANCH  11  16
ATOM     12  C   LIG    1       -3.733  -6.642   0.127  0.00  0.00    +0.044 C 
ATOM     13  C   LIG    1       -3.272  -5.221  -0.145  0.00  0.00    -0.050 A 
ATOM     14  C   LIG    1       -2.542  -4.927  -1.298  0.00  0.00    +0.004 A 
ATOM     15  C   LIG    1       -2.125  -3.620  -1.541  0.00  0.00    +0.007 A 
ATOM     16  C   LIG    1       -2.438  -2.609  -0.631  0.00  0.00    -0.010 A 
ATOM     17  C   LIG    1       -3.169  -2.903   0.522  0.00  0.00    +0.007 A 
ATOM     18  C   LIG    1       -3.585  -4.210   0.765  0.00  0.00    +0.004 A 
ENDBRANCH  11  16
ENDBRANCH  10  11
ENDBRANCH   1  10
BRANCH   6  19
ATOM     19  C   LIG    1        1.882   1.656   4.638  0.00  0.00    +0.110 C 
BRANCH  19  20
ATOM     20  N   LIG    1        2.824   2.729   4.955  0.00  0.00    -0.313 N 
ATOM     21  H   LIG    1        3.803   2.490   5.009  0.00  0.00    +0.149 HD
BRANCH  20  22
ATOM     22  C   LIG    1        2.487   4.090   4.882  0.00  0.00    +0.215 A 
ATOM     23  N   LIG    1        1.190   4.464   4.687  0.00  0.00    -0.223 NA
ATOM     24  C   LIG    1        0.938   5.798   4.625  0.00  0.00    +0.116 A 
ATOM     25  C   LIG    1        1.944   6.756   4.756  0.00  0.00    +0.039 A 
ATOM     26  C   LIG    1        3.242   6.280   4.956  0.00  0.00    +0.116 A 
ATOM     27  N   LIG    1        3.528   4.953   5.021  0.00  0.00    -0.223 NA
ENDBRANCH  20  22
ENDBRANCH  19  20
ENDBRANCH   6  19
TORSDOF 6
