REMARK  Name = DB12124
REMARK                            x       y       z     vdW  Elec       q    Type
REMARK                         _______ _______ _______ _____ _____    ______ ____
ROOT
ATOM      1  C   LIG    1       -5.631   4.968  -0.101  0.00  0.00    +0.188 C 
ATOM      2  C   LIG    1       -5.723   6.408  -0.675  0.00  0.00    +0.344 C 
ATOM      3  O   LIG    1       -6.714   6.944  -1.171  0.00  0.00    -0.247 OA
ATOM      4  O   LIG    1       -4.579   7.158  -0.691  0.00  0.00    -0.457 OA
ATOM      5  C   LIG    1       -3.345   6.719  -0.101  0.00  0.00    +0.273 C 
ATOM      6  C   LIG    1       -3.136   5.203  -0.108  0.00  0.00    +0.061 A 
ATOM      7  C   LIG    1       -1.746   4.712  -0.100  0.00  0.00    +0.259 A 
ATOM      8  O   LIG    1       -0.769   5.464  -0.105  0.00  0.00    -0.267 OA
ATOM      9  N   LIG    1       -1.615   3.346  -0.078  0.00  0.00    -0.302 N 
ATOM     10  C   LIG    1       -0.328   2.663  -0.059  0.00  0.00    +0.163 C 
ATOM     11  C   LIG    1       -0.739   1.208  -0.034  0.00  0.00    +0.009 A 
ATOM     12  C   LIG    1        0.016   0.018  -0.018  0.00  0.00    +0.012 A 
ATOM     13  C   LIG    1       -0.718  -1.226  -0.013  0.00  0.00    +0.009 A 
ATOM     14  C   LIG    1       -0.109  -2.520   0.010  0.00  0.00    +0.010 A 
ATOM     15  C   LIG    1       -0.882  -3.678   0.018  0.00  0.00    +0.001 A 
ATOM     16  C   LIG    1       -2.268  -3.604   0.006  0.00  0.00    +0.002 A 
ATOM     17  C   LIG    1       -2.908  -2.370  -0.012  0.00  0.00    +0.028 A 
ATOM     18  C   LIG    1       -2.152  -1.172  -0.020  0.00  0.00    +0.072 A 
ATOM     19  N   LIG    1       -2.837   0.002  -0.033  0.00  0.00    -0.245 NA
ATOM     20  C   LIG    1       -2.122   1.146  -0.040  0.00  0.00    +0.094 A 
ATOM     21  C   LIG    1       -2.694   2.498  -0.065  0.00  0.00    +0.071 A 
ATOM     22  C   LIG    1       -3.969   2.931  -0.080  0.00  0.00    +0.035 A 
ATOM     23  C   LIG    1       -4.217   4.373  -0.116  0.00  0.00    +0.008 A 
ENDROOT
BRANCH   1  25
ATOM     24  C   LIG    1       -5.486   5.750   2.418  0.00  0.00    +0.007 C 
ATOM     25  C   LIG    1       -6.226   4.929   1.341  0.00  0.00    +0.048 C 
ENDBRANCH   1  25
BRANCH   1  26
ATOM     26  O   LIG    1       -6.508   4.156  -0.870  0.00  0.00    -0.373 OA
ATOM     27  H   LIG    1       -6.195   4.143  -1.778  0.00  0.00    +0.211 HD
ENDBRANCH   1  26
BRANCH  12  28
ATOM     28  C   LIG    1        1.494   0.064  -0.036  0.00  0.00    +0.162 C 
ATOM     29  N   LIG    1        2.187   1.041   0.384  0.00  0.00    -0.093 NA
BRANCH  29  30
ATOM     30  O   LIG    1        3.553   0.763   0.206  0.00  0.00    -0.396 OA
BRANCH  30  31
ATOM     31  C   LIG    1        4.314   1.883   0.645  0.00  0.00    +0.243 C 
BRANCH  31  32
ATOM     32  C   LIG    1        5.824   1.599   0.528  0.00  0.00    -0.042 C 
BRANCH  32  33
ATOM     33  N   LIG    1        6.216   0.350   1.329  0.00  0.00    +0.380 N 
ATOM     34  H   LIG    1        5.996   0.482   2.307  0.00  0.00    -0.090 HD
ATOM     35  H   LIG    1        5.706  -0.452   0.988  0.00  0.00    -0.090 HD
ATOM     36  H   LIG    1        7.206   0.172   1.239  0.00  0.00    -0.090 HD
ENDBRANCH  32  33
ENDBRANCH  31  32
ENDBRANCH  30  31
ENDBRANCH  29  30
ENDBRANCH  12  28
TORSDOF 7
