REMARK  Name = DB12964
REMARK                            x       y       z     vdW  Elec       q    Type
REMARK                         _______ _______ _______ _____ _____    ______ ____
ROOT
ATOM      1  N   LIG    1        1.646   0.090  -0.333  0.00  0.00    -0.307 N 
ATOM      2  C   LIG    1        2.643   0.553  -1.173  0.00  0.00    +0.199 A 
ATOM      3  N   LIG    1        3.856   0.343  -0.728  0.00  0.00    -0.214 NA
ATOM      4  C   LIG    1        3.672  -0.260   0.487  0.00  0.00    +0.091 A 
ATOM      5  C   LIG    1        4.635  -0.691   1.412  0.00  0.00    +0.030 A 
ATOM      6  C   LIG    1        4.191  -1.271   2.602  0.00  0.00    +0.002 A 
ATOM      7  C   LIG    1        2.831  -1.421   2.872  0.00  0.00    +0.002 A 
ATOM      8  C   LIG    1        1.847  -1.004   1.971  0.00  0.00    +0.028 A 
ATOM      9  C   LIG    1        2.292  -0.426   0.776  0.00  0.00    +0.070 A 
ENDROOT
BRANCH   2  10
ATOM     10  N   LIG    1        2.357   1.184  -2.344  0.00  0.00    -0.305 N 
ATOM     11  C   LIG    1        2.332   2.645  -2.469  0.00  0.00    +0.089 C 
ATOM     12  C   LIG    1        1.179   3.156  -3.360  0.00  0.00    -0.063 C 
ATOM     13  N   LIG    1        1.260   2.483  -4.739  0.00  0.00    +0.381 N 
ATOM     14  H   LIG    1        0.489   2.785  -5.318  0.00  0.00    -0.086 HD
ATOM     15  H   LIG    1        2.115   2.759  -5.201  0.00  0.00    -0.086 HD
ATOM     16  C   LIG    1        1.230   0.954  -4.579  0.00  0.00    -0.063 C 
ATOM     17  C   LIG    1        2.377   0.506  -3.644  0.00  0.00    +0.089 C 
ENDBRANCH   2  10
BRANCH   1  18
ATOM     18  C   LIG    1        0.198   0.206  -0.528  0.00  0.00    +0.160 C 
BRANCH  18  22
ATOM     19  C   LIG    1       -1.611   3.951   0.619  0.00  0.00    +0.000 A 
ATOM     20  C   LIG    1       -0.427   3.554   1.236  0.00  0.00    +0.000 A 
ATOM     21  C   LIG    1        0.167   2.348   0.877  0.00  0.00    +0.005 A 
ATOM     22  C   LIG    1       -0.420   1.539  -0.104  0.00  0.00    -0.028 A 
ATOM     23  C   LIG    1       -1.614   1.943  -0.710  0.00  0.00    +0.005 A 
ATOM     24  C   LIG    1       -2.208   3.150  -0.352  0.00  0.00    +0.000 A 
ENDBRANCH  18  22
ENDBRANCH   1  18
TORSDOF 3
