REMARK  Name = DB12962
REMARK                            x       y       z     vdW  Elec       q    Type
REMARK                         _______ _______ _______ _____ _____    ______ ____
ROOT
ATOM      1  C   LIG    1       -1.111   1.243  -0.191  0.00  0.00    +0.128 A 
ATOM      2  C   LIG    1       -2.421   0.997  -0.675  0.00  0.00    +0.237 A 
ATOM      3  N   LIG    1       -2.629  -0.075  -1.417  0.00  0.00    -0.172 NA
ATOM      4  S   LIG    1       -1.155  -0.919  -1.581  0.00  0.00    +0.032 S 
ATOM      5  C   LIG    1       -0.245   0.242  -0.655  0.00  0.00    +0.109 A 
ENDROOT
BRANCH   5   6
ATOM      6  N   LIG    1        1.132   0.146  -0.440  0.00  0.00    -0.262 N 
ATOM      7  H   LIG    1        1.543   0.929   0.049  0.00  0.00    +0.157 HD
ATOM      8  C   LIG    1        1.963  -0.848  -0.818  0.00  0.00    +0.304 C 
ATOM      9  N   LIG    1        3.230  -0.572  -0.466  0.00  0.00    -0.299 N 
ATOM     10  H   LIG    1        3.419   0.312  -0.015  0.00  0.00    +0.150 HD
ATOM     11  O   LIG    1        1.626  -1.878  -1.407  0.00  0.00    -0.252 OA
BRANCH   9  12
ATOM     12  C   LIG    1        4.401  -1.404  -0.759  0.00  0.00    +0.105 C 
BRANCH  12  13
ATOM     13  C   LIG    1        4.764  -2.397   0.364  0.00  0.00    +0.017 C 
BRANCH  13  14
ATOM     14  C   LIG    1        3.683  -3.451   0.671  0.00  0.00    -0.017 C 
BRANCH  14  15
ATOM     15  C   LIG    1        4.162  -4.515   1.673  0.00  0.00    -0.079 C 
BRANCH  15  16
ATOM     16  N   LIG    1        3.005  -5.468   2.039  0.00  0.00    +0.380 N 
ATOM     17  H   LIG    1        2.240  -4.908   2.389  0.00  0.00    -0.082 HD
ATOM     18  C   LIG    1        3.380  -6.481   3.132  0.00  0.00    -0.079 C 
ATOM     19  C   LIG    1        2.288  -7.539   3.019  0.00  0.00    -0.020 C 
ATOM     20  C   LIG    1        1.955  -7.624   1.530  0.00  0.00    -0.020 C 
ATOM     21  C   LIG    1        2.489  -6.342   0.876  0.00  0.00    -0.079 C 
ENDBRANCH  15  16
ENDBRANCH  14  15
ENDBRANCH  13  14
ENDBRANCH  12  13
ENDBRANCH   9  12
ENDBRANCH   5   6
BRANCH   1  25
ATOM     22  N   LIG    1       -1.564   2.863   1.460  0.00  0.00    -0.325 N 
ATOM     23  H   LIG    1       -2.475   2.436   1.551  0.00  0.00    +0.145 HD
ATOM     24  H   LIG    1       -1.331   3.659   2.036  0.00  0.00    +0.145 HD
ATOM     25  C   LIG    1       -0.691   2.411   0.556  0.00  0.00    +0.249 C 
ATOM     26  O   LIG    1        0.409   2.935   0.387  0.00  0.00    -0.270 OA
ENDBRANCH   1  25
BRANCH   2  27
ATOM     27  O   LIG    1       -3.492   1.833  -0.437  0.00  0.00    -0.470 OA
BRANCH  27  28
ATOM     28  C   LIG    1       -4.726   1.230  -0.018  0.00  0.00    +0.272 C 
BRANCH  28  29
ATOM     29  C   LIG    1       -4.574   0.420   1.270  0.00  0.00    +0.060 A 
ATOM     30  C   LIG    1       -4.400   1.080   2.494  0.00  0.00    +0.134 A 
ATOM     31  F   LIG    1       -4.379   2.432   2.545  0.00  0.00    -0.205 F 
ATOM     32  C   LIG    1       -4.245   0.349   3.671  0.00  0.00    +0.054 A 
ATOM     33  C   LIG    1       -4.267  -1.045   3.637  0.00  0.00    +0.023 A 
ATOM     34 BR   LIG    1       -4.052  -2.041   5.245  0.00  0.00    -0.050 Br
ATOM     35  C   LIG    1       -4.450  -1.708   2.424  0.00  0.00    +0.054 A 
ATOM     36  C   LIG    1       -4.606  -0.981   1.244  0.00  0.00    +0.134 A 
ATOM     37  F   LIG    1       -4.785  -1.645   0.079  0.00  0.00    -0.205 F 
ENDBRANCH  28  29
ENDBRANCH  27  28
ENDBRANCH   2  27
TORSDOF 10
