REMARK  Name = DB12959
REMARK                            x       y       z     vdW  Elec       q    Type
REMARK                         _______ _______ _______ _____ _____    ______ ____
ROOT
ATOM      1  N   LIG    1        1.986  -0.264  -1.623  0.00  0.00    -0.303 N 
ATOM      2  H   LIG    1        2.336  -1.129  -2.010  0.00  0.00    +0.149 HD
ATOM      3  C   LIG    1        1.968   0.827  -2.414  0.00  0.00    +0.302 C 
ATOM      4  O   LIG    1        1.542   1.929  -2.060  0.00  0.00    -0.265 OA
ENDROOT
BRANCH   3   5
ATOM      5  C   LIG    1        2.497   0.614  -3.737  0.00  0.00    +0.314 A 
ATOM      6  O   LIG    1        2.592   1.688  -4.561  0.00  0.00    -0.328 OA
ATOM      7  N   LIG    1        3.099   1.194  -5.761  0.00  0.00    -0.055 NA
ATOM      8  C   LIG    1        3.239  -0.096  -5.528  0.00  0.00    +0.203 A 
ATOM      9  N   LIG    1        2.888  -0.494  -4.317  0.00  0.00    -0.183 NA
BRANCH   8  10
ATOM     10  C   LIG    1        3.758  -1.052  -6.568  0.00  0.00    +0.025 A 
ATOM     11  C   LIG    1        3.885  -2.418  -6.288  0.00  0.00    +0.030 A 
ATOM     12  C   LIG    1        4.361  -3.317  -7.244  0.00  0.00    +0.061 A 
ATOM     13 BR   LIG    1        4.484  -5.157  -6.726  0.00  0.00    -0.046 Br
ATOM     14  C   LIG    1        4.725  -2.853  -8.523  0.00  0.00    +0.145 A 
ATOM     15  C   LIG    1        4.602  -1.480  -8.815  0.00  0.00    +0.061 A 
ATOM     16 BR   LIG    1        5.063  -0.730 -10.517  0.00  0.00    -0.046 Br
ATOM     17  C   LIG    1        4.125  -0.602  -7.842  0.00  0.00    +0.030 A 
BRANCH  14  18
ATOM     18  O   LIG    1        5.160  -3.666  -9.405  0.00  0.00    -0.505 OA
ATOM     19  H   LIG    1        5.401  -3.351 -10.254  0.00  0.00    +0.292 HD
ENDBRANCH  14  18
ENDBRANCH   8  10
ENDBRANCH   3   5
BRANCH   1  20
ATOM     20  C   LIG    1        1.462  -0.326  -0.258  0.00  0.00    +0.140 C 
BRANCH  20  24
ATOM     21  C   LIG    1       -2.825   0.122  -0.006  0.00  0.00    +0.128 A 
ATOM     22  C   LIG    1       -2.272  -0.907  -0.777  0.00  0.00    +0.046 A 
ATOM     23  C   LIG    1       -0.890  -1.053  -0.855  0.00  0.00    +0.009 A 
ATOM     24  C   LIG    1       -0.054  -0.176  -0.158  0.00  0.00    -0.030 A 
ATOM     25  C   LIG    1       -0.607   0.837   0.629  0.00  0.00    +0.009 A 
ATOM     26  C   LIG    1       -1.989   0.981   0.708  0.00  0.00    +0.046 A 
BRANCH  21  27
ATOM     27  O   LIG    1       -4.188   0.293   0.106  0.00  0.00    -0.456 OA
BRANCH  27  31
ATOM     28  C   LIG    1       -6.739   0.162  -3.181  0.00  0.00    +0.000 A 
ATOM     29  C   LIG    1       -5.487   0.756  -3.325  0.00  0.00    +0.004 A 
ATOM     30  C   LIG    1       -4.620   0.806  -2.237  0.00  0.00    +0.046 A 
ATOM     31  C   LIG    1       -5.002   0.251  -1.007  0.00  0.00    +0.128 A 
ATOM     32  C   LIG    1       -6.265  -0.327  -0.872  0.00  0.00    +0.046 A 
ATOM     33  C   LIG    1       -7.133  -0.377  -1.959  0.00  0.00    +0.004 A 
ENDBRANCH  27  31
ENDBRANCH  21  27
ENDBRANCH  20  24
ENDBRANCH   1  20
TORSDOF 7
