REMARK  Name = DB12766
REMARK                            x       y       z     vdW  Elec       q    Type
REMARK                         _______ _______ _______ _____ _____    ______ ____
ROOT
ATOM      1  C   LIG    1       -0.031  -0.091   0.031  0.00  0.00    +0.033 C 
ATOM      2  C   LIG    1        1.496  -0.014   0.036  0.00  0.00    +0.070 C 
ATOM      3  N   LIG    1        2.134  -1.198   0.170  0.00  0.00    -0.302 NA
ATOM      4  H   LIG    1        1.571  -2.033   0.253  0.00  0.00    +0.123 HD
ATOM      5  C   LIG    1        3.474  -1.333   0.201  0.00  0.00    +0.082 C 
ATOM      6  C   LIG    1        4.268  -0.192   0.088  0.00  0.00    +0.040 C 
ATOM      7  C   LIG    1        5.769  -0.017   0.094  0.00  0.00    +0.157 C 
ATOM      8  O   LIG    1        6.003   1.355  -0.214  0.00  0.00    -0.371 OA
ATOM      9  C   LIG    1        4.778   2.078  -0.161  0.00  0.00    +0.172 C 
ATOM     10  C   LIG    1        3.671   1.051  -0.057  0.00  0.00    +0.049 C 
ATOM     11  C   LIG    1        2.269   1.166  -0.081  0.00  0.00    +0.126 C 
ENDROOT
BRANCH   7  12
ATOM     12  C   LIG    1        6.505  -0.954  -0.857  0.00  0.00    -0.018 A 
ATOM     13  C   LIG    1        6.340  -0.817  -2.239  0.00  0.00    +0.007 A 
ATOM     14  C   LIG    1        7.015  -1.666  -3.111  0.00  0.00    +0.020 A 
ATOM     15  C   LIG    1        7.859  -2.651  -2.600  0.00  0.00    +0.041 A 
ATOM     16 CL   LIG    1        8.695  -3.706  -3.681  0.00  0.00    -0.084 Cl
ATOM     17  C   LIG    1        8.034  -2.790  -1.224  0.00  0.00    +0.020 A 
ATOM     18  C   LIG    1        7.359  -1.940  -0.352  0.00  0.00    +0.007 A 
ENDBRANCH   7  12
BRANCH  11  19
ATOM     19  O   LIG    1        1.734   2.316  -0.207  0.00  0.00    -0.383 OA
ATOM     20  H   LIG    1        0.768   2.226  -0.206  0.00  0.00    +0.210 HD
ENDBRANCH  11  19
TORSDOF 2
