REMARK  Name = DB12561
REMARK                            x       y       z     vdW  Elec       q    Type
REMARK                         _______ _______ _______ _____ _____    ______ ____
ROOT
ATOM      1  C   LIG    1        2.060  -0.736  -1.128  0.00  0.00    +0.223 C 
ATOM      2  N   LIG    1        3.080  -1.617  -1.021  0.00  0.00    -0.270 N 
ATOM      3  H   LIG    1        3.347  -1.888  -0.086  0.00  0.00    +0.156 HD
ATOM      4  O   LIG    1        1.628  -0.291  -2.194  0.00  0.00    -0.275 OA
ENDROOT
BRANCH   2   5
ATOM      5  C   LIG    1        3.835  -2.221  -2.044  0.00  0.00    +0.125 A 
ATOM      6  N   LIG    1        3.597  -1.977  -3.363  0.00  0.00    -0.239 NA
ATOM      7  C   LIG    1        4.368  -2.601  -4.288  0.00  0.00    +0.123 A 
ATOM      8  C   LIG    1        5.404  -3.493  -3.968  0.00  0.00    +0.020 A 
ATOM      9  C   LIG    1        5.630  -3.725  -2.602  0.00  0.00    +0.015 A 
ATOM     10  C   LIG    1        4.848  -3.092  -1.635  0.00  0.00    +0.044 A 
BRANCH   8  11
ATOM     11  C   LIG    1        6.227  -4.161  -5.021  0.00  0.00    +0.090 A 
ATOM     12  N   LIG    1        6.333  -3.526  -6.225  0.00  0.00    -0.252 NA
ATOM     13  C   LIG    1        7.068  -4.121  -7.200  0.00  0.00    +0.131 A 
ATOM     14  C   LIG    1        7.697  -5.348  -6.986  0.00  0.00    +0.130 A 
ATOM     15  N   LIG    1        7.597  -5.996  -5.797  0.00  0.00    -0.260 NA
ATOM     16  C   LIG    1        6.861  -5.398  -4.823  0.00  0.00    +0.139 A 
ENDBRANCH   8  11
ENDBRANCH   2   5
BRANCH   1  17
ATOM     17  C   LIG    1        1.453  -0.268   0.207  0.00  0.00    +0.132 C 
BRANCH  17  23
ATOM     18  C   LIG    1       -2.783   2.101  -1.262  0.00  0.00    +0.046 C 
ATOM     19  C   LIG    1       -2.113   0.948  -0.527  0.00  0.00    -0.024 A 
ATOM     20  C   LIG    1       -2.841  -0.022   0.192  0.00  0.00    +0.074 A 
ATOM     21  N   LIG    1       -2.217  -1.011   0.891  0.00  0.00    -0.254 NA
ATOM     22  C   LIG    1       -0.863  -1.068   0.878  0.00  0.00    +0.115 A 
ATOM     23  C   LIG    1       -0.070  -0.155   0.181  0.00  0.00    -0.020 A 
ATOM     24  C   LIG    1       -0.716   0.868  -0.522  0.00  0.00    +0.011 A 
BRANCH  20  25
ATOM     25  C   LIG    1       -4.330  -0.064   0.258  0.00  0.00    +0.004 A 
ATOM     26  C   LIG    1       -5.108  -0.044  -0.909  0.00  0.00    +0.033 A 
ATOM     27  C   LIG    1       -6.502  -0.085  -0.803  0.00  0.00    +0.039 A 
ATOM     28  C   LIG    1       -7.389  -0.068  -2.034  0.00  0.00    +0.065 C 
ATOM     29  N   LIG    1       -7.147  -0.148   0.390  0.00  0.00    -0.260 NA
ATOM     30  C   LIG    1       -6.390  -0.173   1.515  0.00  0.00    +0.111 A 
ATOM     31  C   LIG    1       -4.995  -0.135   1.492  0.00  0.00    +0.030 A 
ENDBRANCH  20  25
ENDBRANCH  17  23
ENDBRANCH   1  17
TORSDOF 5
