REMARK  Name = DB12866
REMARK                            x       y       z     vdW  Elec       q    Type
REMARK                         _______ _______ _______ _____ _____    ______ ____
ROOT
ATOM      1  C   LIG    1        1.440   0.136   0.262  0.00  0.00    +0.071 A 
ATOM      2  C   LIG    1        2.239   0.914  -0.587  0.00  0.00    +0.030 A 
ATOM      3  C   LIG    1        3.628   0.858  -0.456  0.00  0.00    +0.027 A 
ATOM      4  C   LIG    1        4.206   0.042   0.521  0.00  0.00    +0.050 A 
ATOM      5  C   LIG    1        3.345  -0.724   1.317  0.00  0.00    +0.134 A 
ATOM      6  N   LIG    1        1.994  -0.684   1.199  0.00  0.00    -0.253 NA
ENDROOT
BRANCH   1  12
ATOM      7  C   LIG    1       -0.801  -1.008   0.447  0.00  0.00    +0.010 A 
ATOM      8  C   LIG    1       -2.190  -0.991   0.371  0.00  0.00    +0.004 A 
ATOM      9  C   LIG    1       -2.867   0.183   0.025  0.00  0.00    -0.044 A 
ATOM     10  C   LIG    1       -2.127   1.342  -0.233  0.00  0.00    +0.004 A 
ATOM     11  C   LIG    1       -0.737   1.320  -0.159  0.00  0.00    +0.010 A 
ATOM     12  C   LIG    1       -0.052   0.147   0.182  0.00  0.00    +0.000 A 
BRANCH   9  13
ATOM     13  C   LIG    1       -4.401   0.161  -0.037  0.00  0.00    +0.019 C 
ATOM     14  C   LIG    1       -5.037   1.201  -1.004  0.00  0.00    +0.008 C 
ATOM     15  C   LIG    1       -6.576   1.107  -1.000  0.00  0.00    +0.004 C 
ATOM     16  C   LIG    1       -7.147   1.292   0.426  0.00  0.00    -0.000 C 
ATOM     17  C   LIG    1       -6.571   0.174   1.323  0.00  0.00    +0.004 C 
ATOM     18  C   LIG    1       -5.030   0.221   1.380  0.00  0.00    +0.008 C 
BRANCH  16  19
ATOM     19  C   LIG    1       -8.706   1.278   0.453  0.00  0.00    +0.124 C 
BRANCH  19  20
ATOM     20  C   LIG    1       -9.400   2.527  -0.146  0.00  0.00    +0.305 C 
ATOM     21  O   LIG    1      -10.575   2.370  -0.548  0.00  0.00    -0.251 OA
BRANCH  20  22
ATOM     22  O   LIG    1       -8.794   3.623  -0.171  0.00  0.00    -0.481 OA
ATOM     23  H   LIG    1       -7.913   3.679   0.145  0.00  0.00    +0.295 HD
ENDBRANCH  20  22
ENDBRANCH  19  20
ENDBRANCH  16  19
ENDBRANCH   9  13
ENDBRANCH   1  12
BRANCH   4  24
ATOM     24  N   LIG    1        5.608   0.003   0.617  0.00  0.00    -0.312 N 
ATOM     25  H   LIG    1        6.080   0.443  -0.159  0.00  0.00    +0.152 HD
BRANCH  24  26
ATOM     26  C   LIG    1        6.480  -0.479   1.608  0.00  0.00    +0.050 A 
ATOM     27  C   LIG    1        6.113  -0.661   2.949  0.00  0.00    +0.027 A 
ATOM     28  C   LIG    1        7.052  -1.128   3.871  0.00  0.00    +0.034 A 
ATOM     29  C   LIG    1        8.355  -1.392   3.430  0.00  0.00    +0.144 A 
ATOM     30  N   LIG    1        8.734  -1.201   2.137  0.00  0.00    -0.249 NA
ATOM     31  C   LIG    1        7.806  -0.746   1.258  0.00  0.00    +0.134 A 
BRANCH  29  32
ATOM     32  C   LIG    1        9.442  -1.906   4.372  0.00  0.00    +0.434 C 
ATOM     33  F   LIG    1       10.461  -1.046   4.402  0.00  0.00    -0.164 F 
ATOM     34  F   LIG    1        9.891  -3.086   3.943  0.00  0.00    -0.164 F 
ATOM     35  F   LIG    1        8.993  -2.061   5.619  0.00  0.00    -0.164 F 
ENDBRANCH  29  32
ENDBRANCH  24  26
ENDBRANCH   4  24
TORSDOF 8
