REMARK  Name = DB12510
REMARK                            x       y       z     vdW  Elec       q    Type
REMARK                         _______ _______ _______ _____ _____    ______ ____
ROOT
ATOM      1  O   LIG    1       -1.079   1.433   0.282  0.00  0.00    -0.303 OA
ATOM      2  H   LIG    1       -1.654   1.949  -0.249  0.00  0.00    +0.356 HD
ENDROOT
BRANCH   1   3
ATOM      3  O   LIG    1       -0.100   0.548  -0.348  0.00  0.00    -0.050 OA
ATOM      4  O   LIG    1        0.490   0.019   0.549  0.00  0.00    -0.003 OA
ENDBRANCH   1   3
TORSDOF 1
