REMARK  Name = DB12586
REMARK                            x       y       z     vdW  Elec       q    Type
REMARK                         _______ _______ _______ _____ _____    ______ ____
ROOT
ATOM      1  C   LIG    1        2.112   0.255  -0.153  0.00  0.00    +0.017 A 
ATOM      2  C   LIG    1        2.866   1.321   0.404  0.00  0.00    +0.126 A 
ATOM      3  C   LIG    1        4.268   1.315   0.289  0.00  0.00    +0.069 A 
ATOM      4  C   LIG    1        4.921   0.249  -0.316  0.00  0.00    +0.037 A 
ATOM      5  N   LIG    1        6.267   0.003  -0.558  0.00  0.00    -0.325 N 
ATOM      6  C   LIG    1        7.237   0.934  -1.121  0.00  0.00    +0.129 C 
ATOM      7  C   LIG    1        6.503  -1.406  -0.889  0.00  0.00    +0.128 C 
ATOM      8  C   LIG    1        7.105  -2.331   0.252  0.00  0.00    +0.219 C 
ATOM      9  C   LIG    1        5.967  -2.983   1.116  0.00  0.00    +0.229 C 
ATOM     10  C   LIG    1        4.901  -3.849   0.332  0.00  0.00    +0.018 C 
ATOM     11  C   LIG    1        5.278  -5.348   0.322  0.00  0.00    -0.024 C 
ATOM     12  C   LIG    1        5.431  -6.111  -0.778  0.00  0.00    -0.049 C 
ATOM     13  C   LIG    1        5.303  -5.588  -2.196  0.00  0.00    -0.051 C 
ATOM     14  N   LIG    1        5.620  -4.083  -2.167  0.00  0.00    +0.385 N 
ATOM     15  H   LIG    1        6.576  -3.966  -1.858  0.00  0.00    -0.081 HD
ATOM     16  C   LIG    1        5.447  -3.294  -3.472  0.00  0.00    -0.077 C 
ATOM     17  C   LIG    1        5.078  -1.881  -2.999  0.00  0.00    -0.007 C 
ATOM     18  C   LIG    1        4.733  -3.328  -1.154  0.00  0.00    -0.042 C 
ATOM     19  C   LIG    1        5.125  -1.862  -1.452  0.00  0.00    +0.007 C 
ATOM     20  C   LIG    1        4.204  -0.823  -0.833  0.00  0.00    -0.019 A 
ATOM     21  C   LIG    1        2.815  -0.816  -0.733  0.00  0.00    +0.014 A 
ENDROOT
BRANCH   1  29
ATOM     22  C   LIG    1       -1.551   3.405  -2.956  0.00  0.00    -0.090 C 
ATOM     23  C   LIG    1       -1.139   2.382  -4.031  0.00  0.00    -0.048 C 
ATOM     24  N   LIG    1       -0.230   1.315  -3.382  0.00  0.00    +0.383 N 
ATOM     25  H   LIG    1       -0.782   0.858  -2.669  0.00  0.00    -0.081 HD
ATOM     26  C   LIG    1        0.920   2.015  -2.636  0.00  0.00    -0.071 C 
ATOM     27  C   LIG    1        0.293   2.612  -1.365  0.00  0.00    -0.003 C 
ATOM     28  C   LIG    1       -0.198   1.572  -0.296  0.00  0.00    +0.035 C 
ATOM     29  C   LIG    1        0.550   0.182  -0.028  0.00  0.00    +0.136 C 
ATOM     30  C   LIG    1       -0.162  -0.909  -0.931  0.00  0.00    +0.042 A 
ATOM     31  N   LIG    1       -1.261  -1.572  -0.410  0.00  0.00    -0.357 N 
ATOM     32  H   LIG    1       -1.576  -1.393   0.533  0.00  0.00    +0.166 HD
ATOM     33  C   LIG    1       -1.811  -2.478  -1.276  0.00  0.00    +0.047 A 
ATOM     34  C   LIG    1       -2.888  -3.358  -1.127  0.00  0.00    +0.026 A 
ATOM     35  C   LIG    1       -3.210  -4.154  -2.227  0.00  0.00    +0.002 A 
ATOM     36  C   LIG    1       -2.497  -4.074  -3.419  0.00  0.00    +0.001 A 
ATOM     37  C   LIG    1       -1.427  -3.191  -3.558  0.00  0.00    +0.010 A 
ATOM     38  C   LIG    1       -1.062  -2.374  -2.472  0.00  0.00    +0.003 A 
ATOM     39  C   LIG    1       -0.049  -1.367  -2.274  0.00  0.00    -0.019 A 
ATOM     40  C   LIG    1        0.870  -0.940  -3.423  0.00  0.00    +0.019 C 
ATOM     41  C   LIG    1        0.256   0.181  -4.299  0.00  0.00    -0.074 C 
ATOM     42  C   LIG    1       -0.887   3.508  -1.776  0.00  0.00    -0.028 C 
BRANCH  22  44
ATOM     43  C   LIG    1       -4.077   3.627  -3.344  0.00  0.00    +0.008 C 
ATOM     44  C   LIG    1       -2.712   4.329  -3.297  0.00  0.00    +0.025 C 
ENDBRANCH  22  44
BRANCH  29  45
ATOM     45  C   LIG    1        0.404  -0.219   1.492  0.00  0.00    +0.323 C 
ATOM     46  O   LIG    1       -0.065   0.541   2.344  0.00  0.00    -0.249 OA
BRANCH  45  47
ATOM     47  O   LIG    1        0.850  -1.477   1.761  0.00  0.00    -0.467 OA
ATOM     48  C   LIG    1        0.817  -1.987   3.087  0.00  0.00    +0.280 C 
ENDBRANCH  45  47
ENDBRANCH  29  45
ENDBRANCH   1  29
BRANCH   2  49
ATOM     49  O   LIG    1        2.189   2.322   1.079  0.00  0.00    -0.495 OA
ATOM     50  C   LIG    1        2.905   3.394   1.683  0.00  0.00    +0.277 C 
ENDBRANCH   2  49
BRANCH   8  51
ATOM     51  O   LIG    1        7.872  -3.346  -0.390  0.00  0.00    -0.373 OA
ATOM     52  H   LIG    1        8.629  -2.932  -0.812  0.00  0.00    +0.211 HD
ENDBRANCH   8  51
BRANCH   8  53
ATOM     53  C   LIG    1        8.106  -1.531   1.155  0.00  0.00    +0.345 C 
ATOM     54  O   LIG    1        9.332  -1.645   1.053  0.00  0.00    -0.247 OA
BRANCH  53  55
ATOM     55  O   LIG    1        7.483  -0.719   2.046  0.00  0.00    -0.466 OA
ATOM     56  C   LIG    1        8.232   0.078   2.951  0.00  0.00    +0.280 C 
ENDBRANCH  53  55
ENDBRANCH   8  53
BRANCH  10  57
ATOM     57  C   LIG    1        3.572  -3.762   1.156  0.00  0.00    +0.010 C 
ATOM     58  C   LIG    1        2.337  -4.488   0.580  0.00  0.00    +0.005 C 
ENDBRANCH  10  57
BRANCH   9  59
ATOM     59  O   LIG    1        6.497  -3.692   2.254  0.00  0.00    -0.457 OA
BRANCH  59  60
ATOM     60  C   LIG    1        6.136  -3.407   3.529  0.00  0.00    +0.304 C 
ATOM     61  C   LIG    1        6.837  -4.307   4.539  0.00  0.00    +0.136 C 
ATOM     62  O   LIG    1        5.342  -2.538   3.888  0.00  0.00    -0.251 OA
ENDBRANCH  59  60
ENDBRANCH   9  59
TORSDOF 11
