REMARK  Name = DB12945
REMARK                            x       y       z     vdW  Elec       q    Type
REMARK                         _______ _______ _______ _____ _____    ______ ____
ROOT
ATOM      1  C   LIG    1       -0.693  -1.176  -0.025  0.00  0.00    +0.028 A 
ATOM      2  C   LIG    1       -0.071  -2.456  -0.051  0.00  0.00    +0.012 A 
ATOM      3  C   LIG    1       -0.840  -3.616  -0.025  0.00  0.00    +0.001 A 
ATOM      4  C   LIG    1       -2.227  -3.543   0.025  0.00  0.00    +0.001 A 
ATOM      5  C   LIG    1       -2.872  -2.310   0.051  0.00  0.00    +0.012 A 
ATOM      6  C   LIG    1        0.019   0.059  -0.044  0.00  0.00    +0.162 A 
ATOM      7  N   LIG    1       -0.612   1.264  -0.025  0.00  0.00    -0.131 NA
ATOM      8  N   LIG    1       -1.947   1.333   0.025  0.00  0.00    -0.131 NA
ATOM      9  C   LIG    1       -2.700   0.201   0.044  0.00  0.00    +0.162 A 
ATOM     10  C   LIG    1       -2.120  -1.102   0.025  0.00  0.00    +0.028 A 
ENDROOT
BRANCH   6  11
ATOM     11  N   LIG    1        1.424   0.082  -0.112  0.00  0.00    -0.266 N 
ATOM     12  H   LIG    1        1.946  -0.781  -0.051  0.00  0.00    +0.168 HD
BRANCH  11  13
ATOM     13  N   LIG    1        2.200   1.188   0.397  0.00  0.00    -0.255 NA
ATOM     14  H   LIG    1        2.938   1.382  -0.265  0.00  0.00    +0.140 HD
ATOM     15  H   LIG    1        2.580   0.917   1.293  0.00  0.00    +0.140 HD
ENDBRANCH  11  13
ENDBRANCH   6  11
BRANCH   9  16
ATOM     16  N   LIG    1       -4.094   0.369   0.112  0.00  0.00    -0.266 N 
ATOM     17  H   LIG    1       -4.703  -0.435   0.051  0.00  0.00    +0.168 HD
BRANCH  16  18
ATOM     18  N   LIG    1       -4.752   1.550  -0.397  0.00  0.00    -0.255 NA
ATOM     19  H   LIG    1       -5.465   1.820   0.265  0.00  0.00    +0.140 HD
ATOM     20  H   LIG    1       -5.157   1.320  -1.293  0.00  0.00    +0.140 HD
ENDBRANCH  16  18
ENDBRANCH   9  16
TORSDOF 4
