REMARK  Name = DB12770
REMARK                            x       y       z     vdW  Elec       q    Type
REMARK                         _______ _______ _______ _____ _____    ______ ____
ROOT
ATOM      1  C   LIG    1        1.140  -0.125  -0.228  0.00  0.00    -0.009 C 
ATOM      2  C   LIG    1        1.872  -0.450   0.858  0.00  0.00    +0.011 C 
ENDROOT
BRANCH   1   3
ATOM      3  C   LIG    1       -0.320   0.304  -0.267  0.00  0.00    +0.131 C 
BRANCH   3   6
ATOM      4  C   LIG    1       -0.231   2.715  -0.907  0.00  0.00    +0.226 C 
ATOM      5  O   LIG    1        0.258   2.521  -2.020  0.00  0.00    -0.275 OA
ATOM      6  N   LIG    1       -0.539   1.731  -0.045  0.00  0.00    -0.311 N 
ATOM      7  H   LIG    1       -0.870   1.989   0.874  0.00  0.00    +0.149 HD
BRANCH   4   8
ATOM      8  C   LIG    1       -0.541   4.136  -0.442  0.00  0.00    +0.199 C 
BRANCH   8   9
ATOM      9  S   LIG    1        0.661   4.814   0.800  0.00  0.00    +0.038 S 
ATOM     10  O   LIG    1        0.532   3.960   2.063  0.00  0.00    -0.256 OA
BRANCH   9  11
ATOM     11  C   LIG    1       -0.205   6.417   1.152  0.00  0.00    +0.178 C 
BRANCH  11  13
ATOM     12  O   LIG    1        1.013   8.078  -0.162  0.00  0.00    -0.467 OA
ATOM     13  C   LIG    1       -0.142   7.377  -0.012  0.00  0.00    +0.117 A 
ATOM     14  C   LIG    1       -1.027   7.727  -1.022  0.00  0.00    +0.045 A 
ATOM     15  C   LIG    1       -0.385   8.677  -1.817  0.00  0.00    +0.041 A 
ATOM     16  C   LIG    1        0.866   8.868  -1.256  0.00  0.00    +0.195 A 
ENDBRANCH  11  13
ENDBRANCH   9  11
ENDBRANCH   8   9
ENDBRANCH   4   8
ENDBRANCH   3   6
ENDBRANCH   1   3
BRANCH   2  17
ATOM     17  C   LIG    1        1.460  -0.399   2.322  0.00  0.00    +0.258 C 
BRANCH  17  18
ATOM     18  O   LIG    1        0.419   0.551   2.550  0.00  0.00    -0.472 OA
BRANCH  18  19
ATOM     19  C   LIG    1        0.029   0.861   3.837  0.00  0.00    +0.215 A 
ATOM     20  C   LIG    1       -0.898   1.890   4.011  0.00  0.00    +0.069 A 
ATOM     21  C   LIG    1       -1.272   2.258   5.307  0.00  0.00    -0.057 A 
ATOM     22  C   LIG    1       -0.738   1.556   6.393  0.00  0.00    +0.021 A 
ATOM     23  C   LIG    1        0.171   0.527   6.142  0.00  0.00    +0.115 A 
ATOM     24  N   LIG    1        0.563   0.178   4.890  0.00  0.00    -0.221 NA
BRANCH  21  25
ATOM     25  C   LIG    1       -2.257   3.397   5.524  0.00  0.00    -0.043 C 
BRANCH  25  26
ATOM     26  N   LIG    1       -1.606   4.748   5.908  0.00  0.00    +0.382 N 
ATOM     27  H   LIG    1       -1.057   4.615   6.746  0.00  0.00    -0.081 HD
ATOM     28  C   LIG    1       -0.655   5.252   4.793  0.00  0.00    -0.078 C 
ATOM     29  C   LIG    1       -0.015   6.581   5.233  0.00  0.00    -0.019 C 
ATOM     30  C   LIG    1       -1.072   7.639   5.592  0.00  0.00    -0.004 C 
ATOM     31  C   LIG    1       -2.055   7.112   6.651  0.00  0.00    -0.019 C 
ATOM     32  C   LIG    1       -2.710   5.787   6.222  0.00  0.00    -0.078 C 
ENDBRANCH  25  26
ENDBRANCH  21  25
ENDBRANCH  18  19
ENDBRANCH  17  18
ENDBRANCH   2  17
TORSDOF 11
