REMARK  Name = DB12241
REMARK                            x       y       z     vdW  Elec       q    Type
REMARK                         _______ _______ _______ _____ _____    ______ ____
ROOT
ATOM      1  C   LIG    1       -2.158   5.939   1.465  0.00  0.00    +0.154 C 
ATOM      2  N   LIG    1       -1.821   5.310   0.167  0.00  0.00    -0.293 N 
ATOM      3  C   LIG    1       -1.998   6.109  -0.942  0.00  0.00    +0.290 A 
ATOM      4  O   LIG    1       -2.404   7.276  -0.908  0.00  0.00    -0.264 OA
ATOM      5  C   LIG    1       -1.673   5.494  -2.227  0.00  0.00    +0.209 A 
ATOM      6  F   LIG    1       -1.910   6.277  -3.307  0.00  0.00    -0.198 F 
ATOM      7  C   LIG    1       -1.195   4.225  -2.373  0.00  0.00    +0.089 A 
ATOM      8  C   LIG    1       -1.029   3.416  -1.145  0.00  0.00    +0.106 A 
ATOM      9  C   LIG    1       -0.535   2.021  -1.149  0.00  0.00    +0.265 A 
ATOM     10  O   LIG    1       -0.213   1.414  -2.175  0.00  0.00    -0.267 OA
ATOM     11  N   LIG    1       -0.460   1.449   0.106  0.00  0.00    -0.296 N 
ATOM     12  C   LIG    1       -0.800   2.122   1.256  0.00  0.00    +0.204 A 
ATOM     13  N   LIG    1       -1.226   3.334   1.244  0.00  0.00    -0.219 NA
ATOM     14  C   LIG    1       -1.351   4.004   0.052  0.00  0.00    +0.152 A 
ENDROOT
BRANCH   7  15
ATOM     15  N   LIG    1       -0.916   3.696  -3.628  0.00  0.00    -0.309 N 
ATOM     16  H   LIG    1       -0.945   2.692  -3.733  0.00  0.00    +0.152 HD
BRANCH  15  17
ATOM     17  C   LIG    1       -0.469   4.353  -4.787  0.00  0.00    +0.067 A 
ATOM     18  C   LIG    1       -1.036   4.035  -6.029  0.00  0.00    +0.145 A 
ATOM     19  F   LIG    1       -2.007   3.096  -6.126  0.00  0.00    -0.204 F 
ATOM     20  C   LIG    1       -0.603   4.689  -7.184  0.00  0.00    +0.054 A 
ATOM     21  C   LIG    1        0.394   5.661  -7.108  0.00  0.00    +0.016 A 
ATOM     22  I   LIG    1        1.037   6.639  -8.841  0.00  0.00    -0.044 I 
ATOM     23  C   LIG    1        0.962   5.981  -5.875  0.00  0.00    +0.016 A 
ATOM     24  C   LIG    1        0.533   5.330  -4.719  0.00  0.00    +0.027 A 
ENDBRANCH  15  17
ENDBRANCH   7  15
BRANCH  11  25
ATOM     25  C   LIG    1        0.027   0.055   0.211  0.00  0.00    +0.160 C 
BRANCH  25  26
ATOM     26  C   LIG    1        1.496  -0.085   0.681  0.00  0.00    +0.160 C 
BRANCH  26  27
ATOM     27  O   LIG    1        2.353   0.512  -0.276  0.00  0.00    -0.388 OA
ATOM     28  H   LIG    1        2.219   0.076  -1.122  0.00  0.00    +0.210 HD
ENDBRANCH  26  27
BRANCH  26  29
ATOM     29  C   LIG    1        1.898  -1.560   0.887  0.00  0.00    +0.188 C 
BRANCH  29  30
ATOM     30  O   LIG    1        3.152  -1.662   1.533  0.00  0.00    -0.392 OA
ATOM     31  H   LIG    1        3.828  -1.318   0.943  0.00  0.00    +0.210 HD
ENDBRANCH  29  30
ENDBRANCH  26  29
ENDBRANCH  25  26
ENDBRANCH  11  25
TORSDOF 7
