REMARK  Name = DB12727
REMARK                            x       y       z     vdW  Elec       q    Type
REMARK                         _______ _______ _______ _____ _____    ______ ____
ROOT
ATOM      1  C   LIG    1       -1.972  -2.349  -0.442  0.00  0.00    +0.080 C 
ATOM      2  C   LIG    1       -1.662  -1.053  -1.225  0.00  0.00    +0.234 C 
ATOM      3  N   LIG    1       -0.349  -0.522  -0.838  0.00  0.00    -0.204 NA
ATOM      4  H   LIG    1        0.003   0.214  -1.450  0.00  0.00    +0.135 HD
ATOM      5  P   LIG    1       -0.010  -0.314   0.820  0.00  0.00    +0.348 P 
ATOM      6  O   LIG    1       -0.638   0.862   1.482  0.00  0.00    -0.254 OA
ATOM      7  O   LIG    1       -0.521  -1.749   1.410  0.00  0.00    -0.305 OA
ATOM      8  C   LIG    1       -1.831  -2.192   1.087  0.00  0.00    +0.174 C 
ENDROOT
BRANCH   2   9
ATOM      9  O   LIG    1       -2.717  -0.107  -1.061  0.00  0.00    -0.218 OA
BRANCH   9  10
ATOM     10  O   LIG    1       -2.457   1.029  -1.990  0.00  0.00    -0.249 OA
ATOM     11  H   LIG    1       -2.952   0.738  -2.760  0.00  0.00    +0.253 HD
ENDBRANCH   9  10
ENDBRANCH   2   9
BRANCH   5  12
ATOM     12  N   LIG    1        1.701  -0.346   0.753  0.00  0.00    -0.217 NA
BRANCH  12  13
ATOM     13  C   LIG    1        2.469  -1.578   1.002  0.00  0.00    +0.111 C 
BRANCH  13  14
ATOM     14  C   LIG    1        3.215  -2.142  -0.220  0.00  0.00    +0.124 C 
ATOM     15 CL   LIG    1        2.083  -2.719  -1.473  0.00  0.00    -0.124 Cl
ENDBRANCH  13  14
ENDBRANCH  12  13
BRANCH  12  16
ATOM     16  C   LIG    1        2.483   0.898   0.647  0.00  0.00    +0.111 C 
BRANCH  16  17
ATOM     17  C   LIG    1        2.153   1.795  -0.561  0.00  0.00    +0.124 C 
ATOM     18 CL   LIG    1        2.503   0.972  -2.105  0.00  0.00    -0.124 Cl
ENDBRANCH  16  17
ENDBRANCH  12  16
ENDBRANCH   5  12
TORSDOF 7
