REMARK  Name = DB12415
REMARK                            x       y       z     vdW  Elec       q    Type
REMARK                         _______ _______ _______ _____ _____    ______ ____
ROOT
ATOM      1  C   LIG    1       -0.207  -0.220  -0.136  0.00  0.00    +0.016 C 
ATOM      2  C   LIG    1        1.340  -0.093  -0.060  0.00  0.00    -0.008 C 
ATOM      3  C   LIG    1        1.801   0.704   1.223  0.00  0.00    +0.003 C 
ATOM      4  C   LIG    1        1.702  -0.138   2.538  0.00  0.00    +0.001 C 
ATOM      5  C   LIG    1        2.133   0.738   3.741  0.00  0.00    +0.008 C 
ATOM      6  C   LIG    1        1.269   1.994   3.933  0.00  0.00    +0.012 C 
ATOM      7  C   LIG    1        1.831   2.447   5.283  0.00  0.00    +0.027 C 
ATOM      8  C   LIG    1        2.343   1.402   5.973  0.00  0.00    -0.004 C 
ATOM      9  C   LIG    1        1.500   2.878   2.681  0.00  0.00    +0.013 C 
ATOM     10  C   LIG    1       -0.249   1.714   4.133  0.00  0.00    +0.018 C 
ATOM     11  C   LIG    1        2.338   0.139   5.130  0.00  0.00    +0.033 C 
ATOM     12  C   LIG    1        2.551  -1.428   2.456  0.00  0.00    +0.031 C 
ATOM     13  C   LIG    1        2.475  -2.075   1.084  0.00  0.00    -0.027 C 
ATOM     14  C   LIG    1        1.154   2.126   1.367  0.00  0.00    +0.005 C 
ATOM     15  C   LIG    1        1.936  -1.529  -0.027  0.00  0.00    -0.065 C 
ATOM     16  C   LIG    1        1.850  -2.330  -1.332  0.00  0.00    +0.062 C 
ATOM     17  C   LIG    1        2.436  -1.534  -2.513  0.00  0.00    +0.119 C 
ATOM     18  C   LIG    1        1.783  -0.151  -2.645  0.00  0.00    +0.032 C 
ATOM     19  C   LIG    1        1.887   0.639  -1.329  0.00  0.00    +0.014 C 
ENDROOT
BRANCH   7  20
ATOM     20  N   LIG    1        1.641   3.741   5.800  0.00  0.00    -0.302 N 
ATOM     21  C   LIG    1        1.108   4.095   7.028  0.00  0.00    +0.073 A 
ATOM     22  C   LIG    1        1.170   5.515   7.043  0.00  0.00    +0.089 A 
ATOM     23  N   LIG    1        1.721   6.000   5.889  0.00  0.00    -0.235 NA
ATOM     24  C   LIG    1        0.697   6.223   8.157  0.00  0.00    +0.030 A 
ATOM     25  C   LIG    1        0.173   5.496   9.226  0.00  0.00    +0.002 A 
ATOM     26  C   LIG    1        0.117   4.103   9.196  0.00  0.00    +0.002 A 
ATOM     27  C   LIG    1        0.580   3.367   8.102  0.00  0.00    +0.028 A 
ATOM     28  C   LIG    1        1.987   4.928   5.189  0.00  0.00    +0.205 A 
ENDBRANCH   7  20
BRANCH  17  29
ATOM     29  O   LIG    1        2.317  -2.261  -3.719  0.00  0.00    -0.391 OA
ATOM     30  H   LIG    1        3.198  -2.419  -4.067  0.00  0.00    +0.210 HD
ENDBRANCH  17  29
TORSDOF 2
