REMARK  Name = DB12550
REMARK                            x       y       z     vdW  Elec       q    Type
REMARK                         _______ _______ _______ _____ _____    ______ ____
ROOT
ATOM      1  C   LIG    1        0.021  -0.110   0.213  0.00  0.00    +0.079 C 
ATOM      2  C   LIG    1       -0.558  -1.094  -0.827  0.00  0.00    +0.041 C 
ATOM      3  C   LIG    1       -2.090  -0.990  -0.980  0.00  0.00    +0.108 C 
ATOM      4  N   LIG    1       -2.803  -1.022   0.308  0.00  0.00    -0.313 N 
ATOM      5  C   LIG    1       -2.402   0.186   1.051  0.00  0.00    +0.108 C 
ATOM      6  C   LIG    1       -0.901   0.203   1.412  0.00  0.00    +0.041 C 
ENDROOT
BRANCH   4   7
ATOM      7  C   LIG    1       -4.138  -1.430   0.270  0.00  0.00    +0.152 A 
ATOM      8  N   LIG    1       -5.071  -0.450   0.410  0.00  0.00    -0.133 NA
ATOM      9  N   LIG    1       -6.376  -0.724   0.320  0.00  0.00    -0.145 NA
ATOM     10  C   LIG    1       -6.801  -1.989   0.073  0.00  0.00    +0.119 A 
ATOM     11  C   LIG    1       -5.899  -3.079  -0.114  0.00  0.00    +0.015 A 
ATOM     12  C   LIG    1       -6.299  -4.411  -0.413  0.00  0.00    +0.011 A 
ATOM     13  C   LIG    1       -5.352  -5.418  -0.568  0.00  0.00    +0.001 A 
ATOM     14  C   LIG    1       -3.998  -5.141  -0.437  0.00  0.00    +0.001 A 
ATOM     15  C   LIG    1       -3.565  -3.849  -0.159  0.00  0.00    +0.012 A 
ATOM     16  C   LIG    1       -4.502  -2.787  -0.004  0.00  0.00    +0.026 A 
BRANCH  10  17
ATOM     17  C   LIG    1       -8.296  -2.122   0.025  0.00  0.00    +0.089 A 
ATOM     18  N   LIG    1       -9.178  -1.241  -0.578  0.00  0.00    -0.265 N 
ATOM     19  N   LIG    1      -10.467  -1.588  -0.431  0.00  0.00    -0.179 NA
ATOM     20  C   LIG    1      -10.437  -2.709   0.245  0.00  0.00    +0.135 A 
ATOM     21  C   LIG    1       -8.882  -0.009  -1.300  0.00  0.00    +0.173 C 
ATOM     22  C   LIG    1       -9.134  -3.094   0.558  0.00  0.00    +0.051 A 
ENDBRANCH  10  17
ENDBRANCH   4   7
BRANCH   1  24
ATOM     23  C   LIG    1        2.003  -0.298   1.704  0.00  0.00    +0.132 C 
ATOM     24  N   LIG    1        1.492   0.000   0.357  0.00  0.00    -0.297 N 
ATOM     25  C   LIG    1        2.300   0.321  -0.695  0.00  0.00    +0.247 C 
ATOM     26  O   LIG    1        1.868   0.772  -1.758  0.00  0.00    -0.270 OA
BRANCH  25  27
ATOM     27  C   LIG    1        3.788   0.075  -0.581  0.00  0.00    +0.049 A 
ATOM     28  C   LIG    1        4.745   1.108  -0.751  0.00  0.00    +0.070 A 
ATOM     29  C   LIG    1        6.109   0.776  -0.689  0.00  0.00    +0.051 A 
ATOM     30  C   LIG    1        6.525  -0.536  -0.477  0.00  0.00    +0.124 A 
ATOM     31  F   LIG    1        7.845  -0.827  -0.424  0.00  0.00    -0.205 F 
ATOM     32  C   LIG    1        5.583  -1.545  -0.316  0.00  0.00    +0.039 A 
ATOM     33  C   LIG    1        4.226  -1.242  -0.372  0.00  0.00    +0.016 A 
BRANCH  28  34
ATOM     34  C   LIG    1        4.370   2.594  -0.912  0.00  0.00    +0.418 C 
ATOM     35  F   LIG    1        5.357   3.399  -0.512  0.00  0.00    -0.166 F 
ATOM     36  F   LIG    1        3.332   2.922  -0.140  0.00  0.00    -0.166 F 
ATOM     37  F   LIG    1        4.066   2.860  -2.182  0.00  0.00    -0.166 F 
ENDBRANCH  28  34
ENDBRANCH  25  27
ENDBRANCH   1  24
TORSDOF 5
