REMARK  Name = DB12156
REMARK                            x       y       z     vdW  Elec       q    Type
REMARK                         _______ _______ _______ _____ _____    ______ ____
ROOT
ATOM      1  N   LIG    1        4.120  -2.346  -0.662  0.00  0.00    -0.286 N 
ATOM      2  C   LIG    1        3.537  -3.379  -1.348  0.00  0.00    +0.167 A 
ATOM      3  N   LIG    1        2.372  -3.403  -2.041  0.00  0.00    -0.216 NA
ATOM      4  C   LIG    1        2.142  -4.610  -2.581  0.00  0.00    +0.225 A 
ATOM      5  N   LIG    1        2.885  -5.724  -2.515  0.00  0.00    -0.219 NA
ATOM      6  C   LIG    1        4.045  -5.673  -1.805  0.00  0.00    +0.147 A 
ATOM      7  C   LIG    1        4.398  -4.452  -1.184  0.00  0.00    +0.147 A 
ATOM      8  N   LIG    1        5.450  -4.116  -0.422  0.00  0.00    -0.231 NA
ATOM      9  C   LIG    1        5.238  -2.862  -0.112  0.00  0.00    +0.203 A 
ENDROOT
BRANCH   1  12
ATOM     10  C   LIG    1        2.275   0.875  -1.022  0.00  0.00    +0.069 C 
ATOM     11  C   LIG    1        3.084  -0.204  -1.718  0.00  0.00    +0.167 C 
ATOM     12  C   LIG    1        3.582  -0.939  -0.479  0.00  0.00    +0.251 C 
ATOM     13  O   LIG    1        2.502  -0.940   0.405  0.00  0.00    -0.348 OA
ATOM     14  C   LIG    1        1.638   0.172   0.181  0.00  0.00    +0.149 C 
BRANCH  11  15
ATOM     15  O   LIG    1        4.166   0.270  -2.495  0.00  0.00    -0.387 OA
ATOM     16  H   LIG    1        4.522  -0.464  -3.002  0.00  0.00    +0.210 HD
ENDBRANCH  11  15
BRANCH  14  17
ATOM     17  C   LIG    1        0.217  -0.378  -0.049  0.00  0.00    +0.187 C 
BRANCH  17  18
ATOM     18  O   LIG    1       -0.731   0.670  -0.052  0.00  0.00    -0.392 OA
ATOM     19  H   LIG    1       -1.604   0.292  -0.178  0.00  0.00    +0.210 HD
ENDBRANCH  17  18
ENDBRANCH  14  17
ENDBRANCH   1  12
BRANCH   6  20
ATOM     20  N   LIG    1        4.826  -6.824  -1.720  0.00  0.00    -0.341 N 
ATOM     21  H   LIG    1        4.516  -7.667  -2.182  0.00  0.00    +0.144 HD
ATOM     22  H   LIG    1        5.687  -6.801  -1.192  0.00  0.00    +0.144 HD
ENDBRANCH   6  20
TORSDOF 5
