REMARK  Name = DB12983
REMARK                            x       y       z     vdW  Elec       q    Type
REMARK                         _______ _______ _______ _____ _____    ______ ____
ROOT
ATOM      1  C   LIG    1       -3.963   2.767  -4.570  0.00  0.00    +0.000 C 
ATOM      2  C   LIG    1       -2.911   1.861  -4.422  0.00  0.00    +0.007 C 
ATOM      3  C   LIG    1       -2.426   1.628  -3.125  0.00  0.00    +0.028 C 
ATOM      4  C   LIG    1       -1.396   0.791  -2.664  0.00  0.00    +0.113 C 
ATOM      5  N   LIG    1       -0.597  -0.020  -3.434  0.00  0.00    -0.275 NA
ATOM      6  H   LIG    1       -0.763  -0.022  -4.430  0.00  0.00    +0.126 HD
ATOM      7  C   LIG    1        0.413  -0.827  -2.965  0.00  0.00    +0.113 C 
ATOM      8  N   LIG    1        0.833  -1.001  -1.650  0.00  0.00    -0.275 NA
ATOM      9  H   LIG    1        0.418  -0.530  -0.863  0.00  0.00    +0.126 HD
ATOM     10  C   LIG    1        1.894  -1.897  -1.541  0.00  0.00    +0.113 C 
ATOM     11  N   LIG    1        2.559  -2.313  -0.434  0.00  0.00    -0.275 NA
ATOM     12  H   LIG    1        3.538  -2.074  -0.595  0.00  0.00    +0.126 HD
ATOM     13  C   LIG    1        2.283  -1.892   0.826  0.00  0.00    +0.113 C 
ATOM     14  N   LIG    1        1.318  -0.991   1.267  0.00  0.00    -0.275 NA
ATOM     15  H   LIG    1        0.676  -0.520   0.651  0.00  0.00    +0.126 HD
ATOM     16  C   LIG    1        1.332  -0.806   2.647  0.00  0.00    +0.113 C 
ATOM     17  N   LIG    1        0.548  -0.015   3.420  0.00  0.00    -0.275 NA
ATOM     18  H   LIG    1        0.100  -0.640   4.089  0.00  0.00    +0.126 HD
ATOM     19  C   LIG    1       -0.442   0.780   2.942  0.00  0.00    +0.113 C 
ATOM     20  N   LIG    1       -0.870   0.970   1.631  0.00  0.00    -0.275 NA
ATOM     21  H   LIG    1       -0.460   0.502   0.840  0.00  0.00    +0.126 HD
ATOM     22  C   LIG    1       -1.924   1.874   1.525  0.00  0.00    +0.113 C 
ATOM     23  N   LIG    1       -2.590   2.298   0.422  0.00  0.00    -0.275 NA
ATOM     24  H   LIG    1       -3.570   2.069   0.587  0.00  0.00    +0.126 HD
ATOM     25  C   LIG    1       -2.323   1.877  -0.840  0.00  0.00    +0.113 C 
ATOM     26  C   LIG    1       -2.177   2.281   2.847  0.00  0.00    +0.028 C 
ATOM     27  C   LIG    1       -3.126   3.181   3.358  0.00  0.00    +0.007 C 
ATOM     28  C   LIG    1       -3.148   3.390   4.739  0.00  0.00    +0.000 C 
ATOM     29  C   LIG    1       -2.259   2.731   5.590  0.00  0.00    +0.000 C 
ATOM     30  C   LIG    1       -1.308   1.835   5.098  0.00  0.00    +0.007 C 
ATOM     31  C   LIG    1       -1.273   1.612   3.711  0.00  0.00    +0.028 C 
ATOM     32  C   LIG    1        2.366  -1.641   3.106  0.00  0.00    +0.028 C 
ATOM     33  C   LIG    1        2.843  -1.870   4.407  0.00  0.00    +0.007 C 
ATOM     34  C   LIG    1        3.901  -2.768   4.565  0.00  0.00    +0.000 C 
ATOM     35  C   LIG    1        4.473  -3.419   3.471  0.00  0.00    +0.000 C 
ATOM     36  C   LIG    1        4.012  -3.202   2.171  0.00  0.00    +0.007 C 
ATOM     37  C   LIG    1        2.947  -2.303   1.995  0.00  0.00    +0.028 C 
ATOM     38  C   LIG    1        2.154  -2.308  -2.862  0.00  0.00    +0.028 C 
ATOM     39  C   LIG    1        3.113  -3.202  -3.365  0.00  0.00    +0.007 C 
ATOM     40  C   LIG    1        3.140  -3.421  -4.744  0.00  0.00    +0.000 C 
ATOM     41  C   LIG    1        2.246  -2.779  -5.603  0.00  0.00    +0.000 C 
ATOM     42  C   LIG    1        1.285  -1.887  -5.120  0.00  0.00    +0.007 C 
ATOM     43  C   LIG    1        1.246  -1.655  -3.736  0.00  0.00    +0.028 C 
ATOM     44  N   LIG    1       -1.366   0.968  -1.285  0.00  0.00    -0.275 NA
ATOM     45  H   LIG    1       -0.722   0.492  -0.674  0.00  0.00    +0.126 HD
ATOM     46  C   LIG    1       -2.992   2.293  -2.007  0.00  0.00    +0.028 C 
ATOM     47  C   LIG    1       -4.050   3.201  -2.174  0.00  0.00    +0.007 C 
ATOM     48  C   LIG    1       -4.520   3.423  -3.470  0.00  0.00    +0.000 C 
ENDROOT
TORSDOF 0
