REMARK  Name = DB12462
REMARK                            x       y       z     vdW  Elec       q    Type
REMARK                         _______ _______ _______ _____ _____    ______ ____
ROOT
ATOM      1  N   LIG    1       -2.392   2.591  -0.041  0.00  0.00    -0.206 N 
ATOM      2  C   LIG    1       -2.035   1.226  -0.093  0.00  0.00    +0.412 C 
ATOM      3  O   LIG    1       -2.832   0.282  -0.109  0.00  0.00    -0.226 OA
ENDROOT
BRANCH   1   4
ATOM      4  C   LIG    1       -3.748   2.953  -0.008  0.00  0.00    +0.045 A 
ATOM      5  C   LIG    1       -4.349   3.268   1.214  0.00  0.00    +0.025 A 
ATOM      6  C   LIG    1       -5.693   3.632   1.247  0.00  0.00    +0.022 A 
ATOM      7  C   LIG    1       -6.426   3.682   0.061  0.00  0.00    +0.041 A 
ATOM      8 CL   LIG    1       -8.091   4.133   0.106  0.00  0.00    -0.084 Cl
ATOM      9  C   LIG    1       -5.826   3.372  -1.159  0.00  0.00    +0.022 A 
ATOM     10  C   LIG    1       -4.483   3.007  -1.197  0.00  0.00    +0.025 A 
ENDBRANCH   1   4
BRANCH   1  14
ATOM     11  C   LIG    1        0.433   5.672   0.103  0.00  0.00    +0.000 A 
ATOM     12  C   LIG    1        0.135   4.958   1.262  0.00  0.00    +0.002 A 
ATOM     13  C   LIG    1       -0.808   3.934   1.218  0.00  0.00    +0.024 A 
ATOM     14  C   LIG    1       -1.443   3.630   0.009  0.00  0.00    +0.044 A 
ATOM     15  C   LIG    1       -1.144   4.351  -1.152  0.00  0.00    +0.024 A 
ATOM     16  C   LIG    1       -0.201   5.374  -1.102  0.00  0.00    +0.002 A 
ENDBRANCH   1  14
BRANCH   2  17
ATOM     17  O   LIG    1       -0.686   1.058  -0.119  0.00  0.00    -0.450 OA
BRANCH  17  18
ATOM     18  C   LIG    1       -0.100  -0.238  -0.099  0.00  0.00    +0.237 C 
BRANCH  18  19
ATOM     19  C   LIG    1        1.436  -0.127  -0.039  0.00  0.00    +0.027 C 
ATOM     20  C   LIG    1        2.099  -1.523  -0.102  0.00  0.00    +0.007 C 
ATOM     21  C   LIG    1        3.638  -1.410  -0.087  0.00  0.00    +0.006 C 
ATOM     22  C   LIG    1        4.129  -0.666   1.178  0.00  0.00    +0.015 C 
ATOM     23  C   LIG    1        3.469   0.735   1.240  0.00  0.00    +0.006 C 
ATOM     24  C   LIG    1        1.930   0.623   1.225  0.00  0.00    +0.007 C 
BRANCH  22  25
ATOM     25  C   LIG    1        5.668  -0.593   1.232  0.00  0.00    +0.164 C 
BRANCH  25  26
ATOM     26  O   LIG    1        6.076   0.009   2.453  0.00  0.00    -0.368 OA
BRANCH  26  27
ATOM     27  C   LIG    1        7.492   0.125   2.594  0.00  0.00    +0.280 C 
BRANCH  27  28
ATOM     28  C   LIG    1        7.841   0.796   3.943  0.00  0.00    +0.331 C 
ATOM     29  O   LIG    1        9.061   0.945   4.182  0.00  0.00    -0.248 OA
BRANCH  28  30
ATOM     30  O   LIG    1        6.926   1.155   4.721  0.00  0.00    -0.479 OA
ATOM     31  H   LIG    1        6.030   1.016   4.486  0.00  0.00    +0.295 HD
ENDBRANCH  28  30
ENDBRANCH  27  28
ENDBRANCH  26  27
ENDBRANCH  25  26
ENDBRANCH  22  25
ENDBRANCH  18  19
ENDBRANCH  17  18
ENDBRANCH   2  17
TORSDOF 10
