REMARK  Name = DB12086
REMARK                            x       y       z     vdW  Elec       q    Type
REMARK                         _______ _______ _______ _____ _____    ______ ____
ROOT
ATOM      1  O   LIG    1        1.415  -0.003   0.331  0.00  0.00    -0.461 OA
ENDROOT
BRANCH   1   9
ATOM      2  N   LIG    1       -1.599  -2.705  -0.312  0.00  0.00    +0.385 N 
ATOM      3  C   LIG    1       -2.821  -1.779  -0.616  0.00  0.00    -0.091 C 
ATOM      4  C   LIG    1       -0.346  -2.450  -1.205  0.00  0.00    -0.030 C 
ATOM      5  C   LIG    1        0.844  -3.118  -0.461  0.00  0.00    +0.133 C 
ATOM      6  O   LIG    1        0.591  -4.297   0.268  0.00  0.00    -0.372 OA
ATOM      7  C   LIG    1        0.490  -3.093   0.981  0.00  0.00    +0.133 C 
ATOM      8  C   LIG    1       -0.087  -0.921  -1.320  0.00  0.00    +0.032 C 
ATOM      9  C   LIG    1        0.024  -0.168   0.047  0.00  0.00    +0.174 C 
ATOM     10  C   LIG    1       -0.699  -0.887   1.240  0.00  0.00    +0.032 C 
ATOM     11  C   LIG    1       -0.901  -2.421   1.059  0.00  0.00    -0.030 C 
BRANCH   2  13
ATOM     12  C   LIG    1       -2.886  -4.739   0.699  0.00  0.00    -0.016 C 
ATOM     13  C   LIG    1       -2.150  -4.163  -0.528  0.00  0.00    -0.078 C 
ENDBRANCH   2  13
ENDBRANCH   1   9
BRANCH   1  14
ATOM     14  C   LIG    1        1.871   1.001   1.116  0.00  0.00    +0.317 C 
ATOM     15  O   LIG    1        1.172   1.855   1.667  0.00  0.00    -0.250 OA
BRANCH  14  16
ATOM     16  C   LIG    1        3.403   0.958   1.273  0.00  0.00    +0.153 C 
BRANCH  16  17
ATOM     17  C   LIG    1        3.970   2.388   1.254  0.00  0.00    -0.032 A 
ATOM     18  C   LIG    1        4.148   3.126   2.432  0.00  0.00    +0.004 A 
ATOM     19  C   LIG    1        4.654   4.422   2.377  0.00  0.00    +0.000 A 
ATOM     20  C   LIG    1        4.981   4.984   1.145  0.00  0.00    +0.000 A 
ATOM     21  C   LIG    1        4.805   4.262  -0.033  0.00  0.00    +0.000 A 
ATOM     22  C   LIG    1        4.298   2.966   0.022  0.00  0.00    +0.004 A 
ENDBRANCH  16  17
BRANCH  16  23
ATOM     23  C   LIG    1        3.805   0.092   2.494  0.00  0.00    +0.175 C 
BRANCH  23  24
ATOM     24  O   LIG    1        5.209  -0.034   2.585  0.00  0.00    -0.394 OA
ATOM     25  H   LIG    1        5.421  -0.568   3.354  0.00  0.00    +0.209 HD
ENDBRANCH  23  24
ENDBRANCH  16  23
ENDBRANCH  14  16
ENDBRANCH   1  14
TORSDOF 7
