REMARK  Name = DB12343
REMARK                            x       y       z     vdW  Elec       q    Type
REMARK                         _______ _______ _______ _____ _____    ______ ____
ROOT
ATOM      1  C   LIG    1        0.364  -4.744  -0.772  0.00  0.00    +0.025 C 
ATOM      2  C   LIG    1       -0.486  -3.472  -0.969  0.00  0.00    +0.042 C 
ATOM      3  C   LIG    1       -1.674  -3.850  -1.900  0.00  0.00    +0.025 C 
ATOM      4  S   LIG    1        0.424  -2.164  -1.840  0.00  0.00    -0.125 S 
ATOM      5  C   LIG    1       -0.643  -0.836  -1.218  0.00  0.00    +0.195 C 
ATOM      6  C   LIG    1       -0.110   0.317  -0.294  0.00  0.00    +0.242 C 
ATOM      7  C   LIG    1       -1.118  -0.274   0.779  0.00  0.00    +0.271 C 
ATOM      8  O   LIG    1       -1.563   0.079   1.870  0.00  0.00    -0.270 OA
ATOM      9  N   LIG    1       -1.297  -1.408  -0.014  0.00  0.00    -0.266 N 
ATOM     10  C   LIG    1       -0.960  -2.787   0.358  0.00  0.00    +0.201 C 
ENDROOT
BRANCH   6  11
ATOM     11  N   LIG    1        1.301   0.179   0.021  0.00  0.00    -0.277 N 
ATOM     12  H   LIG    1        1.900   0.054  -0.782  0.00  0.00    +0.152 HD
ATOM     13  C   LIG    1        1.941   0.406   1.188  0.00  0.00    +0.234 C 
ATOM     14  O   LIG    1        1.377   0.819   2.204  0.00  0.00    -0.274 OA
BRANCH  13  15
ATOM     15  C   LIG    1        3.458   0.092   1.177  0.00  0.00    +0.213 C 
BRANCH  15  16
ATOM     16  C   LIG    1        3.695  -1.394   0.896  0.00  0.00    -0.018 A 
ATOM     17  C   LIG    1        4.341  -1.891  -0.236  0.00  0.00    +0.050 A 
ATOM     18  S   LIG    1        4.437  -3.621  -0.288  0.00  0.00    -0.105 S 
ATOM     19  C   LIG    1        3.611  -3.716   1.227  0.00  0.00    +0.045 A 
ATOM     20  C   LIG    1        3.282  -2.462   1.719  0.00  0.00    +0.012 A 
ENDBRANCH  15  16
BRANCH  15  21
ATOM     21  C   LIG    1        4.271   0.607   2.393  0.00  0.00    +0.321 C 
ATOM     22  O   LIG    1        4.995  -0.104   3.088  0.00  0.00    -0.250 OA
BRANCH  21  23
ATOM     23  O   LIG    1        4.130   1.954   2.569  0.00  0.00    -0.480 OA
ATOM     24  H   LIG    1        4.641   2.279   3.314  0.00  0.00    +0.295 HD
ENDBRANCH  21  23
ENDBRANCH  15  21
ENDBRANCH  13  15
ENDBRANCH   6  11
BRANCH   6  25
ATOM     25  O   LIG    1       -0.496   1.582  -0.761  0.00  0.00    -0.349 OA
ATOM     26  C   LIG    1       -0.289   2.705   0.092  0.00  0.00    +0.197 C 
ENDBRANCH   6  25
BRANCH  10  27
ATOM     27  C   LIG    1       -2.084  -3.532   1.112  0.00  0.00    +0.327 C 
ATOM     28  O   LIG    1       -3.240  -3.161   1.155  0.00  0.00    -0.249 OA
BRANCH  27  29
ATOM     29  O   LIG    1       -1.582  -4.630   1.746  0.00  0.00    -0.479 OA
ATOM     30  H   LIG    1       -2.255  -5.104   2.241  0.00  0.00    +0.295 HD
ENDBRANCH  27  29
ENDBRANCH  10  27
TORSDOF 8
