REMARK  Name = DB12420
REMARK                            x       y       z     vdW  Elec       q    Type
REMARK                         _______ _______ _______ _____ _____    ______ ____
ROOT
ATOM      1  N   LIG    1        6.408  -2.166  -1.358  0.00  0.00    -0.262 N 
ATOM      2  C   LIG    1        7.551  -1.422  -1.555  0.00  0.00    +0.253 C 
ATOM      3  O   LIG    1        8.229  -0.948  -0.636  0.00  0.00    -0.270 OA
ATOM      4  C   LIG    1        8.008  -1.126  -2.986  0.00  0.00    +0.060 A 
ATOM      5  C   LIG    1        9.379  -0.869  -3.168  0.00  0.00    +0.015 A 
ATOM      6  C   LIG    1        9.891  -0.545  -4.424  0.00  0.00    +0.004 A 
ATOM      7  C   LIG    1        9.044  -0.458  -5.525  0.00  0.00    +0.047 A 
ATOM      8  C   LIG    1        7.678  -0.691  -5.378  0.00  0.00    +0.137 A 
ATOM      9  C   LIG    1        7.166  -1.020  -4.114  0.00  0.00    +0.069 A 
ATOM     10  N   LIG    1        5.725  -1.271  -3.945  0.00  0.00    -0.373 NA
ATOM     11  H   LIG    1        5.340  -0.651  -3.247  0.00  0.00    +0.129 HD
ATOM     12  H   LIG    1        5.239  -1.042  -4.801  0.00  0.00    +0.129 HD
ATOM     13  C   LIG    1        5.452  -2.688  -3.584  0.00  0.00    +0.079 A 
ATOM     14  C   LIG    1        4.785  -3.561  -4.476  0.00  0.00    +0.142 A 
ATOM     15  C   LIG    1        4.489  -4.859  -4.058  0.00  0.00    +0.092 A 
ATOM     16  C   LIG    1        4.821  -5.272  -2.775  0.00  0.00    +0.122 A 
ATOM     17  C   LIG    1        5.474  -4.400  -1.909  0.00  0.00    +0.071 A 
ATOM     18  C   LIG    1        5.876  -3.109  -2.296  0.00  0.00    +0.064 A 
ENDROOT
BRANCH   8  19
ATOM     19  O   LIG    1        6.866  -0.590  -6.481  0.00  0.00    -0.505 OA
ATOM     20  H   LIG    1        7.348  -0.384  -7.285  0.00  0.00    +0.292 HD
ENDBRANCH   8  19
BRANCH  14  21
ATOM     21  O   LIG    1        4.418  -3.219  -5.652  0.00  0.00    -0.505 OA
ATOM     22  H   LIG    1        3.979  -3.835  -6.204  0.00  0.00    +0.292 HD
ENDBRANCH  14  21
BRANCH  16  23
ATOM     23  O   LIG    1        4.495  -6.534  -2.357  0.00  0.00    -0.507 OA
ATOM     24  H   LIG    1        4.049  -7.045  -3.035  0.00  0.00    +0.292 HD
ENDBRANCH  16  23
BRANCH   1  25
ATOM     25  C   LIG    1        5.965  -2.274   0.056  0.00  0.00    +0.141 C 
BRANCH  25  28
ATOM     26  C   LIG    1        3.884  -0.812   0.411  0.00  0.00    -0.075 C 
ATOM     27  C   LIG    1        4.646   0.504   0.517  0.00  0.00    +0.039 C 
ATOM     28  C   LIG    1        4.475  -2.010   0.212  0.00  0.00    -0.009 C 
BRANCH  26  29
ATOM     29  C   LIG    1        2.371  -0.694   0.548  0.00  0.00    +0.034 C 
BRANCH  29  30
ATOM     30  C   LIG    1        1.682  -0.053  -0.670  0.00  0.00    +0.031 C 
BRANCH  30  33
ATOM     31  C   LIG    1       -0.576   1.085  -0.167  0.00  0.00    -0.076 C 
ATOM     32  C   LIG    1        0.000   2.438   0.236  0.00  0.00    +0.039 C 
ATOM     33  C   LIG    1        0.169   0.021  -0.539  0.00  0.00    -0.028 C 
BRANCH  31  34
ATOM     34  C   LIG    1       -2.097   1.003  -0.129  0.00  0.00    +0.034 C 
BRANCH  34  35
ATOM     35  C   LIG    1       -2.692   0.912   1.287  0.00  0.00    +0.031 C 
BRANCH  35  39
ATOM     36  C   LIG    1       -6.496  -0.169   1.444  0.00  0.00    +0.038 C 
ATOM     37  C   LIG    1       -4.980  -0.264   1.429  0.00  0.00    -0.080 C 
ATOM     38  C   LIG    1       -4.444  -1.683   1.558  0.00  0.00    +0.038 C 
ATOM     39  C   LIG    1       -4.210   0.837   1.296  0.00  0.00    -0.028 C 
ENDBRANCH  35  39
ENDBRANCH  34  35
ENDBRANCH  31  34
ENDBRANCH  30  33
ENDBRANCH  29  30
ENDBRANCH  26  29
ENDBRANCH  25  28
ENDBRANCH   1  25
TORSDOF 11
