REMARK  Name = DB12473
REMARK                            x       y       z     vdW  Elec       q    Type
REMARK                         _______ _______ _______ _____ _____    ______ ____
ROOT
ATOM      1  C   LIG    1        0.076   0.108   0.000  0.00  0.00    +0.173 C 
ENDROOT
BRANCH   1   3
ATOM      2  C   LIG    1        2.096   0.687   1.256  0.00  0.00    +0.111 C 
ATOM      3  N   LIG    1        1.547   0.075   0.033  0.00  0.00    -0.274 NA
ATOM      4  C   LIG    1        2.014  -1.296  -0.194  0.00  0.00    +0.192 C 
ATOM      5  N   LIG    1        3.474  -1.473  -0.284  0.00  0.00    -0.180 NA
ATOM      6  H   LIG    1        3.867  -1.001  -1.103  0.00  0.00    +0.149 HD
ATOM      7  S   LIG    1        4.317  -1.066   1.200  0.00  0.00    +0.032 S 
ATOM      8  O   LIG    1        3.798  -1.872   2.310  0.00  0.00    -0.158 OA
ATOM      9  O   LIG    1        5.763  -1.028   0.955  0.00  0.00    -0.158 OA
ATOM     10  C   LIG    1        3.637   0.692   1.323  0.00  0.00    +0.200 C 
ENDBRANCH   1   3
BRANCH   1  11
ATOM     11  N   LIG    1       -0.445   1.484  -0.033  0.00  0.00    -0.274 NA
ATOM     12  C   LIG    1       -1.893   1.466   0.194  0.00  0.00    +0.192 C 
ATOM     13  N   LIG    1       -2.546   2.784   0.284  0.00  0.00    -0.180 NA
ATOM     14  H   LIG    1       -2.233   3.312   1.103  0.00  0.00    +0.149 HD
ATOM     15  S   LIG    1       -2.444   3.715  -1.199  0.00  0.00    +0.032 S 
ATOM     16  O   LIG    1       -3.031   2.957  -2.310  0.00  0.00    -0.158 OA
ATOM     17  O   LIG    1       -2.890   5.091  -0.955  0.00  0.00    -0.158 OA
ATOM     18  C   LIG    1       -0.560   3.659  -1.323  0.00  0.00    +0.200 C 
ATOM     19  C   LIG    1       -0.051   2.205  -1.256  0.00  0.00    +0.111 C 
ENDBRANCH   1  11
TORSDOF 2
