REMARK  Name = DB12957
REMARK                            x       y       z     vdW  Elec       q    Type
REMARK                         _______ _______ _______ _____ _____    ______ ____
ROOT
ATOM      1  N   LIG    1        1.359  -0.231   0.107  0.00  0.00    -0.270 N 
ATOM      2  C   LIG    1        2.052   0.794   0.708  0.00  0.00    +0.135 A 
ATOM      3  C   LIG    1        3.378   0.947   0.586  0.00  0.00    +0.179 A 
ATOM      4  C   LIG    1        4.066  -0.028  -0.217  0.00  0.00    +0.159 A 
ATOM      5  N   LIG    1        3.427  -0.986  -0.797  0.00  0.00    -0.175 NA
ATOM      6  F   LIG    1        4.030   1.970   1.184  0.00  0.00    -0.200 F 
ATOM      7  C   LIG    1        2.025  -1.144  -0.703  0.00  0.00    +0.352 A 
ATOM      8  O   LIG    1        1.395  -2.028  -1.287  0.00  0.00    -0.244 OA
ENDROOT
BRANCH   1   9
ATOM      9  C1* LIG    1       -0.095  -0.272   0.271  0.00  0.00    +0.226 C 
ATOM     10  C2* LIG    1       -0.637  -0.370   1.693  0.00  0.00    +0.088 C 
ATOM     11  C3* LIG    1       -2.074   0.080   1.460  0.00  0.00    +0.150 C 
ATOM     12  C4* LIG    1       -1.955   1.118   0.325  0.00  0.00    +0.175 C 
ATOM     13  O4* LIG    1       -0.673   0.884  -0.257  0.00  0.00    -0.348 OA
BRANCH  11  14
ATOM     14  O3* LIG    1       -2.917  -1.007   1.120  0.00  0.00    -0.389 OA
ATOM     15  H3* LIG    1       -3.811  -0.678   1.004  0.00  0.00    +0.210 HD
ENDBRANCH  11  14
BRANCH  12  16
ATOM     16  C5* LIG    1       -2.044   2.599   0.752  0.00  0.00    +0.190 C 
BRANCH  16  17
ATOM     17  O5* LIG    1       -1.087   2.942   1.737  0.00  0.00    -0.392 OA
ATOM     18  H5* LIG    1       -1.183   3.875   1.946  0.00  0.00    +0.210 HD
ENDBRANCH  16  17
ENDBRANCH  12  16
ENDBRANCH   1   9
BRANCH   4  19
ATOM     19  N   LIG    1        5.397   0.082  -0.348  0.00  0.00    -0.341 N 
ATOM     20  H   LIG    1        5.912  -0.586  -0.903  0.00  0.00    +0.144 HD
ATOM     21  H   LIG    1        5.897   0.833   0.106  0.00  0.00    +0.144 HD
ENDBRANCH   4  19
TORSDOF 5
