REMARK  Name = DB12055
REMARK                            x       y       z     vdW  Elec       q    Type
REMARK                         _______ _______ _______ _____ _____    ______ ____
ROOT
ATOM      1  C   LIG    1       -0.832   1.164  -0.006  0.00  0.00    +0.132 A 
ATOM      2  C   LIG    1       -0.008   0.038   0.216  0.00  0.00    +0.078 A 
ATOM      3  C   LIG    1       -0.590  -1.238   0.283  0.00  0.00    +0.020 A 
ATOM      4  C   LIG    1       -1.965  -1.415   0.134  0.00  0.00    -0.042 A 
ATOM      5  C   LIG    1       -2.777  -0.303  -0.083  0.00  0.00    +0.007 A 
ATOM      6  C   LIG    1       -2.218   0.970  -0.153  0.00  0.00    +0.046 A 
ENDROOT
BRANCH   2   7
ATOM      7  C   LIG    1        1.483   0.183   0.417  0.00  0.00    +0.248 C 
ATOM      8  N   LIG    1        2.244  -0.760  -0.172  0.00  0.00    -0.307 N 
ATOM      9  H   LIG    1        1.783  -1.479  -0.711  0.00  0.00    +0.149 HD
ATOM     10  O   LIG    1        1.950   1.106   1.087  0.00  0.00    -0.270 OA
BRANCH   8  11
ATOM     11  C   LIG    1        3.694  -0.892  -0.017  0.00  0.00    +0.139 C 
BRANCH  11  12
ATOM     12  C   LIG    1        4.164  -1.335   1.369  0.00  0.00    -0.030 A 
ATOM     13  C   LIG    1        5.306  -0.756   1.927  0.00  0.00    +0.006 A 
ATOM     14  C   LIG    1        5.737  -1.137   3.195  0.00  0.00    +0.013 A 
ATOM     15  C   LIG    1        5.027  -2.100   3.920  0.00  0.00    +0.055 A 
ATOM     16  C   LIG    1        3.882  -2.676   3.362  0.00  0.00    +0.013 A 
ATOM     17  C   LIG    1        3.452  -2.296   2.094  0.00  0.00    +0.006 A 
BRANCH  15  18
ATOM     18  C   LIG    1        5.479  -2.534   5.314  0.00  0.00    +0.417 C 
ATOM     19  F   LIG    1        5.807  -3.826   5.292  0.00  0.00    -0.166 F 
ATOM     20  F   LIG    1        4.486  -2.358   6.187  0.00  0.00    -0.166 F 
ATOM     21  F   LIG    1        6.536  -1.844   5.746  0.00  0.00    -0.166 F 
ENDBRANCH  15  18
ENDBRANCH  11  12
ENDBRANCH   8  11
ENDBRANCH   2   7
BRANCH   1  23
ATOM     22  C   LIG    1       -1.043   3.569  -0.304  0.00  0.00    +0.277 C 
ATOM     23  O   LIG    1       -0.239   2.414  -0.086  0.00  0.00    -0.494 OA
ENDBRANCH   1  23
BRANCH   4  24
ATOM     24  C   LIG    1       -2.572  -2.808   0.227  0.00  0.00    +0.089 C 
BRANCH  24  25
ATOM     25  C   LIG    1       -2.765  -3.282   1.689  0.00  0.00    +0.268 C 
ATOM     26  O   LIG    1       -3.718  -2.497   2.350  0.00  0.00    -0.437 OA
ATOM     27  C   LIG    1       -4.756  -3.257   2.757  0.00  0.00    +0.407 C 
ATOM     28  O   LIG    1       -5.673  -2.703   3.359  0.00  0.00    -0.226 OA
ATOM     29  N   LIG    1       -4.537  -4.521   2.389  0.00  0.00    -0.218 N 
ATOM     30  H   LIG    1       -5.150  -5.267   2.578  0.00  0.00    +0.161 HD
ATOM     31  C   LIG    1       -3.412  -4.644   1.749  0.00  0.00    +0.263 C 
ATOM     32  O   LIG    1       -2.915  -5.661   1.267  0.00  0.00    -0.271 OA
ENDBRANCH  24  25
ENDBRANCH   4  24
TORSDOF 7
