REMARK  Name = DB12663
REMARK                            x       y       z     vdW  Elec       q    Type
REMARK                         _______ _______ _______ _____ _____    ______ ____
ROOT
ATOM      1  C   LIG    1        1.584   0.069  -0.015  0.00  0.00    +0.011 A 
ATOM      2  C   LIG    1        2.326  -0.306  -1.153  0.00  0.00    +0.049 A 
ATOM      3 CL   LIG    1        1.562  -0.769  -2.636  0.00  0.00    -0.083 Cl
ATOM      4  C   LIG    1        3.720  -0.310  -1.118  0.00  0.00    +0.045 A 
ATOM      5  C   LIG    1        4.401   0.065   0.042  0.00  0.00    +0.057 A 
ATOM      6  C   LIG    1        3.675   0.438   1.175  0.00  0.00    +0.045 A 
ATOM      7  C   LIG    1        2.281   0.444   1.152  0.00  0.00    +0.049 A 
ATOM      8 CL   LIG    1        1.459   0.929   2.596  0.00  0.00    -0.083 Cl
ENDROOT
BRANCH   5   9
ATOM      9  N   LIG    1        5.808   0.057   0.067  0.00  0.00    -0.188 N 
ATOM     10  N   LIG    1        6.374  -1.228   0.017  0.00  0.00    -0.218 NA
ATOM     11  H   LIG    1        6.087  -1.660  -0.861  0.00  0.00    +0.146 HD
ATOM     12  C   LIG    1        7.658  -1.292   0.084  0.00  0.00    +0.187 C 
ATOM     13  C   LIG    1        8.521  -0.100   0.199  0.00  0.00    +0.241 C 
ATOM     14  O   LIG    1        9.737  -0.268   0.263  0.00  0.00    -0.274 OA
ATOM     15  N   LIG    1        7.883   1.078   0.223  0.00  0.00    -0.237 N 
ATOM     16  H   LIG    1        8.434   1.891   0.296  0.00  0.00    +0.159 HD
ATOM     17  C   LIG    1        6.552   1.236   0.155  0.00  0.00    +0.327 C 
ATOM     18  O   LIG    1        5.963   2.320   0.164  0.00  0.00    -0.250 OA
ENDBRANCH   5   9
BRANCH   1  19
ATOM     19  C   LIG    1        0.047   0.078  -0.053  0.00  0.00    +0.154 C 
BRANCH  19  21
ATOM     20  C   LIG    1       -1.411   1.895   1.023  0.00  0.00    +0.008 A 
ATOM     21  C   LIG    1       -0.568   1.482  -0.018  0.00  0.00    -0.026 A 
ATOM     22  C   LIG    1       -0.290   2.363  -1.068  0.00  0.00    +0.008 A 
ATOM     23  C   LIG    1       -0.835   3.644  -1.075  0.00  0.00    +0.038 A 
ATOM     24  C   LIG    1       -1.666   4.046  -0.032  0.00  0.00    +0.123 A 
ATOM     25  F   LIG    1       -2.197   5.290  -0.039  0.00  0.00    -0.205 F 
ATOM     26  C   LIG    1       -1.956   3.176   1.016  0.00  0.00    +0.038 A 
ENDBRANCH  19  21
BRANCH  19  27
ATOM     27  C   LIG    1       -0.521  -0.867   0.929  0.00  0.00    +0.075 C 
ATOM     28  N   LIG    1       -0.966  -1.610   1.698  0.00  0.00    -0.196 NA
ENDBRANCH  19  27
ENDBRANCH   1  19
TORSDOF 4
