REMARK  Name = DB12417
REMARK                            x       y       z     vdW  Elec       q    Type
REMARK                         _______ _______ _______ _____ _____    ______ ____
ROOT
ATOM      1  C   LIG    1        1.717  -0.144  -0.457  0.00  0.00    -0.058 C 
ATOM      2  C   LIG    1        2.471   0.506   0.731  0.00  0.00    -0.009 C 
ATOM      3  C   LIG    1        2.151   0.498  -1.799  0.00  0.00    -0.009 C 
ENDROOT
BRANCH   1   4
ATOM      4  N   LIG    1        2.024  -1.667  -0.520  0.00  0.00    +0.389 N 
ATOM      5  H   LIG    1        1.569  -2.018  -1.350  0.00  0.00    -0.084 HD
ATOM      6  H   LIG    1        1.564  -2.104   0.267  0.00  0.00    -0.084 HD
BRANCH   4   7
ATOM      7  C   LIG    1        3.457  -2.109  -0.527  0.00  0.00    +0.016 C 
BRANCH   7   8
ATOM      8  C   LIG    1        3.918  -2.417   0.917  0.00  0.00    +0.200 C 
ATOM      9  N   LIG    1        5.171  -2.073   1.300  0.00  0.00    -0.287 N 
ATOM     10  C   LIG    1        5.665  -2.296   2.668  0.00  0.00    +0.179 C 
ATOM     11  C   LIG    1        7.168  -2.044   2.531  0.00  0.00    +0.039 C 
ATOM     12  C   LIG    1        7.262  -1.005   1.428  0.00  0.00    +0.022 C 
ATOM     13  C   LIG    1        6.156  -1.393   0.446  0.00  0.00    +0.109 C 
ATOM     14  O   LIG    1        3.142  -2.980   1.695  0.00  0.00    -0.278 OA
BRANCH  10  15
ATOM     15  C   LIG    1        5.031  -1.365   3.622  0.00  0.00    +0.085 C 
ATOM     16  N   LIG    1        4.533  -0.634   4.367  0.00  0.00    -0.195 NA
ENDBRANCH  10  15
ENDBRANCH   7   8
ENDBRANCH   4   7
ENDBRANCH   1   4
BRANCH   1  17
ATOM     17  C   LIG    1        0.174  -0.046  -0.256  0.00  0.00    +0.091 C 
BRANCH  17  19
ATOM     18  C   LIG    1       -0.864   2.090  -1.051  0.00  0.00    +0.247 C 
ATOM     19  N   LIG    1       -0.352   1.311  -0.077  0.00  0.00    -0.313 N 
ATOM     20  H   LIG    1       -0.360   1.663   0.869  0.00  0.00    +0.149 HD
ATOM     21  O   LIG    1       -0.922   1.736  -2.230  0.00  0.00    -0.270 OA
BRANCH  18  27
ATOM     22  C   LIG    1       -3.019   7.651   3.237  0.00  0.00    +0.067 C 
ATOM     23  C   LIG    1       -2.660   6.800   2.043  0.00  0.00    +0.062 A 
ATOM     24  N   LIG    1       -2.236   5.563   2.234  0.00  0.00    -0.170 NA
ATOM     25  N   LIG    1       -1.999   5.063   1.002  0.00  0.00    -0.221 N 
ATOM     26  C   LIG    1       -1.543   3.804   0.716  0.00  0.00    +0.129 A 
ATOM     27  C   LIG    1       -1.355   3.456  -0.630  0.00  0.00    +0.073 A 
ATOM     28  C   LIG    1       -1.659   4.436  -1.588  0.00  0.00    +0.127 A 
ATOM     29  N   LIG    1       -2.111   5.689  -1.299  0.00  0.00    -0.235 NA
ATOM     30  C   LIG    1       -2.277   5.993  -0.006  0.00  0.00    +0.156 A 
ATOM     31  C   LIG    1       -2.714   7.144   0.687  0.00  0.00    +0.073 A 
ENDBRANCH  18  27
ENDBRANCH  17  19
ENDBRANCH   1  17
TORSDOF 7
