REMARK  Name = DB12840
REMARK                            x       y       z     vdW  Elec       q    Type
REMARK                         _______ _______ _______ _____ _____    ______ ____
ROOT
ATOM      1  C   LIG    1       -2.878  -2.492   0.012  0.00  0.00    +0.044 C 
ATOM      2  C   LIG    1       -2.112  -1.182  -0.011  0.00  0.00    -0.043 A 
ATOM      3  C   LIG    1       -0.725  -1.168   0.136  0.00  0.00    +0.050 A 
ATOM      4  C   LIG    1       -0.004   0.037   0.116  0.00  0.00    +0.143 A 
ATOM      5  C   LIG    1       -0.682   1.262  -0.109  0.00  0.00    +0.062 A 
ATOM      6  C   LIG    1       -0.054   2.620  -0.204  0.00  0.00    -0.030 C 
ATOM      7  C   LIG    1        1.478   2.737  -0.293  0.00  0.00    +0.039 C 
ATOM      8  C   LIG    1        1.944   4.158  -0.668  0.00  0.00    -0.009 C 
ATOM      9  C   LIG    1        3.481   4.258  -0.650  0.00  0.00    +0.008 C 
ATOM     10  C   LIG    1        1.297   5.143   0.314  0.00  0.00    +0.008 C 
ATOM     11  C   LIG    1       -0.231   5.133   0.178  0.00  0.00    +0.035 C 
ATOM     12  C   LIG    1       -0.817   3.712   0.099  0.00  0.00    -0.023 C 
ATOM     13  C   LIG    1       -2.347   3.545   0.272  0.00  0.00    +0.127 C 
ATOM     14  C   LIG    1       -3.114   4.681  -0.438  0.00  0.00    +0.060 C 
ATOM     15  C   LIG    1       -2.677   3.429   1.777  0.00  0.00    +0.060 C 
ATOM     16  O   LIG    1       -2.816   2.364  -0.408  0.00  0.00    -0.481 OA
ATOM     17  C   LIG    1       -2.080   1.216  -0.220  0.00  0.00    +0.133 A 
ATOM     18  C   LIG    1       -2.791   0.020  -0.187  0.00  0.00    +0.050 A 
ENDROOT
BRANCH   4  19
ATOM     19  O   LIG    1        1.361  -0.038   0.293  0.00  0.00    -0.425 OA
BRANCH  19  20
ATOM     20  C   LIG    1        1.872  -0.243   1.539  0.00  0.00    +0.309 C 
ATOM     21  C   LIG    1        3.394  -0.289   1.530  0.00  0.00    +0.136 C 
ATOM     22  O   LIG    1        1.236  -0.368   2.589  0.00  0.00    -0.251 OA
ENDBRANCH  19  20
ENDBRANCH   4  19
TORSDOF 2
