REMARK  Name = DB12370
REMARK                            x       y       z     vdW  Elec       q    Type
REMARK                         _______ _______ _______ _____ _____    ______ ____
ROOT
ATOM      1  C   LIG    1       -0.288   0.339  -0.221  0.00  0.00    +0.163 C 
ENDROOT
BRANCH   1   3
ATOM      2  C   LIG    1       -1.188  -1.217   1.553  0.00  0.00    +0.234 C 
ATOM      3  N   LIG    1       -1.024  -0.001   1.000  0.00  0.00    -0.302 N 
ATOM      4  H   LIG    1       -1.414   0.794   1.486  0.00  0.00    +0.150 HD
ATOM      5  O   LIG    1       -0.775  -2.275   1.077  0.00  0.00    -0.274 OA
BRANCH   2   6
ATOM      6  C   LIG    1       -1.913  -1.232   2.910  0.00  0.00    +0.161 C 
BRANCH   6   8
ATOM      7  C   LIG    1       -4.026  -2.446   2.357  0.00  0.00    +0.202 C 
ATOM      8  N   LIG    1       -2.842  -2.361   3.004  0.00  0.00    -0.305 N 
ATOM      9  H   LIG    1       -2.522  -3.141   3.557  0.00  0.00    +0.149 HD
ATOM     10  O   LIG    1       -4.443  -1.505   1.679  0.00  0.00    -0.277 OA
BRANCH   7  12
ATOM     11  C   LIG    1       -6.259  -3.410   3.142  0.00  0.00    -0.001 C 
ATOM     12  C   LIG    1       -4.911  -3.732   2.452  0.00  0.00    +0.001 C 
ATOM     13  C   LIG    1       -5.131  -4.338   1.044  0.00  0.00    -0.001 C 
BRANCH  12  14
ATOM     14  N   LIG    1       -4.229  -4.834   3.299  0.00  0.00    +0.387 N 
ATOM     15  H   LIG    1       -3.350  -5.102   2.881  0.00  0.00    -0.089 HD
ATOM     16  H   LIG    1       -4.071  -4.508   4.242  0.00  0.00    -0.089 HD
ATOM     17  H   LIG    1       -4.825  -5.649   3.339  0.00  0.00    -0.089 HD
ENDBRANCH  12  14
ENDBRANCH   7  12
ENDBRANCH   6   8
BRANCH   6  18
ATOM     18  C   LIG    1       -0.906  -1.321   4.076  0.00  0.00    +0.057 C 
BRANCH  18  19
ATOM     19  C   LIG    1        0.095  -0.189   4.137  0.00  0.00    +0.059 C 
ATOM     20  N   LIG    1        1.462  -0.425   4.178  0.00  0.00    -0.290 NA
ATOM     21  H   LIG    1        1.922  -1.319   4.082  0.00  0.00    +0.124 HD
ATOM     22  C   LIG    1        2.055   0.754   4.351  0.00  0.00    +0.155 C 
ATOM     23  N   LIG    1        1.171   1.742   4.465  0.00  0.00    -0.293 NA
ATOM     24  H   LIG    1        1.376   2.720   4.617  0.00  0.00    +0.124 HD
ATOM     25  C   LIG    1       -0.084   1.162   4.379  0.00  0.00    +0.096 C 
ENDBRANCH  18  19
ENDBRANCH   6  18
ENDBRANCH   2   6
ENDBRANCH   1   3
BRANCH   1  26
ATOM     26  C   LIG    1        1.238   0.327   0.012  0.00  0.00    +0.234 C 
ATOM     27  N   LIG    1        1.884   1.431  -0.407  0.00  0.00    -0.302 N 
ATOM     28  H   LIG    1        1.324   2.170  -0.806  0.00  0.00    +0.150 HD
ATOM     29  O   LIG    1        1.777  -0.662   0.507  0.00  0.00    -0.274 OA
BRANCH  27  30
ATOM     30  C   LIG    1        3.326   1.700  -0.421  0.00  0.00    +0.163 C 
BRANCH  30  31
ATOM     31  C   LIG    1        3.968   1.809   0.977  0.00  0.00    +0.234 C 
ATOM     32  N   LIG    1        4.684   2.922   1.205  0.00  0.00    -0.302 N 
ATOM     33  H   LIG    1        4.737   3.629   0.486  0.00  0.00    +0.150 HD
ATOM     34  O   LIG    1        3.860   0.887   1.785  0.00  0.00    -0.274 OA
BRANCH  32  35
ATOM     35  C   LIG    1        5.430   3.204   2.435  0.00  0.00    +0.159 C 
BRANCH  35  36
ATOM     36  C   LIG    1        4.519   3.548   3.635  0.00  0.00    +0.231 C 
ATOM     37  N   LIG    1        5.018   3.300   4.849  0.00  0.00    -0.328 N 
ATOM     38  H   LIG    1        4.479   3.520   5.674  0.00  0.00    +0.145 HD
ATOM     39  H   LIG    1        5.940   2.902   4.952  0.00  0.00    +0.145 HD
ATOM     40  O   LIG    1        3.405   4.042   3.463  0.00  0.00    -0.274 OA
ENDBRANCH  35  36
BRANCH  35  41
ATOM     41  C   LIG    1        6.438   4.340   2.157  0.00  0.00    +0.032 C 
BRANCH  41  42
ATOM     42  C   LIG    1        7.521   3.955   1.134  0.00  0.00    +0.000 C 
BRANCH  42  43
ATOM     43  C   LIG    1        8.573   5.056   0.938  0.00  0.00    -0.019 C 
BRANCH  43  44
ATOM     44  C   LIG    1        9.630   4.671  -0.111  0.00  0.00    -0.086 C 
BRANCH  44  45
ATOM     45  N   LIG    1       10.645   5.726  -0.281  0.00  0.00    +0.378 N 
ATOM     46  H   LIG    1       10.198   6.582  -0.577  0.00  0.00    -0.090 HD
ATOM     47  H   LIG    1       11.121   5.883   0.596  0.00  0.00    -0.090 HD
ATOM     48  H   LIG    1       11.317   5.441  -0.979  0.00  0.00    -0.090 HD
ENDBRANCH  44  45
ENDBRANCH  43  44
ENDBRANCH  42  43
ENDBRANCH  41  42
ENDBRANCH  35  41
ENDBRANCH  32  35
ENDBRANCH  30  31
BRANCH  30  49
ATOM     49  C   LIG    1        4.071   0.713  -1.356  0.00  0.00    +0.067 C 
BRANCH  49  50
ATOM     50  C   LIG    1        5.572   0.924  -1.479  0.00  0.00    -0.045 A 
ATOM     51  C   LIG    1        6.075   1.937  -2.323  0.00  0.00    +0.004 A 
ATOM     52  C   LIG    1        7.439   2.191  -2.369  0.00  0.00    +0.000 A 
ATOM     53  C   LIG    1        8.312   1.471  -1.563  0.00  0.00    +0.000 A 
ATOM     54  C   LIG    1        7.828   0.499  -0.696  0.00  0.00    +0.000 A 
ATOM     55  C   LIG    1        6.468   0.228  -0.638  0.00  0.00    +0.004 A 
ENDBRANCH  49  50
ENDBRANCH  30  49
ENDBRANCH  27  30
ENDBRANCH   1  26
BRANCH   1  56
ATOM     56  C   LIG    1       -0.709  -0.500  -1.463  0.00  0.00    +0.067 C 
BRANCH  56  57
ATOM     57  C   LIG    1       -0.210   0.097  -2.776  0.00  0.00    -0.045 A 
ATOM     58  C   LIG    1       -0.945   1.099  -3.411  0.00  0.00    +0.012 A 
ATOM     59  C   LIG    1       -0.484   1.675  -4.620  0.00  0.00    -0.018 A 
ATOM     60  C   LIG    1       -1.209   2.696  -5.285  0.00  0.00    +0.008 A 
ATOM     61  C   LIG    1       -0.727   3.243  -6.471  0.00  0.00    +0.001 A 
ATOM     62  C   LIG    1        0.471   2.797  -7.020  0.00  0.00    +0.001 A 
ATOM     63  C   LIG    1        1.208   1.796  -6.393  0.00  0.00    +0.008 A 
ATOM     64  C   LIG    1        0.746   1.216  -5.185  0.00  0.00    -0.018 A 
ATOM     65  C   LIG    1        1.469   0.195  -4.522  0.00  0.00    +0.009 A 
ATOM     66  C   LIG    1        0.987  -0.351  -3.336  0.00  0.00    +0.004 A 
ENDBRANCH  56  57
ENDBRANCH   1  56
TORSDOF 21
