REMARK  Name = DB12878
REMARK                            x       y       z     vdW  Elec       q    Type
REMARK                         _______ _______ _______ _____ _____    ______ ____
ROOT
ATOM      1  C   LIG    1        0.058  -0.092  -0.698  0.00  0.00    +0.164 C 
ATOM      2  O   LIG    1       -0.503   0.874  -1.218  0.00  0.00    -0.292 OA
ENDROOT
BRANCH   1   8
ATOM      3  C   LIG    1       -0.529  -3.784  -0.060  0.00  0.00    +0.021 A 
ATOM      4  C   LIG    1       -1.881  -3.827   0.264  0.00  0.00    +0.043 A 
ATOM      5 CL   LIG    1       -2.635  -5.336   0.631  0.00  0.00    -0.083 Cl
ATOM      6  C   LIG    1       -2.626  -2.650   0.289  0.00  0.00    +0.043 A 
ATOM      7  C   LIG    1       -2.027  -1.421  -0.005  0.00  0.00    +0.037 A 
ATOM      8  C   LIG    1       -0.650  -1.365  -0.326  0.00  0.00    +0.038 A 
ATOM      9  C   LIG    1        0.079  -2.566  -0.357  0.00  0.00    +0.014 A 
BRANCH   7  10
ATOM     10  N   LIG    1       -2.843  -0.286   0.057  0.00  0.00    -0.357 N 
ATOM     11  H   LIG    1       -2.441   0.622  -0.127  0.00  0.00    +0.142 HD
ATOM     12  H   LIG    1       -3.814  -0.382   0.315  0.00  0.00    +0.142 HD
ENDBRANCH   7  10
ENDBRANCH   1   8
BRANCH   1  13
ATOM     13  C   LIG    1        1.514   0.054  -0.208  0.00  0.00    +0.074 C 
BRANCH  13  14
ATOM     14  CA  LIG    1        1.982   1.502   0.110  0.00  0.00    +0.043 C 
BRANCH  14  15
ATOM     15  N   LIG    1        3.516   1.482   0.222  0.00  0.00    +0.387 N 
ATOM     16  H1  LIG    1        3.801   0.872   0.976  0.00  0.00    -0.089 HD
ATOM     17  H2  LIG    1        3.920   1.141  -0.639  0.00  0.00    -0.089 HD
ATOM     18  H3  LIG    1        3.865   2.414   0.395  0.00  0.00    -0.089 HD
ENDBRANCH  14  15
BRANCH  14  19
ATOM     19  C   LIG    1        1.405   2.042   1.451  0.00  0.00    +0.290 C 
ATOM     20  O   LIG    1        0.254   2.528   1.399  0.00  0.00    -0.253 OA
BRANCH  19  21
ATOM     21  OXT LIG    1        2.073   1.952   2.509  0.00  0.00    -0.482 OA
ATOM     22  HXT LIG    1        2.932   1.578   2.490  0.00  0.00    +0.295 HD
ENDBRANCH  19  21
ENDBRANCH  14  19
ENDBRANCH  13  14
ENDBRANCH   1  13
TORSDOF 7
