REMARK  Name = DB12255
REMARK                            x       y       z     vdW  Elec       q    Type
REMARK                         _______ _______ _______ _____ _____    ______ ____
ROOT
ATOM      1  C   UNK A  1       -2.828   0.062   0.010  0.00  0.00    +0.004 A 
ATOM      2  C   UNK A  1       -2.025   1.204  -0.056  0.00  0.00    +0.120 A 
ATOM      3  N   UNK A  1       -0.670   1.167  -0.068  0.00  0.00    -0.246 NA
ATOM      4  C   UNK A  1       -0.032  -0.039  -0.012  0.00  0.00    +0.167 A 
ATOM      5  C   UNK A  1       -0.773  -1.240   0.059  0.00  0.00    +0.148 A 
ATOM      6  C   UNK A  1       -2.169  -1.172   0.068  0.00  0.00    +0.057 A 
ENDROOT
BRANCH   1  12
ATOM      7  C   UNK A  1       -6.490  -0.675  -0.692  0.00  0.00    +0.002 A 
ATOM      8  C   UNK A  1       -7.122   0.334   0.032  0.00  0.00    +0.020 A 
ATOM      9  C   UNK A  1       -6.361   1.254   0.751  0.00  0.00    +0.042 A 
ATOM     10 CL   UNK A  1       -7.139   2.504   1.652  0.00  0.00    -0.084 Cl
ATOM     11  C   UNK A  1       -4.968   1.163   0.744  0.00  0.00    +0.028 A 
ATOM     12  C   UNK A  1       -4.315   0.155   0.019  0.00  0.00    -0.015 A 
ATOM     13  C   UNK A  1       -5.097  -0.762  -0.698  0.00  0.00    +0.008 A 
ENDBRANCH   1  12
BRANCH   4  14
ATOM     14  C   UNK A  1        1.492  -0.009  -0.031  0.00  0.00    +0.266 C 
ATOM     15  N   GLY A  2        2.077   1.208  -0.089  0.00  0.00    -0.299 N 
ATOM     16  H   GLY A  2        1.477   2.020  -0.104  0.00  0.00    +0.150 HD
ATOM     17  O   UNK A  1        2.158  -1.046   0.004  0.00  0.00    -0.268 OA
BRANCH  15  18
ATOM     18  CA  GLY A  2        3.522   1.471  -0.130  0.00  0.00    +0.225 C 
BRANCH  18  19
ATOM     19  C   GLY A  2        4.053   1.402  -1.576  0.00  0.00    +0.322 C 
ATOM     20  O   GLY A  2        3.373   1.211  -2.565  0.00  0.00    -0.249 OA
BRANCH  19  21
ATOM     21  OXT GLY A  2        5.404   1.595  -1.571  0.00  0.00    -0.480 OA
ATOM     22  HXT GLY A  2        5.779   1.559  -2.454  0.00  0.00    +0.295 HD
ENDBRANCH  19  21
ENDBRANCH  18  19
ENDBRANCH  15  18
ENDBRANCH   4  14
BRANCH   5  23
ATOM     23  O   UNK A  1       -0.198  -2.486   0.121  0.00  0.00    -0.504 OA
ATOM     24  H   UNK A  1       -0.842  -3.196   0.166  0.00  0.00    +0.292 HD
ENDBRANCH   5  23
TORSDOF 6
