REMARK  Name = DB12613
REMARK                            x       y       z     vdW  Elec       q    Type
REMARK                         _______ _______ _______ _____ _____    ______ ____
ROOT
ATOM      1  CA  SER A  5       -0.317   0.384  -0.631  0.00  0.00    +0.184 C 
ENDROOT
BRANCH   1   4
ATOM      2  N   ILE A  6       -2.047   2.039  -1.069  0.00  0.00    -0.302 N 
ATOM      3  H   ILE A  6       -2.524   1.274  -1.523  0.00  0.00    +0.150 HD
ATOM      4  C   SER A  5       -0.844   1.822  -0.512  0.00  0.00    +0.236 C 
ATOM      5  O   SER A  5       -0.182   2.683   0.072  0.00  0.00    -0.274 OA
BRANCH   2   6
ATOM      6  CA  ILE A  6       -2.779   3.306  -1.027  0.00  0.00    +0.162 C 
BRANCH   6   7
ATOM      7  C   ILE A  6       -3.429   3.475   0.370  0.00  0.00    +0.237 C 
ATOM      8  N   PRO A  7       -3.128   4.580   1.096  0.00  0.00    -0.288 N 
ATOM      9  CA  PRO A  7       -3.760   4.874   2.396  0.00  0.00    +0.162 C 
ATOM     10  CB  PRO A  7       -2.807   5.910   3.018  0.00  0.00    +0.033 C 
ATOM     11  CG  PRO A  7       -2.247   6.676   1.829  0.00  0.00    +0.021 C 
ATOM     12  CD  PRO A  7       -2.151   5.614   0.738  0.00  0.00    +0.109 C 
ATOM     13  O   ILE A  6       -4.192   2.589   0.761  0.00  0.00    -0.274 OA
BRANCH   9  14
ATOM     14  C   PRO A  7       -5.209   5.381   2.229  0.00  0.00    +0.234 C 
ATOM     15  N   GLN A  8       -6.152   4.427   2.136  0.00  0.00    -0.301 N 
ATOM     16  H   GLN A  8       -5.869   3.459   2.188  0.00  0.00    +0.150 HD
ATOM     17  O   PRO A  7       -5.441   6.588   2.157  0.00  0.00    -0.274 OA
BRANCH  15  18
ATOM     18  CA  GLN A  8       -7.587   4.654   1.905  0.00  0.00    +0.182 C 
BRANCH  18  19
ATOM     19  C   GLN A  8       -8.335   5.095   3.222  0.00  0.00    +0.325 C 
ATOM     20  O   GLN A  8       -9.107   6.070   3.075  0.00  0.00    -0.249 OA
BRANCH  19  21
ATOM     21  OXT GLN A  8       -8.115   4.405   4.247  0.00  0.00    -0.479 OA
ATOM     22  HXT GLN A  8       -7.503   3.696   4.212  0.00  0.00    +0.295 HD
ENDBRANCH  19  21
ENDBRANCH  18  19
BRANCH  18  23
ATOM     23  CB  GLN A  8       -8.197   3.343   1.331  0.00  0.00    +0.043 C 
BRANCH  23  24
ATOM     24  CG  GLN A  8       -9.691   3.424   0.941  0.00  0.00    +0.098 C 
BRANCH  24  25
ATOM     25  CD  GLN A  8      -10.223   2.150   0.276  0.00  0.00    +0.211 C 
ATOM     26  NE2 GLN A  8      -11.548   2.055   0.148  0.00  0.00    -0.329 N 
ATOM     27 HE21 GLN A  8      -11.959   1.242  -0.288  0.00  0.00    +0.145 HD
ATOM     28 HE22 GLN A  8      -12.148   2.792   0.490  0.00  0.00    +0.145 HD
ATOM     29  OE1 GLN A  8       -9.464   1.272  -0.131  0.00  0.00    -0.276 OA
ENDBRANCH  24  25
ENDBRANCH  23  24
ENDBRANCH  18  23
ENDBRANCH  15  18
ENDBRANCH   9  14
ENDBRANCH   6   7
BRANCH   6  30
ATOM     30  CB  ILE A  6       -3.910   3.306  -2.105  0.00  0.00    +0.015 C 
ATOM     31  CG2 ILE A  6       -4.894   4.497  -1.989  0.00  0.00    +0.010 C 
BRANCH  30  33
ATOM     32  CD1 ILE A  6       -4.330   2.946  -4.635  0.00  0.00    +0.004 C 
ATOM     33  CG1 ILE A  6       -3.308   3.258  -3.531  0.00  0.00    +0.002 C 
ENDBRANCH  30  33
ENDBRANCH   6  30
ENDBRANCH   2   6
ENDBRANCH   1   4
BRANCH   1  34
ATOM     34  N   SER A  5        1.134   0.342  -0.457  0.00  0.00    -0.301 N 
ATOM     35  H   SER A  5        1.520   1.038   0.164  0.00  0.00    +0.150 HD
ATOM     36  C   VAL A  4        1.946  -0.551  -1.043  0.00  0.00    +0.234 C 
ATOM     37  O   VAL A  4        1.570  -1.431  -1.821  0.00  0.00    -0.274 OA
BRANCH  36  38
ATOM     38  CA  VAL A  4        3.445  -0.420  -0.710  0.00  0.00    +0.161 C 
BRANCH  38  39
ATOM     39  N   VAL A  4        4.012  -1.743  -0.454  0.00  0.00    -0.302 N 
ATOM     40  H   VAL A  4        4.464  -2.183  -1.242  0.00  0.00    +0.150 HD
ATOM     41  C   PRO A  3        3.886  -2.426   0.698  0.00  0.00    +0.234 C 
ATOM     42  O   PRO A  3        3.352  -1.983   1.713  0.00  0.00    -0.274 OA
BRANCH  41  43
ATOM     43  CA  PRO A  3        4.433  -3.868   0.712  0.00  0.00    +0.162 C 
ATOM     44  N   PRO A  3        4.335  -4.596  -0.572  0.00  0.00    -0.288 N 
ATOM     45  C   ALA A  2        3.158  -4.831  -1.205  0.00  0.00    +0.236 C 
ATOM     46  O   ALA A  2        2.059  -4.537  -0.733  0.00  0.00    -0.274 OA
ATOM     47  CD  PRO A  3        5.656  -5.058  -1.005  0.00  0.00    +0.109 C 
ATOM     48  CG  PRO A  3        6.490  -5.072   0.267  0.00  0.00    +0.021 C 
ATOM     49  CB  PRO A  3        5.936  -3.893   1.048  0.00  0.00    +0.033 C 
BRANCH  45  50
ATOM     50  CA  ALA A  2        3.207  -5.529  -2.578  0.00  0.00    +0.156 C 
ATOM     51  CB  ALA A  2        2.027  -5.136  -3.486  0.00  0.00    +0.038 C 
BRANCH  50  52
ATOM     52  N   ALA A  2        3.199  -6.973  -2.366  0.00  0.00    -0.306 N 
ATOM     53  H   ALA A  2        2.618  -7.294  -1.604  0.00  0.00    +0.149 HD
ATOM     54  C   ASN A  1        3.932  -7.862  -3.056  0.00  0.00    +0.200 C 
ATOM     55  O   ASN A  1        4.656  -7.539  -4.005  0.00  0.00    -0.278 OA
BRANCH  54  56
ATOM     56  CA  ASN A  1        3.808  -9.333  -2.547  0.00  0.00    +0.021 C 
BRANCH  56  57
ATOM     57  N   ASN A  1        4.646 -10.235  -3.424  0.00  0.00    +0.386 N 
ATOM     58  H1  ASN A  1        5.619  -9.991  -3.309  0.00  0.00    -0.089 HD
ATOM     59  H2  ASN A  1        4.499 -11.195  -3.146  0.00  0.00    -0.089 HD
ATOM     60  H3  ASN A  1        4.366 -10.112  -4.387  0.00  0.00    -0.089 HD
ENDBRANCH  56  57
BRANCH  56  61
ATOM     61  CB  ASN A  1        4.088  -9.523  -1.019  0.00  0.00    +0.088 C 
BRANCH  61  62
ATOM     62  CG  ASN A  1        5.479  -9.131  -0.478  0.00  0.00    +0.209 C 
ATOM     63  ND2 ASN A  1        5.614  -9.102   0.850  0.00  0.00    -0.329 N 
ATOM     64 HD21 ASN A  1        6.502  -8.857   1.264  0.00  0.00    +0.145 HD
ATOM     65 HD22 ASN A  1        4.834  -9.325   1.452  0.00  0.00    +0.145 HD
ATOM     66  OD1 ASN A  1        6.412  -8.863  -1.232  0.00  0.00    -0.276 OA
ENDBRANCH  61  62
ENDBRANCH  56  61
ENDBRANCH  54  56
ENDBRANCH  50  52
ENDBRANCH  45  50
ENDBRANCH  41  43
ENDBRANCH  38  39
BRANCH  38  67
ATOM     67  CB  VAL A  4        4.172   0.272  -1.902  0.00  0.00    +0.012 C 
ATOM     68  CG2 VAL A  4        3.537   1.604  -2.360  0.00  0.00    +0.009 C 
ATOM     69  CG1 VAL A  4        5.661   0.503  -1.581  0.00  0.00    +0.009 C 
ENDBRANCH  38  67
ENDBRANCH  36  38
ENDBRANCH   1  34
BRANCH   1  70
ATOM     70  CB  SER A  5       -0.985  -0.595   0.365  0.00  0.00    +0.187 C 
BRANCH  70  71
ATOM     71  OG  SER A  5       -0.923  -0.134   1.701  0.00  0.00    -0.393 OA
ATOM     72  H   SER A  5       -1.371  -0.769   2.264  0.00  0.00    +0.209 HD
ENDBRANCH  70  71
ENDBRANCH   1  70
TORSDOF 25
