REMARK  Name = DB12172
REMARK                            x       y       z     vdW  Elec       q    Type
REMARK                         _______ _______ _______ _____ _____    ______ ____
ROOT
ATOM      1  N   LIG    1        2.156   0.700   1.071  0.00  0.00    -0.311 N 
ATOM      2  C   LIG    1        2.549   2.026   1.177  0.00  0.00    +0.211 A 
ATOM      3  C   LIG    1        3.178   2.115   2.415  0.00  0.00    +0.163 A 
ATOM      4  N   LIG    1        3.204   0.961   3.053  0.00  0.00    -0.242 NA
ATOM      5  C   LIG    1        2.588   0.132   2.248  0.00  0.00    +0.201 A 
ENDROOT
BRANCH   2   6
ATOM      6  N   LIG    1        2.319   3.041   0.192  0.00  0.00    +0.025 N 
ATOM      7  O   LIG    1        2.389   4.203   0.578  0.00  0.00    -0.128 OA
BRANCH   6   8
ATOM      8  O   LIG    1        2.113   2.721  -0.972  0.00  0.00    -0.395 OA
ATOM      9  H   LIG    1        2.070   1.815  -1.208  0.00  0.00    +0.329 HD
ENDBRANCH   6   8
ENDBRANCH   2   6
BRANCH   1  10
ATOM     10  C   LIG    1        1.375  -0.002   0.048  0.00  0.00    +0.140 C 
BRANCH  10  11
ATOM     11  C   LIG    1       -0.134   0.021   0.386  0.00  0.00    +0.106 C 
BRANCH  11  12
ATOM     12  N   LIG    1       -0.720   1.361   0.292  0.00  0.00    -0.296 NA
ATOM     13  C   LIG    1       -1.005   1.751  -1.096  0.00  0.00    +0.112 C 
ATOM     14  C   LIG    1       -1.631   3.160  -1.158  0.00  0.00    +0.175 C 
ATOM     15  O   LIG    1       -2.798   3.208  -0.343  0.00  0.00    -0.377 OA
ATOM     16  C   LIG    1       -2.523   2.906   1.021  0.00  0.00    +0.175 C 
ATOM     17  C   LIG    1       -1.911   1.493   1.140  0.00  0.00    +0.112 C 
ENDBRANCH  11  12
ENDBRANCH  10  11
ENDBRANCH   1  10
TORSDOF 5
