REMARK  Name = DB12511
REMARK                            x       y       z     vdW  Elec       q    Type
REMARK                         _______ _______ _______ _____ _____    ______ ____
ROOT
ATOM      1  C   LIG    1       -2.383  -0.221  -0.783  0.00  0.00    +0.121 A 
ATOM      2  C   LIG    1       -1.582  -1.326  -1.113  0.00  0.00    +0.046 A 
ATOM      3  C   LIG    1       -0.208  -1.171  -1.275  0.00  0.00    +0.010 A 
ATOM      4  C   LIG    1        0.378   0.085  -1.110  0.00  0.00    -0.008 A 
ATOM      5  C   LIG    1       -0.414   1.187  -0.786  0.00  0.00    +0.010 A 
ATOM      6  C   LIG    1       -1.788   1.032  -0.626  0.00  0.00    +0.046 A 
ENDROOT
BRANCH   1   7
ATOM      7  O   LIG    1       -3.751  -0.278  -0.597  0.00  0.00    -0.486 OA
BRANCH   7   8
ATOM      8  C   LIG    1       -4.420  -1.531  -0.704  0.00  0.00    +0.288 C 
BRANCH   8  14
ATOM      9  C   LIG    1       -7.205  -1.577  -2.711  0.00  0.00    +0.088 C 
ATOM     10  C   LIG    1       -6.988  -1.351  -1.235  0.00  0.00    +0.129 A 
ATOM     11  O   LIG    1       -8.082  -1.104  -0.478  0.00  0.00    -0.440 OA
ATOM     12  C   LIG    1       -7.587  -0.943   0.776  0.00  0.00    +0.228 A 
ATOM     13  N   LIG    1       -6.281  -1.074   0.849  0.00  0.00    -0.210 NA
ATOM     14  C   LIG    1       -5.886  -1.325  -0.390  0.00  0.00    +0.120 A 
BRANCH  12  15
ATOM     15  C   LIG    1       -8.538  -0.647   1.892  0.00  0.00    +0.037 A 
ATOM     16  C   LIG    1       -9.909  -0.521   1.638  0.00  0.00    +0.013 A 
ATOM     17  C   LIG    1      -10.793  -0.246   2.679  0.00  0.00    +0.001 A 
ATOM     18  C   LIG    1      -10.307  -0.096   3.975  0.00  0.00    +0.000 A 
ATOM     19  C   LIG    1       -8.946  -0.220   4.241  0.00  0.00    +0.001 A 
ATOM     20  C   LIG    1       -8.062  -0.494   3.200  0.00  0.00    +0.013 A 
ENDBRANCH  12  15
ENDBRANCH   8  14
ENDBRANCH   7   8
ENDBRANCH   1   7
BRANCH   4  21
ATOM     21  C   LIG    1        1.885   0.256  -1.269  0.00  0.00    +0.298 C 
BRANCH  21  22
ATOM     22  O   LIG    1        2.504   0.643  -0.044  0.00  0.00    -0.389 OA
BRANCH  22  23
ATOM     23  N   LIG    1        2.464  -0.426   0.875  0.00  0.00    -0.089 NA
ATOM     24  C   LIG    1        3.000  -0.152   2.006  0.00  0.00    +0.088 C 
BRANCH  24  25
ATOM     25  C   LIG    1        3.049  -1.200   3.067  0.00  0.00    -0.001 A 
ATOM     26  C   LIG    1        2.810  -2.552   2.752  0.00  0.00    +0.010 A 
ATOM     27  C   LIG    1        2.841  -3.541   3.731  0.00  0.00    +0.001 A 
ATOM     28  C   LIG    1        3.105  -3.195   5.052  0.00  0.00    +0.000 A 
ATOM     29  C   LIG    1        3.332  -1.868   5.397  0.00  0.00    +0.001 A 
ATOM     30  C   LIG    1        3.300  -0.882   4.414  0.00  0.00    +0.010 A 
ENDBRANCH  24  25
BRANCH  24  31
ATOM     31  C   LIG    1        3.611   1.238   2.355  0.00  0.00    +0.070 C 
BRANCH  31  32
ATOM     32  C   LIG    1        5.139   1.259   2.682  0.00  0.00    +0.127 C 
BRANCH  32  33
ATOM     33  C   LIG    1        6.064   0.472   1.723  0.00  0.00    +0.305 C 
ATOM     34  O   LIG    1        5.912   0.633   0.490  0.00  0.00    -0.251 OA
BRANCH  33  35
ATOM     35  O   LIG    1        6.942  -0.253   2.243  0.00  0.00    -0.481 OA
ATOM     36  H   LIG    1        6.997  -0.326   3.175  0.00  0.00    +0.295 HD
ENDBRANCH  33  35
ENDBRANCH  32  33
ENDBRANCH  31  32
ENDBRANCH  24  31
ENDBRANCH  22  23
ENDBRANCH  21  22
ENDBRANCH   4  21
TORSDOF 12
