REMARK  Name = DB12016
REMARK                            x       y       z     vdW  Elec       q    Type
REMARK                         _______ _______ _______ _____ _____    ______ ____
ROOT
ATOM      1  N   LIG    1       -2.356   4.877   0.488  0.00  0.00    -0.263 NA
ATOM      2  C   LIG    1       -1.975   3.664   0.312  0.00  0.00    +0.168 C 
ATOM      3  S   LIG    1       -0.266   3.122   0.307  0.00  0.00    -0.049 S 
ATOM      4  C   LIG    1       -0.710   1.447   0.017  0.00  0.00    +0.078 C 
ATOM      5  C   LIG    1        0.088   0.363  -0.135  0.00  0.00    +0.028 C 
ATOM      6  C   LIG    1       -2.145   1.338  -0.087  0.00  0.00    +0.263 C 
ATOM      7  O   LIG    1       -2.760   0.287  -0.301  0.00  0.00    -0.269 OA
ATOM      8  N   LIG    1       -2.736   2.554   0.079  0.00  0.00    -0.214 N 
ENDROOT
BRANCH   5   9
ATOM      9  C   LIG    1        1.561   0.296  -0.031  0.00  0.00    -0.022 A 
ATOM     10  C   LIG    1        2.253  -0.572  -0.880  0.00  0.00    +0.031 A 
ATOM     11  C   LIG    1        3.644  -0.671  -0.824  0.00  0.00    +0.083 A 
ATOM     12 CL   LIG    1        4.447  -1.759  -1.902  0.00  0.00    -0.080 Cl
ATOM     13  C   LIG    1        4.376   0.097   0.091  0.00  0.00    +0.139 A 
ATOM     14  C   LIG    1        3.679   0.963   0.949  0.00  0.00    +0.048 A 
ATOM     15  C   LIG    1        2.289   1.059   0.888  0.00  0.00    +0.011 A 
BRANCH  13  16
ATOM     16  O   LIG    1        5.752  -0.051   0.094  0.00  0.00    -0.488 OA
BRANCH  16  17
ATOM     17  C   LIG    1        6.540   0.694   1.020  0.00  0.00    +0.262 C 
BRANCH  17  18
ATOM     18  C   LIG    1        8.029   0.343   0.824  0.00  0.00    +0.177 C 
BRANCH  18  19
ATOM     19  O   LIG    1        8.226  -1.008   1.200  0.00  0.00    -0.386 OA
ATOM     20  H   LIG    1        7.624  -1.554   0.688  0.00  0.00    +0.210 HD
ENDBRANCH  18  19
BRANCH  18  21
ATOM     21  C   LIG    1        8.976   1.221   1.669  0.00  0.00    +0.190 C 
BRANCH  21  22
ATOM     22  O   LIG    1        8.997   2.555   1.201  0.00  0.00    -0.392 OA
ATOM     23  H   LIG    1        9.606   3.060   1.745  0.00  0.00    +0.210 HD
ENDBRANCH  21  22
ENDBRANCH  18  21
ENDBRANCH  17  18
ENDBRANCH  16  17
ENDBRANCH  13  16
ENDBRANCH   5   9
BRANCH   8  24
ATOM     24  C   LIG    1       -4.148   2.648   0.014  0.00  0.00    +0.046 A 
ATOM     25  C   LIG    1       -4.813   2.945  -1.194  0.00  0.00    -0.029 A 
ATOM     26  C   LIG    1       -4.050   3.177  -2.493  0.00  0.00    +0.045 C 
ATOM     27  C   LIG    1       -6.210   3.026  -1.203  0.00  0.00    +0.005 A 
ATOM     28  C   LIG    1       -6.940   2.819  -0.033  0.00  0.00    +0.000 A 
ATOM     29  C   LIG    1       -6.281   2.529   1.160  0.00  0.00    +0.002 A 
ATOM     30  C   LIG    1       -4.891   2.445   1.185  0.00  0.00    +0.024 A 
ENDBRANCH   8  24
BRANCH   1  31
ATOM     31  C   LIG    1       -1.431   5.969   0.747  0.00  0.00    +0.144 C 
BRANCH  31  33
ATOM     32  C   LIG    1       -0.478   8.127  -0.251  0.00  0.00    +0.005 C 
ATOM     33  C   LIG    1       -1.375   6.902  -0.477  0.00  0.00    +0.020 C 
ENDBRANCH  31  33
ENDBRANCH   1  31
TORSDOF 10
