REMARK  Name = DB12073
REMARK                            x       y       z     vdW  Elec       q    Type
REMARK                         _______ _______ _______ _____ _____    ______ ____
ROOT
ATOM      1  C   LIG    1        1.616   0.112  -0.021  0.00  0.00    +0.133 C 
ENDROOT
BRANCH   1   2
ATOM      2  C   LIG    1        2.054   0.747   1.326  0.00  0.00    +0.023 A 
ATOM      3  C   LIG    1        1.740   0.123   2.548  0.00  0.00    +0.132 A 
ATOM      4  F   LIG    1        1.055  -1.043   2.577  0.00  0.00    -0.205 F 
ATOM      5  C   LIG    1        2.133   0.692   3.759  0.00  0.00    +0.077 A 
ATOM      6  C   LIG    1        2.848   1.886   3.775  0.00  0.00    +0.126 A 
ATOM      7  F   LIG    1        3.227   2.434   4.951  0.00  0.00    -0.205 F 
ATOM      8  C   LIG    1        3.172   2.516   2.576  0.00  0.00    +0.039 A 
ATOM      9  C   LIG    1        2.779   1.952   1.363  0.00  0.00    +0.012 A 
ENDBRANCH   1   2
BRANCH   1  11
ATOM     10  C   LIG    1       -0.654   1.420   0.090  0.00  0.00    +0.034 C 
ATOM     11  C   LIG    1        0.037   0.040  -0.117  0.00  0.00    +0.126 C 
BRANCH  11  12
ATOM     12  N   LIG    1       -0.494  -0.704  -1.309  0.00  0.00    -0.293 N 
ATOM     13  C   LIG    1       -0.857  -2.027  -1.097  0.00  0.00    +0.262 A 
ATOM     14  O   LIG    1       -0.759  -2.611  -0.015  0.00  0.00    -0.267 OA
ATOM     15  C   LIG    1       -1.385  -2.714  -2.346  0.00  0.00    +0.065 A 
ATOM     16  C   LIG    1       -1.794  -4.052  -2.315  0.00  0.00    +0.017 A 
ATOM     17  C   LIG    1       -2.267  -4.652  -3.483  0.00  0.00    +0.021 A 
ATOM     18  C   LIG    1       -2.331  -3.924  -4.674  0.00  0.00    +0.043 A 
ATOM     19 CL   LIG    1       -2.914  -4.678  -6.113  0.00  0.00    -0.083 Cl
ATOM     20  C   LIG    1       -1.923  -2.589  -4.703  0.00  0.00    +0.048 A 
ATOM     21  C   LIG    1       -1.450  -1.983  -3.539  0.00  0.00    +0.079 A 
ATOM     22  N   LIG    1       -1.051  -0.642  -3.598  0.00  0.00    -0.237 NA
ATOM     23  C   LIG    1       -0.611  -0.069  -2.539  0.00  0.00    +0.203 A 
ENDBRANCH  11  12
ENDBRANCH   1  11
BRANCH   1  24
ATOM     24  O   LIG    1        2.050   0.870  -1.147  0.00  0.00    -0.380 OA
ATOM     25  H   LIG    1        1.785   0.408  -1.945  0.00  0.00    +0.211 HD
ENDBRANCH   1  24
BRANCH   1  26
ATOM     26  C   LIG    1        2.293  -1.288  -0.225  0.00  0.00    +0.187 C 
BRANCH  26  27
ATOM     27  N   LIG    1        3.754  -1.262  -0.128  0.00  0.00    -0.249 N 
ATOM     28  N   LIG    1        4.382  -1.360   1.048  0.00  0.00    -0.158 NA
ATOM     29  C   LIG    1        5.641  -1.260   0.678  0.00  0.00    +0.244 A 
ATOM     30  N   LIG    1        5.889  -1.102  -0.614  0.00  0.00    -0.223 NA
ATOM     31  C   LIG    1        4.683  -1.102  -1.120  0.00  0.00    +0.219 A 
ENDBRANCH  26  27
ENDBRANCH   1  26
TORSDOF 6
