REMARK  Name = DB12220
REMARK                            x       y       z     vdW  Elec       q    Type
REMARK                         _______ _______ _______ _____ _____    ______ ____
ROOT
ATOM      1  C   LIG    1        1.996   0.656   1.176  0.00  0.00    -0.016 C 
ATOM      2  C   LIG    1        3.554   0.606   1.210  0.00  0.00    +0.051 C 
ATOM      3  C   LIG    1        4.122   1.172   2.526  0.00  0.00    -0.036 A 
ATOM      4  C   LIG    1        5.472   1.537   2.599  0.00  0.00    +0.008 A 
ATOM      5  C   LIG    1        6.046   1.970   3.790  0.00  0.00    +0.046 A 
ATOM      6  C   LIG    1        5.276   2.048   4.956  0.00  0.00    +0.120 A 
ATOM      7  C   LIG    1        3.930   1.691   4.888  0.00  0.00    +0.049 A 
ATOM      8  C   LIG    1        3.332   1.262   3.698  0.00  0.00    -0.040 A 
ATOM      9  C   LIG    1        1.836   0.945   3.679  0.00  0.00    +0.036 C 
ATOM     10  C   LIG    1        1.434   0.064   2.487  0.00  0.00    +0.007 C 
ENDROOT
BRANCH   2  11
ATOM     11  C   LIG    1        4.157  -0.770   0.872  0.00  0.00    -0.040 A 
ATOM     12  C   LIG    1        4.280  -1.766   1.850  0.00  0.00    +0.004 A 
ATOM     13  C   LIG    1        4.830  -3.003   1.528  0.00  0.00    +0.000 A 
ATOM     14  C   LIG    1        5.265  -3.247   0.228  0.00  0.00    +0.000 A 
ATOM     15  C   LIG    1        5.156  -2.264  -0.752  0.00  0.00    +0.000 A 
ATOM     16  C   LIG    1        4.606  -1.026  -0.430  0.00  0.00    +0.004 A 
ENDBRANCH   2  11
BRANCH   6  17
ATOM     17  O   LIG    1        5.753   2.461   6.185  0.00  0.00    -0.495 OA
ATOM     18  C   LIG    1        7.120   2.840   6.305  0.00  0.00    +0.277 C 
ENDBRANCH   6  17
BRANCH   1  19
ATOM     19  C   LIG    1        1.410   0.012  -0.114  0.00  0.00    -0.074 C 
BRANCH  19  21
ATOM     20  C   LIG    1       -0.707  -0.952  -1.175  0.00  0.00    -0.095 C 
ATOM     21  N   LIG    1       -0.138   0.053  -0.152  0.00  0.00    +0.385 N 
ATOM     22  H   LIG    1       -0.441  -0.253   0.763  0.00  0.00    -0.081 HD
BRANCH  21  23
ATOM     23  C   LIG    1       -0.737   1.474  -0.353  0.00  0.00    +0.043 C 
BRANCH  23  24
ATOM     24  C   LIG    1       -2.018   1.662   0.498  0.00  0.00    +0.288 C 
ATOM     25  O   LIG    1       -2.419   0.758   1.270  0.00  0.00    -0.253 OA
BRANCH  24  26
ATOM     26  O   LIG    1       -2.591   2.766   0.364  0.00  0.00    -0.482 OA
ATOM     27  H   LIG    1       -2.244   3.404  -0.228  0.00  0.00    +0.295 HD
ENDBRANCH  24  26
ENDBRANCH  23  24
ENDBRANCH  21  23
ENDBRANCH  19  21
ENDBRANCH   1  19
TORSDOF 7
