REMARK  Name = DB12242
REMARK                            x       y       z     vdW  Elec       q    Type
REMARK                         _______ _______ _______ _____ _____    ______ ____
ROOT
ATOM      1  S   LIG    1       -0.860  -0.794   0.870  0.00  0.00    -0.082 S 
ATOM      2  C   LIG    1       -0.121   0.748   0.498  0.00  0.00    +0.096 A 
ATOM      3  C   LIG    1       -1.058   1.589  -0.127  0.00  0.00    +0.055 A 
ATOM      4  C   LIG    1       -2.330   1.001  -0.238  0.00  0.00    +0.040 A 
ATOM      5  C   LIG    1       -2.407  -0.308   0.230  0.00  0.00    +0.022 A 
ENDROOT
BRANCH   3   6
ATOM      6  N   LIG    1       -0.811   2.890  -0.527  0.00  0.00    -0.268 N 
ATOM      7  H   LIG    1       -0.536   3.554   0.181  0.00  0.00    +0.156 HD
ATOM      8  C   LIG    1       -0.691   3.233  -1.823  0.00  0.00    +0.301 C 
ATOM      9  N   LIG    1       -0.288   4.495  -1.971  0.00  0.00    -0.313 N 
ATOM     10  H   LIG    1       -0.164   4.879  -2.897  0.00  0.00    +0.146 HD
ATOM     11  H   LIG    1       -0.093   5.069  -1.165  0.00  0.00    +0.146 HD
ATOM     12  O   LIG    1       -0.914   2.495  -2.783  0.00  0.00    -0.253 OA
ENDBRANCH   3   6
BRANCH   5  13
ATOM     13  C   LIG    1       -3.586  -1.233   0.257  0.00  0.00    -0.009 A 
ATOM     14  C   LIG    1       -4.880  -0.698   0.201  0.00  0.00    +0.009 A 
ATOM     15  C   LIG    1       -5.999  -1.531   0.217  0.00  0.00    +0.003 A 
ATOM     16  C   LIG    1       -5.838  -2.914   0.286  0.00  0.00    +0.038 A 
ATOM     17  C   LIG    1       -4.558  -3.462   0.338  0.00  0.00    +0.124 A 
ATOM     18  F   LIG    1       -4.399  -4.804   0.399  0.00  0.00    -0.205 F 
ATOM     19  C   LIG    1       -3.440  -2.627   0.324  0.00  0.00    +0.047 A 
ENDBRANCH   5  13
BRANCH   2  20
ATOM     20  C   LIG    1        1.274   1.023   0.822  0.00  0.00    +0.253 C 
ATOM     21  O   LIG    1        1.784   2.115   0.570  0.00  0.00    -0.270 OA
ATOM     22  N   LIG    1        1.955   0.017   1.411  0.00  0.00    -0.310 N 
ATOM     23  H   LIG    1        1.469  -0.853   1.576  0.00  0.00    +0.149 HD
BRANCH  22  24
ATOM     24  C   LIG    1        3.359   0.062   1.824  0.00  0.00    +0.056 C 
ATOM     25  C   LIG    1        3.573   0.748   3.196  0.00  0.00    +0.018 C 
ATOM     26  C   LIG    1        5.053   0.752   3.627  0.00  0.00    -0.017 C 
ATOM     27  C   LIG    1        5.686  -0.651   3.592  0.00  0.00    -0.082 C 
ATOM     28  N   LIG    1        5.511  -1.251   2.186  0.00  0.00    +0.380 N 
ATOM     29  H   LIG    1        6.015  -0.686   1.517  0.00  0.00    -0.086 HD
ATOM     30  H   LIG    1        5.919  -2.175   2.161  0.00  0.00    -0.086 HD
ATOM     31  C   LIG    1        4.030  -1.333   1.768  0.00  0.00    -0.060 C 
ENDBRANCH  22  24
ENDBRANCH   2  20
TORSDOF 4
