REMARK  Name = DB12393
REMARK                            x       y       z     vdW  Elec       q    Type
REMARK                         _______ _______ _______ _____ _____    ______ ____
ROOT
ATOM      1  C   LIG    1        2.073   0.066   3.557  0.00  0.00    +0.044 A 
ATOM      2  C   LIG    1        3.479  -0.083   3.567  0.00  0.00    +0.078 A 
ATOM      3  C   LIG    1        4.165  -0.152   2.347  0.00  0.00    +0.042 A 
ATOM      4  C   LIG    1        3.478  -0.084   1.138  0.00  0.00    +0.067 A 
ATOM      5  N   LIG    1        4.174  -0.147  -0.069  0.00  0.00    -0.316 N 
ATOM      6  H   LIG    1        5.179  -0.241  -0.043  0.00  0.00    +0.169 HD
ATOM      7  C   LIG    1        3.639  -0.093  -1.310  0.00  0.00    +0.314 A 
ATOM      8  O   LIG    1        4.301  -0.158  -2.347  0.00  0.00    -0.262 OA
ATOM      9  C   LIG    1        2.132   0.050  -1.385  0.00  0.00    +0.317 A 
ATOM     10  O   LIG    1        1.631   0.107  -2.513  0.00  0.00    -0.262 OA
ATOM     11  N   LIG    1        1.458   0.107  -0.184  0.00  0.00    -0.291 N 
ATOM     12  C   LIG    1        2.086   0.048   1.102  0.00  0.00    +0.071 A 
ATOM     13  C   LIG    1        1.400   0.108   2.325  0.00  0.00    +0.051 A 
ENDROOT
BRANCH   1  15
ATOM     14  C   LIG    1        0.954  -1.232   5.295  0.00  0.00    +0.133 C 
ATOM     15  N   LIG    1        1.342   0.075   4.740  0.00  0.00    -0.325 N 
ATOM     16  C   LIG    1        0.200   0.994   4.894  0.00  0.00    +0.133 C 
ATOM     17  C   LIG    1       -0.258   1.093   6.366  0.00  0.00    +0.178 C 
ATOM     18  O   LIG    1       -0.599  -0.200   6.852  0.00  0.00    -0.377 OA
ATOM     19  C   LIG    1        0.488  -1.113   6.762  0.00  0.00    +0.178 C 
ENDBRANCH   1  15
BRANCH   2  20
ATOM     20  C   LIG    1        4.290  -0.115   4.875  0.00  0.00    +0.419 C 
ATOM     21  F   LIG    1        5.593   0.086   4.668  0.00  0.00    -0.166 F 
ATOM     22  F   LIG    1        4.152  -1.305   5.459  0.00  0.00    -0.166 F 
ATOM     23  F   LIG    1        3.879   0.829   5.722  0.00  0.00    -0.166 F 
ENDBRANCH   2  20
BRANCH  11  24
ATOM     24  C   LIG    1       -0.020   0.246  -0.251  0.00  0.00    +0.252 C 
BRANCH  24  25
ATOM     25  P   LIG    1       -0.507   2.059  -0.091  0.00  0.00    +0.347 P 
ATOM     26  O   LIG    1       -0.275   2.529   1.327  0.00  0.00    -0.257 OA
BRANCH  25  27
ATOM     27  O   LIG    1       -2.192   1.818  -0.286  0.00  0.00    -0.323 OA
ATOM     28  H   LIG    1       -2.796   1.607   0.450  0.00  0.00    +0.220 HD
ENDBRANCH  25  27
BRANCH  25  29
ATOM     29  O   LIG    1       -0.000   2.817  -1.297  0.00  0.00    -0.323 OA
ATOM     30  H   LIG    1       -0.256   2.346  -2.106  0.00  0.00    +0.220 HD
ENDBRANCH  25  29
ENDBRANCH  24  25
ENDBRANCH  11  24
TORSDOF 6
