REMARK  Name = DB12911
REMARK                            x       y       z     vdW  Elec       q    Type
REMARK                         _______ _______ _______ _____ _____    ______ ____
ROOT
ATOM      1  O   LIG    1        4.034  -0.735  -1.008  0.00  0.00    -0.459 OA
ENDROOT
BRANCH   1   2
ATOM      2  C   LIG    1        5.363  -0.526  -1.176  0.00  0.00    +0.341 C 
ATOM      3  O   LIG    1        6.211  -0.788  -0.318  0.00  0.00    -0.245 OA
BRANCH   2   4
ATOM      4  C   LIG    1        5.700   0.055  -2.516  0.00  0.00    +0.077 A 
ATOM      5  C   LIG    1        7.037   0.318  -2.853  0.00  0.00    +0.125 A 
ATOM      6  N   LIG    1        7.420   0.843  -4.045  0.00  0.00    -0.262 NA
ATOM      7  C   LIG    1        6.453   1.126  -4.953  0.00  0.00    +0.111 A 
ATOM      8  C   LIG    1        5.098   0.901  -4.710  0.00  0.00    +0.020 A 
ATOM      9  C   LIG    1        4.722   0.360  -3.479  0.00  0.00    +0.018 A 
ENDBRANCH   2   4
ENDBRANCH   1   2
BRANCH   1  10
ATOM     10  C   LIG    1        3.521  -1.275   0.204  0.00  0.00    +0.260 C 
BRANCH  10  11
ATOM     11  C   LIG    1        1.994  -1.389   0.138  0.00  0.00    +0.201 C 
BRANCH  11  12
ATOM     12  O   LIG    1        1.430  -0.085   0.092  0.00  0.00    -0.376 OA
BRANCH  12  13
ATOM     13  C   LIG    1        0.012  -0.077   0.003  0.00  0.00    +0.160 C 
BRANCH  13  14
ATOM     14  C   LIG    1       -0.470   1.381  -0.031  0.00  0.00    +0.028 C 
BRANCH  14  16
ATOM     15  C   LIG    1       -2.480   2.963  -0.149  0.00  0.00    +0.004 C 
ATOM     16  C   LIG    1       -2.000   1.506  -0.135  0.00  0.00    -0.001 C 
ENDBRANCH  14  16
ENDBRANCH  13  14
ENDBRANCH  12  13
ENDBRANCH  11  12
ENDBRANCH  10  11
ENDBRANCH   1  10
TORSDOF 8
