REMARK  Name = DB12350
REMARK                            x       y       z     vdW  Elec       q    Type
REMARK                         _______ _______ _______ _____ _____    ______ ____
ROOT
ATOM      1  C   LIG    1       -0.181   0.010   0.198  0.00  0.00    +0.012 C 
ATOM      2  C   LIG    1        1.376   0.012   0.086  0.00  0.00    -0.026 C 
ATOM      3  C   LIG    1        1.856   0.807  -1.192  0.00  0.00    +0.001 C 
ATOM      4  C   LIG    1        1.474   0.118  -2.533  0.00  0.00    +0.005 C 
ATOM      5  C   LIG    1        1.004   1.075  -3.650  0.00  0.00    +0.013 C 
ATOM      6  C   LIG    1        1.800   2.407  -3.831  0.00  0.00    +0.030 C 
ATOM      7  C   LIG    1        0.882   3.317  -4.718  0.00  0.00    +0.017 C 
ATOM      8  C   LIG    1        3.218   2.210  -4.517  0.00  0.00    +0.102 C 
ATOM      9  C   LIG    1        4.069   3.318  -3.876  0.00  0.00    +0.043 C 
ATOM     10  C   LIG    1        3.660   3.279  -2.409  0.00  0.00    +0.039 C 
ATOM     11  C   LIG    1        2.122   3.091  -2.422  0.00  0.00    +0.078 C 
ATOM     12  C   LIG    1        1.538   2.338  -1.167  0.00  0.00    +0.025 C 
ATOM     13  C   LIG    1        2.024   2.966   0.180  0.00  0.00    +0.007 C 
ATOM     14  C   LIG    1        1.575   2.191   1.433  0.00  0.00    +0.004 C 
ATOM     15  C   LIG    1        1.964   0.692   1.375  0.00  0.00    -0.002 C 
ATOM     16  C   LIG    1        3.502   0.476   1.508  0.00  0.00    +0.035 C 
ATOM     17  C   LIG    1        3.919  -1.009   1.468  0.00  0.00    +0.115 C 
ATOM     18  C   LIG    1        3.352  -1.685   0.201  0.00  0.00    +0.032 C 
ATOM     19  C   LIG    1        1.826  -1.486   0.084  0.00  0.00    +0.010 C 
ENDROOT
BRANCH   8  20
ATOM     20  C   LIG    1        3.231   2.250  -6.052  0.00  0.00    +0.022 A 
ATOM     21  C   LIG    1        2.600   1.372  -6.936  0.00  0.00    +0.201 A 
ATOM     22  O   LIG    1        2.811   1.711  -8.232  0.00  0.00    -0.471 OA
ATOM     23  C   LIG    1        3.586   2.819  -8.213  0.00  0.00    +0.195 A 
ATOM     24  C   LIG    1        3.860   3.174  -6.906  0.00  0.00    +0.047 A 
ENDBRANCH   8  20
BRANCH   8  25
ATOM     25  O   LIG    1        3.843   0.967  -4.226  0.00  0.00    -0.383 OA
ATOM     26  H   LIG    1        3.292   0.262  -4.573  0.00  0.00    +0.211 HD
ENDBRANCH   8  25
BRANCH  11  27
ATOM     27  O   LIG    1        1.545   4.391  -2.313  0.00  0.00    -0.388 OA
ATOM     28  H   LIG    1        0.590   4.303  -2.348  0.00  0.00    +0.210 HD
ENDBRANCH  11  27
BRANCH  17  29
ATOM     29  O   LIG    1        3.482  -1.678   2.636  0.00  0.00    -0.392 OA
ATOM     30  H   LIG    1        4.253  -1.940   3.145  0.00  0.00    +0.210 HD
ENDBRANCH  17  29
TORSDOF 4
