REMARK  Name = DB12690
REMARK                            x       y       z     vdW  Elec       q    Type
REMARK                         _______ _______ _______ _____ _____    ______ ____
ROOT
ATOM      1  C   LIG    1       -3.370  -1.181   0.095  0.00  0.00    +0.107 C 
ATOM      2  N   LIG    1       -2.128  -0.425   0.045  0.00  0.00    -0.278 NA
ATOM      3  C   LIG    1       -1.996   0.952   0.073  0.00  0.00    +0.109 C 
ATOM      4  N   LIG    1       -0.643   1.216   0.034  0.00  0.00    -0.283 NA
ATOM      5  H   LIG    1       -0.244   2.144   0.035  0.00  0.00    +0.125 HD
ATOM      6  C   LIG    1        0.099   0.044  -0.002  0.00  0.00    +0.087 C 
ATOM      7  C   LIG    1       -0.854  -0.974   0.012  0.00  0.00    +0.104 C 
ENDROOT
BRANCH   6   8
ATOM      8  C   LIG    1        1.592  -0.003  -0.042  0.00  0.00    -0.023 A 
ATOM      9  C   LIG    1        2.361   1.169  -0.040  0.00  0.00    +0.020 A 
ATOM     10  C   LIG    1        3.761   1.117  -0.077  0.00  0.00    +0.090 A 
ATOM     11  C   LIG    1        4.393  -0.133  -0.116  0.00  0.00    +0.135 A 
ATOM     12  F   LIG    1        5.744  -0.219  -0.152  0.00  0.00    -0.205 F 
ATOM     13  C   LIG    1        3.638  -1.304  -0.118  0.00  0.00    +0.039 A 
ATOM     14  C   LIG    1        2.246  -1.239  -0.081  0.00  0.00    +0.008 A 
BRANCH  10  15
ATOM     15  C   LIG    1        4.599   2.396  -0.077  0.00  0.00    +0.420 C 
ATOM     16  F   LIG    1        5.345   2.445  -1.180  0.00  0.00    -0.166 F 
ATOM     17  F   LIG    1        5.404   2.404   0.986  0.00  0.00    -0.166 F 
ATOM     18  F   LIG    1        3.849   3.500  -0.036  0.00  0.00    -0.166 F 
ENDBRANCH  10  15
ENDBRANCH   6   8
BRANCH   3  19
ATOM     19  C   LIG    1       -3.116   1.983   0.116  0.00  0.00    +0.030 C 
ATOM     20  C   LIG    1       -2.680   3.401   0.525  0.00  0.00    +0.026 C 
ATOM     21  C   LIG    1       -3.872   4.382   0.560  0.00  0.00    +0.107 C 
ATOM     22  N   LIG    1       -4.601   4.478  -0.720  0.00  0.00    -0.315 N 
ATOM     23  C   LIG    1       -5.052   3.123  -1.113  0.00  0.00    +0.107 C 
ATOM     24  C   LIG    1       -3.921   2.074  -1.191  0.00  0.00    +0.026 C 
BRANCH  22  25
ATOM     25  C   LIG    1       -5.346   5.619  -1.053  0.00  0.00    +0.135 A 
ATOM     26  N   LIG    1       -6.470   5.442  -1.811  0.00  0.00    -0.220 NA
ATOM     27  C   LIG    1       -7.207   6.532  -2.140  0.00  0.00    +0.225 A 
ATOM     28  N   LIG    1       -6.960   7.828  -1.821  0.00  0.00    -0.216 NA
ATOM     29  C   LIG    1       -5.835   7.980  -1.118  0.00  0.00    +0.161 A 
ATOM     30  N   LIG    1       -5.284   9.159  -0.665  0.00  0.00    -0.260 N 
ATOM     31  H   LIG    1       -5.641  10.096  -0.780  0.00  0.00    +0.191 HD
ATOM     32  N   LIG    1       -4.123   8.943  -0.021  0.00  0.00    -0.180 NA
ATOM     33  C   LIG    1       -3.905   7.651  -0.039  0.00  0.00    +0.147 A 
ATOM     34  C   LIG    1       -4.964   6.942  -0.698  0.00  0.00    +0.078 A 
ENDBRANCH  22  25
ENDBRANCH   3  19
TORSDOF 4
