REMARK  Name = DB12167
REMARK                            x       y       z     vdW  Elec       q    Type
REMARK                         _______ _______ _______ _____ _____    ______ ____
ROOT
ATOM      1  N   LIG    1        1.478  -0.023   0.003  0.00  0.00    -0.289 N 
ATOM      2  C   LIG    1        2.235   0.008   1.135  0.00  0.00    +0.330 A 
ATOM      3  O   LIG    1        1.843   0.033   2.305  0.00  0.00    -0.246 OA
ATOM      4  N   LIG    1        3.517  -0.011   0.694  0.00  0.00    -0.294 N 
ATOM      5  C   LIG    1        4.663  -0.013   1.600  0.00  0.00    +0.154 C 
ATOM      6  C   LIG    1        3.567  -0.011  -0.680  0.00  0.00    +0.088 A 
ATOM      7  C   LIG    1        4.638  -0.010  -1.565  0.00  0.00    +0.139 A 
ATOM      8  N   LIG    1        4.461   0.004  -2.909  0.00  0.00    -0.253 NA
ATOM      9  C   LIG    1        3.186   0.024  -3.401  0.00  0.00    +0.073 A 
ATOM     10  C   LIG    1        3.014   0.052  -4.803  0.00  0.00    +0.029 A 
ATOM     11  C   LIG    1        1.736   0.086  -5.352  0.00  0.00    +0.010 A 
ATOM     12  C   LIG    1        0.595   0.092  -4.546  0.00  0.00    -0.016 A 
ATOM     13  C   LIG    1        0.750   0.055  -3.156  0.00  0.00    +0.020 A 
ATOM     14  C   LIG    1        2.033   0.023  -2.549  0.00  0.00    +0.027 A 
ATOM     15  C   LIG    1        2.277  -0.002  -1.138  0.00  0.00    +0.081 A 
ENDROOT
BRANCH  12  16
ATOM     16  C   LIG    1       -0.766   0.143  -5.151  0.00  0.00    +0.001 A 
ATOM     17  C   LIG    1       -1.786   0.920  -4.587  0.00  0.00    +0.119 A 
ATOM     18  N   LIG    1       -3.040   0.998  -5.096  0.00  0.00    -0.262 NA
ATOM     19  C   LIG    1       -3.313   0.281  -6.213  0.00  0.00    +0.117 A 
ATOM     20  C   LIG    1       -2.372  -0.529  -6.864  0.00  0.00    +0.002 A 
ATOM     21  C   LIG    1       -1.084  -0.586  -6.306  0.00  0.00    +0.018 A 
BRANCH  20  22
ATOM     22  C   LIG    1       -2.764  -1.314  -8.131  0.00  0.00    +0.087 C 
ATOM     23  C   LIG    1       -3.224  -0.357  -9.253  0.00  0.00    +0.046 C 
ATOM     24  C   LIG    1       -3.849  -2.364  -7.808  0.00  0.00    +0.046 C 
BRANCH  22  25
ATOM     25  O   LIG    1       -1.684  -2.047  -8.687  0.00  0.00    -0.384 OA
ATOM     26  H   LIG    1       -1.998  -2.502  -9.472  0.00  0.00    +0.211 HD
ENDBRANCH  22  25
ENDBRANCH  20  22
ENDBRANCH  12  16
BRANCH   1  27
ATOM     27  C   LIG    1        0.012  -0.047   0.099  0.00  0.00    +0.158 C 
BRANCH  27  29
ATOM     28  C   LIG    1       -2.184   1.240   0.108  0.00  0.00    +0.040 C 
ATOM     29  C   LIG    1       -0.647   1.351   0.107  0.00  0.00    +0.135 C 
BRANCH  29  30
ATOM     30  O   LIG    1       -0.183   2.098  -1.017  0.00  0.00    -0.378 OA
ATOM     31  C   LIG    1       -0.418   3.499  -0.970  0.00  0.00    +0.194 C 
ENDBRANCH  29  30
ENDBRANCH  27  29
ENDBRANCH   1  27
TORSDOF 6
