REMARK  Name = DB12059
REMARK                            x       y       z     vdW  Elec       q    Type
REMARK                         _______ _______ _______ _____ _____    ______ ____
ROOT
ATOM      1  N   LIG    1        1.963  -0.920  -0.894  0.00  0.00    -0.314 N 
ATOM      2  C   LIG    1        1.693  -2.231  -1.243  0.00  0.00    +0.272 A 
ATOM      3  O   LIG    1        1.031  -2.997  -0.536  0.00  0.00    -0.266 OA
ATOM      4  C   LIG    1        2.252  -2.674  -2.532  0.00  0.00    +0.126 A 
ATOM      5 CL   LIG    1        1.896  -4.346  -3.016  0.00  0.00    -0.076 Cl
ATOM      6  C   LIG    1        3.009  -1.868  -3.333  0.00  0.00    +0.055 A 
ATOM      7  C   LIG    1        3.280  -0.512  -2.873  0.00  0.00    +0.042 A 
ATOM      8  C   LIG    1        2.750  -0.130  -1.699  0.00  0.00    +0.091 A 
ENDROOT
BRANCH   6   9
ATOM      9  N   LIG    1        3.531  -2.314  -4.530  0.00  0.00    -0.329 N 
ATOM     10  C   LIG    1        2.768  -2.048  -5.758  0.00  0.00    +0.106 C 
ATOM     11  C   LIG    1        3.182  -2.982  -6.912  0.00  0.00    +0.027 C 
ATOM     12  C   LIG    1        4.700  -2.962  -7.172  0.00  0.00    +0.022 C 
ATOM     13  C   LIG    1        5.394  -3.333  -5.847  0.00  0.00    +0.027 C 
ATOM     14  C   LIG    1        4.992  -2.399  -4.688  0.00  0.00    +0.106 C 
BRANCH  12  15
ATOM     15  C   LIG    1        5.094  -3.910  -8.310  0.00  0.00    -0.044 A 
ATOM     16  C   LIG    1        5.714  -3.397  -9.455  0.00  0.00    +0.004 A 
ATOM     17  C   LIG    1        6.077  -4.246 -10.496  0.00  0.00    +0.000 A 
ATOM     18  C   LIG    1        5.822  -5.612 -10.395  0.00  0.00    +0.000 A 
ATOM     19  C   LIG    1        5.204  -6.135  -9.262  0.00  0.00    +0.000 A 
ATOM     20  C   LIG    1        4.840  -5.285  -8.220  0.00  0.00    +0.004 A 
ENDBRANCH  12  15
ENDBRANCH   6   9
BRANCH   1  21
ATOM     21  C   LIG    1        1.434  -0.431   0.393  0.00  0.00    +0.125 C 
BRANCH  21  22
ATOM     22  C   LIG    1       -0.062  -0.046   0.365  0.00  0.00    +0.021 C 
BRANCH  22  24
ATOM     23  C   LIG    1       -1.879   1.502  -0.565  0.00  0.00    +0.004 C 
ATOM     24  C   LIG    1       -0.406   1.079  -0.629  0.00  0.00    -0.002 C 
ENDBRANCH  22  24
ENDBRANCH  21  22
ENDBRANCH   1  21
TORSDOF 5
