REMARK  Name = DB12022
REMARK                            x       y       z     vdW  Elec       q    Type
REMARK                         _______ _______ _______ _____ _____    ______ ____
ROOT
ATOM      1  N   LIG    1        0.746   0.845   0.771  0.00  0.00    -0.168 NA
ENDROOT
BRANCH   1   2
ATOM      2  S   LIG    1       -0.496   1.977   0.191  0.00  0.00    +0.063 S 
ATOM      3  O   LIG    1        0.048   3.335   0.315  0.00  0.00    -0.153 OA
ATOM      4  O   LIG    1       -1.781   1.633   0.811  0.00  0.00    -0.153 OA
BRANCH   2   5
ATOM      5  C   LIG    1       -0.657   1.641  -1.560  0.00  0.00    +0.123 A 
ATOM      6  C   LIG    1       -1.570   0.688  -2.022  0.00  0.00    +0.139 A 
ATOM      7  N   LIG    1       -1.697   0.362  -3.334  0.00  0.00    -0.261 NA
ATOM      8  C   LIG    1       -0.893   0.998  -4.224  0.00  0.00    +0.111 A 
ATOM      9  C   LIG    1        0.038   1.968  -3.849  0.00  0.00    +0.022 A 
ATOM     10  C   LIG    1        0.154   2.293  -2.496  0.00  0.00    +0.031 A 
ENDBRANCH   2   5
ENDBRANCH   1   2
BRANCH   1  11
ATOM     11  C   LIG    1        0.434  -0.127   1.856  0.00  0.00    +0.145 C 
BRANCH  11  15
ATOM     12  C   LIG    1        0.702  -4.245   0.544  0.00  0.00    -0.042 A 
ATOM     13  C   LIG    1       -0.191  -3.354  -0.070  0.00  0.00    +0.004 A 
ATOM     14  C   LIG    1       -0.294  -2.036   0.360  0.00  0.00    +0.005 A 
ATOM     15  C   LIG    1        0.508  -1.579   1.406  0.00  0.00    -0.032 A 
ATOM     16  C   LIG    1        1.387  -2.455   2.039  0.00  0.00    +0.005 A 
ATOM     17  C   LIG    1        1.485  -3.776   1.612  0.00  0.00    +0.004 A 
BRANCH  12  19
ATOM     18  C   LIG    1       -0.601  -6.375   0.077  0.00  0.00    +0.015 C 
ATOM     19  C   LIG    1        0.796  -5.704   0.029  0.00  0.00    -0.013 C 
ATOM     20  C   LIG    1        1.309  -5.699  -1.431  0.00  0.00    +0.015 C 
ATOM     21  C   LIG    1        1.761  -6.590   0.861  0.00  0.00    +0.015 C 
ENDBRANCH  12  19
ENDBRANCH  11  15
ENDBRANCH   1  11
BRANCH   1  22
ATOM     22  C   LIG    1        2.153   1.005   0.307  0.00  0.00    +0.145 C 
BRANCH  22  23
ATOM     23  C   LIG    1        2.714  -0.204  -0.435  0.00  0.00    -0.028 A 
ATOM     24  C   LIG    1        2.074  -0.713  -1.569  0.00  0.00    +0.050 A 
ATOM     25  C   LIG    1        2.585  -1.813  -2.259  0.00  0.00    +0.122 A 
ATOM     26  C   LIG    1        3.769  -2.411  -1.796  0.00  0.00    +0.045 A 
ATOM     27  C   LIG    1        4.418  -1.906  -0.669  0.00  0.00    +0.004 A 
ATOM     28  C   LIG    1        3.896  -0.803   0.006  0.00  0.00    +0.005 A 
BRANCH  25  29
ATOM     29  O   LIG    1        1.869  -2.237  -3.360  0.00  0.00    -0.481 OA
BRANCH  29  30
ATOM     30  C   LIG    1        2.401  -3.276  -4.190  0.00  0.00    +0.349 C 
BRANCH  30  31
ATOM     31  C   LIG    1        1.432  -3.568  -5.358  0.00  0.00    +0.343 C 
ATOM     32  O   LIG    1        0.368  -2.914  -5.469  0.00  0.00    -0.247 OA
BRANCH  31  33
ATOM     33  O   LIG    1        1.784  -4.473  -6.148  0.00  0.00    -0.478 OA
ATOM     34  H   LIG    1        2.592  -4.927  -6.011  0.00  0.00    +0.295 HD
ENDBRANCH  31  33
ENDBRANCH  30  31
ENDBRANCH  29  30
ENDBRANCH  25  29
ENDBRANCH  22  23
ENDBRANCH   1  22
TORSDOF 11
