REMARK  Name = DB12237
REMARK                            x       y       z     vdW  Elec       q    Type
REMARK                         _______ _______ _______ _____ _____    ______ ____
ROOT
ATOM      1  C   UNK    1        0.316   0.180   0.006  0.00  0.00    +0.068 C 
ENDROOT
BRANCH   1   2
ATOM      2  C   UNK    1       -0.645   1.378   0.118  0.00  0.00    +0.005 C 
BRANCH   2   3
ATOM      3  C   UNK    1       -2.121   1.042  -0.216  0.00  0.00    +0.036 C 
BRANCH   3   4
ATOM      4  N   UNK    1       -2.239   0.684  -1.709  0.00  0.00    +0.387 N 
ATOM      5  H   UNK    1       -1.956   1.469  -2.278  0.00  0.00    -0.089 HD
ATOM      6  H   UNK    1       -1.642  -0.102  -1.922  0.00  0.00    -0.089 HD
ATOM      7  H   UNK    1       -3.192   0.435  -1.932  0.00  0.00    -0.089 HD
ENDBRANCH   3   4
BRANCH   3   8
ATOM      8  C   UNK    1       -3.069   2.232   0.094  0.00  0.00    +0.290 C 
ATOM      9  O   UNK    1       -3.337   2.414   1.302  0.00  0.00    -0.253 OA
BRANCH   8  10
ATOM     10  O   UNK    1       -3.502   2.958  -0.833  0.00  0.00    -0.482 OA
ATOM     11  H   UNK    1       -3.267   2.774  -1.721  0.00  0.00    +0.295 HD
ENDBRANCH   8  10
ENDBRANCH   3   8
ENDBRANCH   2   3
ENDBRANCH   1   2
BRANCH   1  12
ATOM     12  S   UNK    1        2.022   0.564   0.496  0.00  0.00    -0.157 S 
BRANCH  12  13
ATOM     13  C   UNK    1        2.775  -1.087   0.486  0.00  0.00    +0.112 C 
BRANCH  13  14
ATOM     14  C   UNK    1        3.049  -1.653  -0.917  0.00  0.00    +0.233 C 
BRANCH  14  15
ATOM     15  N   UNK    1        3.691  -2.977  -0.888  0.00  0.00    -0.240 N 
ATOM     16  H   UNK    1        3.711  -3.446   0.006  0.00  0.00    +0.291 HD
BRANCH  15  17
ATOM     17  C   UNK    1        4.245  -3.640  -1.915  0.00  0.00    +0.233 C 
ATOM     18  N   UNK    1        4.284  -3.163  -3.161  0.00  0.00    -0.293 N 
ATOM     19  H   UNK    1        3.898  -2.252  -3.365  0.00  0.00    +0.301 HD
ATOM     20  H   UNK    1        4.708  -3.710  -3.896  0.00  0.00    +0.301 HD
ATOM     21  C   UNK    1        4.840  -4.998  -1.664  0.00  0.00    +0.139 C 
ENDBRANCH  15  17
ENDBRANCH  14  15
ENDBRANCH  13  14
ENDBRANCH  12  13
ENDBRANCH   1  12
TORSDOF 10
