REMARK  Name = DB12618
REMARK                            x       y       z     vdW  Elec       q    Type
REMARK                         _______ _______ _______ _____ _____    ______ ____
ROOT
ATOM      1  C   LIG    1        1.473  -0.005   0.000  0.00  0.00    +0.021 A 
ATOM      2  C   LIG    1        2.195  -1.212   0.000  0.00  0.00    +0.060 A 
ATOM      3  C   LIG    1        3.602  -1.227   0.000  0.00  0.00    +0.162 A 
ATOM      4  C   LIG    1        4.287  -0.006   0.000  0.00  0.00    +0.158 A 
ATOM      5  C   LIG    1        3.587   1.198   0.000  0.00  0.00    +0.050 A 
ATOM      6  C   LIG    1        2.195   1.197   0.000  0.00  0.00    +0.015 A 
ENDROOT
BRANCH   1   8
ATOM      7  O   LIG    1       -0.656   1.118   0.000  0.00  0.00    -0.292 OA
ATOM      8  C   LIG    1       -0.031   0.056   0.000  0.00  0.00    +0.160 C 
ATOM      9  C   LIG    1       -0.861  -1.233   0.000  0.00  0.00    +0.091 C 
ENDBRANCH   1   8
BRANCH   3  10
ATOM     10  O   LIG    1        4.363  -2.384   0.000  0.00  0.00    -0.491 OA
ATOM     11  C   LIG    1        3.717  -3.652   0.000  0.00  0.00    +0.277 C 
ENDBRANCH   3  10
BRANCH   4  12
ATOM     12  O   LIG    1        5.659   0.028   0.000  0.00  0.00    -0.503 OA
ATOM     13  H   LIG    1        6.011   0.921   0.000  0.00  0.00    +0.292 HD
ENDBRANCH   4  12
TORSDOF 3
