REMARK  Name = DB12127
REMARK                            x       y       z     vdW  Elec       q    Type
REMARK                         _______ _______ _______ _____ _____    ______ ____
ROOT
ATOM      1  C   LIG    1       -1.496   3.259  -0.389  0.00  0.00    +0.190 C 
ATOM      2  C   LIG    1       -0.507   2.239  -0.993  0.00  0.00    +0.240 C 
ATOM      3  O   LIG    1       -0.196   1.885  -2.129  0.00  0.00    -0.273 OA
ATOM      4  N   LIG    1       -0.168   1.775   0.283  0.00  0.00    -0.271 N 
ATOM      5  C   LIG    1        0.013   0.356   0.628  0.00  0.00    +0.201 C 
ATOM      6  C   LIG    1       -0.891   0.086   1.876  0.00  0.00    +0.042 C 
ATOM      7  C   LIG    1       -0.235   0.507   3.218  0.00  0.00    +0.025 C 
ATOM      8  C   LIG    1       -1.404  -1.365   1.981  0.00  0.00    +0.025 C 
ATOM      9  S   LIG    1       -2.314   1.185   1.587  0.00  0.00    -0.127 S 
ATOM     10  C   LIG    1       -1.261   2.519   0.955  0.00  0.00    +0.165 C 
ENDROOT
BRANCH   1  13
ATOM     11  C   LIG    1       -3.924   3.761  -0.422  0.00  0.00    +0.235 C 
ATOM     12  O   LIG    1       -3.920   4.337   0.668  0.00  0.00    -0.274 OA
ATOM     13  N   LIG    1       -2.829   3.226  -0.988  0.00  0.00    -0.300 N 
ATOM     14  H   LIG    1       -2.900   2.829  -1.914  0.00  0.00    +0.150 HD
BRANCH  11  15
ATOM     15  C   LIG    1       -5.247   3.597  -1.204  0.00  0.00    +0.168 C 
BRANCH  15  17
ATOM     16  C   LIG    1       -6.021   1.533   0.029  0.00  0.00    +0.005 A 
ATOM     17  C   LIG    1       -6.291   2.841  -0.401  0.00  0.00    -0.022 A 
ATOM     18  C   LIG    1       -7.536   3.412  -0.100  0.00  0.00    +0.005 A 
ATOM     19  C   LIG    1       -8.483   2.696   0.628  0.00  0.00    +0.000 A 
ATOM     20  C   LIG    1       -8.193   1.403   1.057  0.00  0.00    +0.000 A 
ATOM     21  C   LIG    1       -6.966   0.818   0.759  0.00  0.00    +0.000 A 
ENDBRANCH  15  17
BRANCH  15  22
ATOM     22  N   LIG    1       -5.575   4.944  -1.710  0.00  0.00    -0.316 NA
ATOM     23  H   LIG    1       -6.440   4.927  -2.232  0.00  0.00    +0.119 HD
ATOM     24  H   LIG    1       -4.865   5.272  -2.349  0.00  0.00    +0.119 HD
ENDBRANCH  15  22
ENDBRANCH  11  15
ENDBRANCH   1  13
BRANCH   5  25
ATOM     25  C   LIG    1        1.470  -0.153   0.728  0.00  0.00    +0.332 C 
ATOM     26  O   LIG    1        1.708  -1.350   0.902  0.00  0.00    -0.249 OA
BRANCH  25  27
ATOM     27  O   LIG    1        2.387   0.845   0.636  0.00  0.00    -0.426 OA
BRANCH  27  28
ATOM     28  C   LIG    1        3.735   0.486   0.732  0.00  0.00    +0.472 C 
BRANCH  28  29
ATOM     29  O   LIG    1        4.548   1.617   0.614  0.00  0.00    -0.426 OA
BRANCH  29  30
ATOM     30  C   LIG    1        4.757   2.098  -0.650  0.00  0.00    +0.333 C 
ATOM     31  O   LIG    1        4.647   1.451  -1.695  0.00  0.00    -0.249 OA
BRANCH  30  32
ATOM     32  C   LIG    1        5.115   3.604  -0.699  0.00  0.00    +0.213 C 
ATOM     33  C   LIG    1        3.912   4.535  -1.119  0.00  0.00    +0.113 C 
ATOM     34  C   LIG    1        2.806   3.910  -2.010  0.00  0.00    +0.038 C 
ATOM     35  C   LIG    1        4.436   5.806  -1.834  0.00  0.00    +0.038 C 
ATOM     36  S   LIG    1        3.144   5.045   0.558  0.00  0.00    -0.004 S 
ATOM     37  O   LIG    1        2.879   6.489   0.581  0.00  0.00    -0.172 OA
ATOM     38  O   LIG    1        2.063   4.114   0.901  0.00  0.00    -0.172 OA
ATOM     39  C   LIG    1        4.656   4.632   1.618  0.00  0.00    +0.229 C 
ATOM     40  C   LIG    1        5.658   5.769   1.933  0.00  0.00    +0.142 C 
ATOM     41  C   LIG    1        6.537   5.141   0.818  0.00  0.00    +0.221 C 
ATOM     42  O   LIG    1        7.633   5.393   0.322  0.00  0.00    -0.275 OA
ATOM     43  N   LIG    1        5.586   4.150   0.580  0.00  0.00    -0.263 N 
ENDBRANCH  30  32
ENDBRANCH  29  30
ENDBRANCH  28  29
ENDBRANCH  27  28
ENDBRANCH  25  27
ENDBRANCH   5  25
TORSDOF 10
