REMARK  Name = DB12861
REMARK                            x       y       z     vdW  Elec       q    Type
REMARK                         _______ _______ _______ _____ _____    ______ ____
ROOT
ATOM      1  C   LIG    1        0.306   2.114  -0.168  0.00  0.00    +0.044 C 
ATOM      2  C   LIG    1       -0.513   0.826  -0.152  0.00  0.00    -0.035 A 
ATOM      3  C   LIG    1        0.070  -0.454  -0.080  0.00  0.00    +0.061 A 
ATOM      4  C   LIG    1       -0.768  -1.570   0.002  0.00  0.00    +0.043 A 
ATOM      5  C   LIG    1       -2.165  -1.463  -0.003  0.00  0.00    +0.113 A 
ATOM      6  C   LIG    1       -2.747  -0.177  -0.120  0.00  0.00    +0.113 A 
ATOM      7  C   LIG    1       -1.904   0.940  -0.174  0.00  0.00    +0.033 A 
ENDROOT
BRANCH   5   8
ATOM      8  S   LIG    1       -3.067  -3.030   0.133  0.00  0.00    -0.004 S 
ATOM      9  C   LIG    1       -3.450  -3.484  -1.660  0.00  0.00    +0.200 C 
ATOM     10  O   LIG    1       -4.321  -2.801   0.856  0.00  0.00    -0.170 OA
ATOM     11  O   LIG    1       -2.133  -4.039   0.647  0.00  0.00    -0.170 OA
ENDBRANCH   5   8
BRANCH   6  12
ATOM     12  S   LIG    1       -4.523   0.185  -0.192  0.00  0.00    -0.004 S 
ATOM     13  C   LIG    1       -5.040   0.239   1.625  0.00  0.00    +0.200 C 
ATOM     14  O   LIG    1       -5.214  -0.920  -0.862  0.00  0.00    -0.170 OA
ATOM     15  O   LIG    1       -4.680   1.542  -0.728  0.00  0.00    -0.170 OA
ENDBRANCH   6  12
BRANCH   3  16
ATOM     16  C   LIG    1        1.563  -0.681  -0.069  0.00  0.00    +0.341 C 
ATOM     17  O   LIG    1        2.090  -1.439   0.751  0.00  0.00    -0.248 OA
BRANCH  16  18
ATOM     18  N   LIG    1        2.237  -0.137  -1.155  0.00  0.00    -0.000 NA
ATOM     19  C   LIG    1        3.344   0.493  -1.021  0.00  0.00    +0.375 C 
BRANCH  19  20
ATOM     20  N   LIG    1        4.020   1.024  -2.140  0.00  0.00    -0.291 N 
ATOM     21  H   LIG    1        5.028   1.054  -2.108  0.00  0.00    +0.254 HD
ATOM     22  H   LIG    1        3.696   0.744  -3.055  0.00  0.00    +0.254 HD
ENDBRANCH  19  20
BRANCH  19  23
ATOM     23  N   LIG    1        4.062   0.765   0.174  0.00  0.00    -0.291 N 
ATOM     24  H   LIG    1        5.069   0.806   0.116  0.00  0.00    +0.254 HD
ATOM     25  H   LIG    1        3.771   0.278   1.010  0.00  0.00    +0.254 HD
ENDBRANCH  19  23
ENDBRANCH  16  18
ENDBRANCH   3  16
TORSDOF 6
