REMARK  Name = DB12264
REMARK                            x       y       z     vdW  Elec       q    Type
REMARK                         _______ _______ _______ _____ _____    ______ ____
ROOT
ATOM      1  N   LIG    1        0.917   0.678  -0.559  0.00  0.00    -0.277 NA
ATOM      2  C   LIG    1        1.475   0.936   0.790  0.00  0.00    +0.105 C 
ATOM      3  C   LIG    1        3.001   0.697   0.813  0.00  0.00    +0.123 C 
ATOM      4  N   LIG    1        3.627   1.619  -0.152  0.00  0.00    -0.294 N 
ATOM      5  C   LIG    1        4.680   2.448   0.103  0.00  0.00    +0.263 C 
ATOM      6  O   LIG    1        5.333   2.974  -0.803  0.00  0.00    -0.268 OA
ATOM      7  C   LIG    1        3.149   1.409  -1.537  0.00  0.00    +0.123 C 
ATOM      8  C   LIG    1        1.595   1.533  -1.569  0.00  0.00    +0.105 C 
ENDROOT
BRANCH   5   9
ATOM      9  C   LIG    1        5.029   2.770   1.478  0.00  0.00    +0.103 A 
ATOM     10  N   LIG    1        6.267   3.279   1.813  0.00  0.00    -0.351 N 
ATOM     11  H   LIG    1        6.992   3.401   1.121  0.00  0.00    +0.166 HD
ATOM     12  C   LIG    1        6.359   3.553   3.161  0.00  0.00    +0.047 A 
ATOM     13  C   LIG    1        7.417   4.042   3.932  0.00  0.00    +0.030 A 
ATOM     14  C   LIG    1        7.174   4.221   5.294  0.00  0.00    +0.047 A 
ATOM     15  C   LIG    1        5.942   3.938   5.884  0.00  0.00    +0.121 A 
ATOM     16  C   LIG    1        4.888   3.449   5.095  0.00  0.00    +0.055 A 
ATOM     17  C   LIG    1        5.090   3.248   3.721  0.00  0.00    +0.004 A 
ATOM     18  C   LIG    1        4.266   2.788   2.644  0.00  0.00    +0.041 A 
BRANCH  15  19
ATOM     19  O   LIG    1        5.849   4.170   7.243  0.00  0.00    -0.495 OA
ATOM     20  C   LIG    1        4.620   3.909   7.912  0.00  0.00    +0.277 C 
ENDBRANCH  15  19
ENDBRANCH   5   9
BRANCH   1  22
ATOM     21  C   LIG    1       -0.932  -0.995  -0.069  0.00  0.00    +0.079 C 
ATOM     22  C   LIG    1       -0.404   0.132  -0.758  0.00  0.00    +0.128 C 
ATOM     23  N   LIG    1       -1.189   0.742  -1.678  0.00  0.00    -0.290 NA
ATOM     24  H   LIG    1       -0.803   1.535  -2.171  0.00  0.00    +0.124 HD
ATOM     25  C   LIG    1       -2.450   0.377  -1.969  0.00  0.00    +0.076 C 
ATOM     26  C   LIG    1       -3.016  -0.703  -1.299  0.00  0.00    +0.018 C 
ATOM     27  C   LIG    1       -2.255  -1.390  -0.352  0.00  0.00    +0.024 C 
BRANCH  21  28
ATOM     28  N   LIG    1       -0.144  -1.726   0.846  0.00  0.00    -0.306 NA
ATOM     29  H   LIG    1        0.850  -1.547   0.833  0.00  0.00    +0.123 HD
BRANCH  28  31
ATOM     30  C   LIG    1        0.450  -3.569   2.406  0.00  0.00    +0.020 C 
ATOM     31  C   LIG    1       -0.571  -2.998   1.416  0.00  0.00    +0.078 C 
ENDBRANCH  28  31
ENDBRANCH  21  28
ENDBRANCH   1  22
TORSDOF 5
