REMARK  Name = DB12301
REMARK                            x       y       z     vdW  Elec       q    Type
REMARK                         _______ _______ _______ _____ _____    ______ ____
ROOT
ATOM      1  C   LIG    1        1.299   0.063   0.169  0.00  0.00    +0.204 A 
ATOM      2  C   LIG    1        1.991   0.647   1.337  0.00  0.00    +0.295 A 
ATOM      3  O   LIG    1        1.363   1.034   2.327  0.00  0.00    -0.264 OA
ATOM      4  N   LIG    1        3.367   0.731   1.228  0.00  0.00    -0.305 N 
ATOM      5  C   LIG    1        4.010   0.229   0.121  0.00  0.00    +0.090 A 
ATOM      6  C   LIG    1        3.404  -0.348  -0.932  0.00  0.00    +0.034 A 
ATOM      7  C   LIG    1        1.947  -0.441  -0.923  0.00  0.00    +0.104 A 
ENDROOT
BRANCH   7   8
ATOM      8  C   LIG    1        1.184  -1.050  -2.102  0.00  0.00    +0.421 C 
ATOM      9  F   LIG    1        0.411  -0.123  -2.670  0.00  0.00    -0.166 F 
ATOM     10  F   LIG    1        0.418  -2.056  -1.679  0.00  0.00    -0.166 F 
ATOM     11  F   LIG    1        2.020  -1.523  -3.028  0.00  0.00    -0.166 F 
ENDBRANCH   7   8
BRANCH   1  12
ATOM     12  O   LIG    1       -0.062   0.011   0.215  0.00  0.00    -0.450 OA
BRANCH  12  18
ATOM     13 CL   LIG    1       -0.584   4.956  -1.176  0.00  0.00    -0.083 Cl
ATOM     14  C   LIG    1       -1.171   3.493  -0.473  0.00  0.00    +0.046 A 
ATOM     15  C   LIG    1       -2.461   3.441   0.054  0.00  0.00    +0.039 A 
ATOM     16  C   LIG    1       -2.937   2.255   0.621  0.00  0.00    +0.057 A 
ATOM     17  C   LIG    1       -2.114   1.126   0.662  0.00  0.00    +0.065 A 
ATOM     18  C   LIG    1       -0.815   1.171   0.149  0.00  0.00    +0.131 A 
ATOM     19  C   LIG    1       -0.354   2.364  -0.433  0.00  0.00    +0.066 A 
BRANCH  16  20
ATOM     20  C   LIG    1       -4.285   2.195   1.165  0.00  0.00    +0.099 C 
ATOM     21  N   LIG    1       -5.357   2.147   1.598  0.00  0.00    -0.191 NA
ENDBRANCH  16  20
ENDBRANCH  12  18
ENDBRANCH   1  12
BRANCH   4  22
ATOM     22  C   LIG    1        4.113   1.382   2.328  0.00  0.00    +0.201 C 
BRANCH  22  23
ATOM     23  C   LIG    1        4.208   2.905   2.140  0.00  0.00    +0.154 A 
ATOM     24  N   LIG    1        4.801   3.688   3.066  0.00  0.00    -0.281 N 
ATOM     25  C   LIG    1        5.426   3.315   4.335  0.00  0.00    +0.155 C 
ATOM     26  C   LIG    1        4.752   4.971   2.663  0.00  0.00    +0.344 A 
ATOM     27  O   LIG    1        5.177   5.991   3.205  0.00  0.00    -0.245 OA
ATOM     28  N   LIG    1        4.106   4.849   1.500  0.00  0.00    -0.227 N 
ATOM     29  H   LIG    1        3.856   5.591   0.862  0.00  0.00    +0.194 HD
ATOM     30  N   LIG    1        3.784   3.605   1.179  0.00  0.00    -0.155 NA
ENDBRANCH  22  23
ENDBRANCH   4  22
TORSDOF 6
