REMARK  Name = DB12587
REMARK                            x       y       z     vdW  Elec       q    Type
REMARK                         _______ _______ _______ _____ _____    ______ ____
ROOT
ATOM      1  C   LIG    1        1.665   0.213  -0.409  0.00  0.00    +0.025 C 
ATOM      2  C   LIG    1        2.825   0.842  -1.180  0.00  0.00    +0.046 C 
ATOM      3  C   LIG    1        2.883   0.417  -2.659  0.00  0.00    +0.015 C 
ATOM      4  C   LIG    1        4.077   0.480  -0.341  0.00  0.00    +0.104 C 
ATOM      5  C   LIG    1        4.970  -0.750  -0.670  0.00  0.00    +0.125 C 
ATOM      6  C   LIG    1        4.456  -1.316   0.685  0.00  0.00    +0.228 C 
ATOM      7  O   LIG    1        4.749  -2.270   1.404  0.00  0.00    -0.275 OA
ATOM      8  N   LIG    1        3.490  -0.310   0.761  0.00  0.00    -0.260 N 
ATOM      9  C   LIG    1        2.145  -0.439   0.671  0.00  0.00    +0.131 C 
ENDROOT
BRANCH   5  10
ATOM     10  C   LIG    1        6.508  -0.538  -0.718  0.00  0.00    +0.125 C 
ATOM     11  C   LIG    1        6.927   0.266  -1.959  0.00  0.00    +0.038 C 
BRANCH  10  12
ATOM     12  O   LIG    1        7.021   0.140   0.418  0.00  0.00    -0.391 OA
ATOM     13  H   LIG    1        6.781  -0.357   1.204  0.00  0.00    +0.210 HD
ENDBRANCH  10  12
ENDBRANCH   5  10
BRANCH   9  14
ATOM     14  C   LIG    1        1.360  -1.211   1.779  0.00  0.00    +0.352 C 
ATOM     15  O   LIG    1        0.485  -2.001   1.358  0.00  0.00    -0.244 OA
BRANCH  14  16
ATOM     16  O   LIG    1        1.694  -0.946   2.958  0.00  0.00    -0.476 OA
ATOM     17  H   LIG    1        2.375  -0.325   3.124  0.00  0.00    +0.295 HD
ENDBRANCH  14  16
ENDBRANCH   9  14
BRANCH   1  18
ATOM     18  S   LIG    1       -0.031   0.393  -0.947  0.00  0.00    -0.065 S 
BRANCH  18  21
ATOM     19  C   LIG    1       -0.078   4.036   0.446  0.00  0.00    +0.073 A 
ATOM     20  N   LIG    1        0.407   2.822   0.246  0.00  0.00    -0.233 NA
ATOM     21  C   LIG    1       -0.362   2.067  -0.502  0.00  0.00    +0.140 A 
ATOM     22  S   LIG    1       -1.812   2.849  -1.036  0.00  0.00    -0.069 S 
ATOM     23  C   LIG    1       -1.304   4.272  -0.179  0.00  0.00    +0.075 A 
BRANCH  19  30
ATOM     24  C   LIG    1        2.202   5.900   4.153  0.00  0.00    -0.009 C 
ATOM     25  C   LIG    1        2.240   6.075   2.627  0.00  0.00    -0.051 C 
ATOM     26  N   LIG    1        1.326   7.161   2.057  0.00  0.00    +0.386 N 
ATOM     27  H   LIG    1        1.808   7.655   1.319  0.00  0.00    -0.085 HD
ATOM     28  H   LIG    1        1.057   7.840   2.754  0.00  0.00    -0.085 HD
ATOM     29  C   LIG    1        0.118   6.423   1.484  0.00  0.00    -0.044 C 
ATOM     30  C   LIG    1        0.632   5.017   1.260  0.00  0.00    -0.044 C 
ATOM     31  C   LIG    1        1.806   4.824   1.890  0.00  0.00    -0.039 C 
ENDBRANCH  19  30
ENDBRANCH  18  21
ENDBRANCH   1  18
TORSDOF 7
