REMARK  Name = DB12705
REMARK                            x       y       z     vdW  Elec       q    Type
REMARK                         _______ _______ _______ _____ _____    ______ ____
ROOT
ATOM      1  C   LIG    1       -4.289  -0.068   0.127  0.00  0.00    +0.202 A 
ATOM      2  N   LIG    1       -4.983  -1.184   0.240  0.00  0.00    -0.056 NA
ATOM      3  O   LIG    1       -6.306  -0.757   0.158  0.00  0.00    -0.332 OA
ATOM      4  C   LIG    1       -6.232   0.588   0.005  0.00  0.00    +0.259 A 
ATOM      5  N   LIG    1       -5.004   1.036  -0.009  0.00  0.00    -0.187 NA
ENDROOT
BRANCH   1  11
ATOM      6  C   LIG    1       -0.654  -1.245   0.173  0.00  0.00    -0.005 A 
ATOM      7  C   LIG    1        0.036  -0.024   0.133  0.00  0.00    +0.127 A 
ATOM      8  C   LIG    1       -0.680   1.182   0.122  0.00  0.00    -0.008 A 
ATOM      9  C   LIG    1        0.036   2.524   0.138  0.00  0.00    +0.047 C 
ATOM     10  C   LIG    1       -2.077   1.158   0.124  0.00  0.00    +0.018 A 
ATOM     11  C   LIG    1       -2.784  -0.052   0.142  0.00  0.00    +0.023 A 
ATOM     12  C   LIG    1       -2.052  -1.247   0.174  0.00  0.00    +0.019 A 
BRANCH   6  14
ATOM     13  C   LIG    1        0.730  -2.863   1.584  0.00  0.00    +0.009 C 
ATOM     14  C   LIG    1        0.095  -2.574   0.215  0.00  0.00    +0.035 C 
ENDBRANCH   6  14
BRANCH   7  15
ATOM     15  O   LIG    1        1.411  -0.018   0.125  0.00  0.00    -0.489 OA
BRANCH  15  16
ATOM     16  C   LIG    1        1.996   0.083  -1.172  0.00  0.00    +0.262 C 
BRANCH  16  17
ATOM     17  C   LIG    1        3.487  -0.301  -1.104  0.00  0.00    +0.177 C 
BRANCH  17  18
ATOM     18  O   LIG    1        3.586  -1.685  -0.813  0.00  0.00    -0.386 OA
ATOM     19  H   LIG    1        3.175  -2.178  -1.527  0.00  0.00    +0.210 HD
ENDBRANCH  17  18
BRANCH  17  20
ATOM     20  C   LIG    1        4.222  -0.009  -2.431  0.00  0.00    +0.190 C 
BRANCH  20  21
ATOM     21  O   LIG    1        5.621  -0.159  -2.292  0.00  0.00    -0.392 OA
ATOM     22  H   LIG    1        6.036   0.036  -3.135  0.00  0.00    +0.210 HD
ENDBRANCH  20  21
ENDBRANCH  17  20
ENDBRANCH  16  17
ENDBRANCH  15  16
ENDBRANCH   7  15
ENDBRANCH   1  11
BRANCH   4  23
ATOM     23  C   LIG    1       -7.498   1.371  -0.130  0.00  0.00    +0.046 A 
ATOM     24  C   LIG    1       -8.739   0.723  -0.170  0.00  0.00    +0.080 A 
ATOM     25  C   LIG    1       -9.905   1.480  -0.307  0.00  0.00    +0.215 A 
ATOM     26  N   LIG    1       -9.877   2.840  -0.401  0.00  0.00    -0.218 NA
ATOM     27  C   LIG    1       -8.672   3.469  -0.358  0.00  0.00    +0.049 A 
ATOM     28  C   LIG    1       -7.469   2.769  -0.226  0.00  0.00    +0.037 A 
BRANCH  27  29
ATOM     29  C   LIG    1       -8.696   4.994  -0.466  0.00  0.00    +0.038 C 
ATOM     30  C   LIG    1       -9.258   5.568  -1.774  0.00  0.00    +0.010 C 
ATOM     31  C   LIG    1       -9.658   7.017  -1.470  0.00  0.00    +0.001 C 
ATOM     32  C   LIG    1       -9.793   7.126   0.058  0.00  0.00    +0.001 C 
ATOM     33  C   LIG    1       -9.474   5.739   0.628  0.00  0.00    +0.010 C 
ENDBRANCH  27  29
BRANCH  25  34
ATOM     34  O   LIG    1      -11.118   0.818  -0.349  0.00  0.00    -0.480 OA
ATOM     35  C   LIG    1      -12.323   1.567  -0.502  0.00  0.00    +0.279 C 
ENDBRANCH  25  34
ENDBRANCH   4  23
TORSDOF 11
