REMARK  Name = DB12010
REMARK                            x       y       z     vdW  Elec       q    Type
REMARK                         _______ _______ _______ _____ _____    ______ ____
ROOT
ATOM      1  N   LIG    1        0.648   1.074   0.269  0.00  0.00    -0.282 N 
ATOM      2  H   LIG    1        0.074   0.339  -0.118  0.00  0.00    +0.155 HD
ENDROOT
BRANCH   1  10
ATOM      3  N   LIG    1       -3.527   3.125   1.193  0.00  0.00    -0.225 N 
ATOM      4  C   LIG    1       -4.294   4.127   1.724  0.00  0.00    +0.266 C 
ATOM      5  C   LIG    1       -3.449   5.408   2.087  0.00  0.00    +0.181 C 
ATOM      6  O   LIG    1       -2.359   5.619   1.157  0.00  0.00    -0.474 OA
ATOM      7  C   LIG    1       -1.568   4.516   0.930  0.00  0.00    +0.162 A 
ATOM      8  C   LIG    1       -0.206   4.671   0.680  0.00  0.00    +0.052 A 
ATOM      9  C   LIG    1        0.565   3.529   0.454  0.00  0.00    +0.047 A 
ATOM     10  C   LIG    1       -0.053   2.268   0.491  0.00  0.00    +0.126 A 
ATOM     11  N   LIG    1       -1.388   2.129   0.705  0.00  0.00    -0.213 NA
ATOM     12  C   LIG    1       -2.888   5.186   3.517  0.00  0.00    +0.065 C 
ATOM     13  C   LIG    1       -4.354   6.652   1.945  0.00  0.00    +0.065 C 
ATOM     14  O   LIG    1       -5.515   4.060   1.900  0.00  0.00    -0.271 OA
ATOM     15  C   LIG    1       -2.143   3.246   0.912  0.00  0.00    +0.174 A 
BRANCH   3  16
ATOM     16  C   LIG    1       -4.177   1.832   0.879  0.00  0.00    +0.289 C 
BRANCH  16  17
ATOM     17  O   LIG    1       -3.828   0.912   1.902  0.00  0.00    -0.267 OA
BRANCH  17  18
ATOM     18  P   LIG    1       -3.997  -0.693   1.673  0.00  0.00    +0.474 P 
ATOM     19  O   LIG    1       -3.690  -1.537   2.859  0.00  0.00    -0.227 OA
BRANCH  18  20
ATOM     20  O   LIG    1       -3.075  -0.983   0.367  0.00  0.00    -0.303 OA
ATOM     21  H   LIG    1       -3.259  -0.431  -0.417  0.00  0.00    +0.222 HD
ENDBRANCH  18  20
BRANCH  18  22
ATOM     22  O   LIG    1       -5.509  -0.839   1.099  0.00  0.00    -0.303 OA
ATOM     23  H   LIG    1       -6.087  -1.457   1.586  0.00  0.00    +0.222 HD
ENDBRANCH  18  22
ENDBRANCH  17  18
ENDBRANCH  16  17
ENDBRANCH   3  16
ENDBRANCH   1  10
BRANCH   1  24
ATOM     24  C   LIG    1        2.027   0.845   0.155  0.00  0.00    +0.165 A 
ATOM     25  C   LIG    1        2.959   1.352   1.075  0.00  0.00    +0.181 A 
ATOM     26  F   LIG    1        2.599   2.132   2.121  0.00  0.00    -0.200 F 
ATOM     27  C   LIG    1        4.296   0.995   0.888  0.00  0.00    +0.156 A 
ATOM     28  N   LIG    1        4.697   0.175  -0.117  0.00  0.00    -0.220 NA
ATOM     29  C   LIG    1        3.730  -0.301  -0.944  0.00  0.00    +0.221 A 
ATOM     30  N   LIG    1        2.404  -0.012  -0.830  0.00  0.00    -0.196 NA
BRANCH  29  31
ATOM     31  N   LIG    1        4.176  -1.177  -1.946  0.00  0.00    -0.283 N 
ATOM     32  H   LIG    1        5.163  -1.382  -1.893  0.00  0.00    +0.155 HD
BRANCH  31  33
ATOM     33  C   LIG    1        3.524  -1.806  -3.022  0.00  0.00    +0.041 A 
ATOM     34  C   LIG    1        2.369  -1.293  -3.621  0.00  0.00    +0.073 A 
ATOM     35  C   LIG    1        1.759  -1.955  -4.699  0.00  0.00    +0.167 A 
ATOM     36  C   LIG    1        2.339  -3.134  -5.185  0.00  0.00    +0.204 A 
ATOM     37  C   LIG    1        3.501  -3.660  -4.604  0.00  0.00    +0.167 A 
ATOM     38  C   LIG    1        4.086  -2.979  -3.525  0.00  0.00    +0.073 A 
BRANCH  35  39
ATOM     39  O   LIG    1        0.609  -1.510  -5.326  0.00  0.00    -0.491 OA
ATOM     40  C   LIG    1       -0.028  -0.324  -4.862  0.00  0.00    +0.277 C 
ENDBRANCH  35  39
BRANCH  36  41
ATOM     41  O   LIG    1        1.746  -3.797  -6.233  0.00  0.00    -0.488 OA
ATOM     42  C   LIG    1        2.224  -3.404  -7.512  0.00  0.00    +0.277 C 
ENDBRANCH  36  41
BRANCH  37  43
ATOM     43  O   LIG    1        4.002  -4.832  -5.142  0.00  0.00    -0.491 OA
ATOM     44  C   LIG    1        5.182  -5.407  -4.591  0.00  0.00    +0.277 C 
ENDBRANCH  37  43
ENDBRANCH  31  33
ENDBRANCH  29  31
ENDBRANCH   1  24
TORSDOF 12
