REMARK  Name = DB12865
REMARK                            x       y       z     vdW  Elec       q    Type
REMARK                         _______ _______ _______ _____ _____    ______ ____
ROOT
ATOM      1  C   UNK    1       -0.033  -0.040  -0.058  0.00  0.00    +0.159 C 
ENDROOT
BRANCH   1   4
ATOM      2  C   UNK    1        2.266   0.064  -1.138  0.00  0.00    +0.234 C 
ATOM      3  O   UNK    1        1.902   0.410  -2.262  0.00  0.00    -0.274 OA
ATOM      4  N   UNK    1        1.428  -0.186  -0.113  0.00  0.00    -0.302 N 
ATOM      5  H   UNK    1        1.846  -0.445   0.769  0.00  0.00    +0.150 HD
BRANCH   2   6
ATOM      6  C   UNK    1        3.775  -0.042  -0.818  0.00  0.00    +0.159 C 
BRANCH   6   9
ATOM      7  C   UNK    1        4.740  -0.741  -3.036  0.00  0.00    +0.234 C 
ATOM      8  O   UNK    1        4.105  -1.792  -3.137  0.00  0.00    -0.274 OA
ATOM      9  N   UNK    1        4.643   0.106  -1.995  0.00  0.00    -0.302 N 
ATOM     10  H   UNK    1        5.197   0.949  -2.010  0.00  0.00    +0.150 HD
BRANCH   7  11
ATOM     11  C   UNK    1        5.714  -0.304  -4.146  0.00  0.00    +0.156 C 
ATOM     12  C   UNK    1        7.185  -0.481  -3.715  0.00  0.00    +0.038 C 
BRANCH  11  15
ATOM     13  C   UNK    1        5.675  -2.230  -5.789  0.00  0.00    +0.235 C 
ATOM     14  O   UNK    1        6.270  -3.058  -5.098  0.00  0.00    -0.274 OA
ATOM     15  N   UNK    1        5.439  -0.953  -5.435  0.00  0.00    -0.303 N 
ATOM     16  H   UNK    1        4.940  -0.372  -6.092  0.00  0.00    +0.149 HD
BRANCH  13  17
ATOM     17  C   UNK    1        5.087  -2.641  -7.151  0.00  0.00    +0.169 C 
BRANCH  17  21
ATOM     18  C   UNK    1        1.357  -3.369  -6.455  0.00  0.00    +0.109 C 
ATOM     19  C   UNK    1        2.868  -3.534  -6.338  0.00  0.00    +0.211 C 
ATOM     20  O   UNK    1        3.329  -4.380  -5.573  0.00  0.00    -0.276 OA
ATOM     21  N   UNK    1        3.620  -2.717  -7.099  0.00  0.00    -0.303 N 
ATOM     22  H   UNK    1        3.144  -2.057  -7.696  0.00  0.00    +0.149 HD
ENDBRANCH  17  21
BRANCH  17  23
ATOM     23  C   UNK    1        5.704  -3.943  -7.715  0.00  0.00    +0.112 C 
BRANCH  23  24
ATOM     24  S   UNK    1        5.199  -4.411  -9.399  0.00  0.00    -0.091 S 
BRANCH  24  25
ATOM     25  S   UNK    1        5.705  -2.810 -10.560  0.00  0.00    -0.091 S 
BRANCH  25  26
ATOM     26  C   UNK    1        4.173  -1.825 -10.646  0.00  0.00    +0.111 C 
BRANCH  26  27
ATOM     27  C   UNK    1        4.305  -0.302 -10.871  0.00  0.00    +0.171 C 
BRANCH  27  28
ATOM     28  N   UNK    1        5.133   0.057 -12.035  0.00  0.00    -0.318 NA
ATOM     29  H   UNK    1        4.677  -0.204 -12.897  0.00  0.00    +0.119 HD
ATOM     30  H   UNK    1        6.009  -0.446 -12.014  0.00  0.00    +0.119 HD
ENDBRANCH  27  28
BRANCH  27  31
ATOM     31  C   UNK    1        4.866   0.422  -9.628  0.00  0.00    +0.323 C 
ATOM     32  O   UNK    1        6.069   0.522  -9.384  0.00  0.00    -0.249 OA
BRANCH  31  33
ATOM     33  O   UNK    1        3.859   0.885  -8.830  0.00  0.00    -0.480 OA
ATOM     34  H   UNK    1        4.189   1.341  -8.052  0.00  0.00    +0.295 HD
ENDBRANCH  31  33
ENDBRANCH  27  31
ENDBRANCH  26  27
ENDBRANCH  25  26
ENDBRANCH  24  25
ENDBRANCH  23  24
ENDBRANCH  17  23
ENDBRANCH  13  17
ENDBRANCH  11  15
ENDBRANCH   7  11
ENDBRANCH   6   9
BRANCH   6  35
ATOM     35  C   UNK    1        4.161  -1.298   0.011  0.00  0.00    +0.035 C 
BRANCH  35  36
ATOM     36  C   UNK    1        5.576  -1.213   0.607  0.00  0.00    +0.039 C 
BRANCH  36  37
ATOM     37  C   UNK    1        5.917  -2.428   1.478  0.00  0.00    +0.196 C 
BRANCH  37  38
ATOM     38  N   UNK    1        7.239  -2.296   2.066  0.00  0.00    -0.276 N 
ATOM     39  H   UNK    1        7.719  -1.434   1.850  0.00  0.00    +0.258 HD
BRANCH  38  40
ATOM     40  C   UNK    1        7.910  -3.183   2.903  0.00  0.00    +0.376 C 
ATOM     41  N   UNK    1        9.054  -2.951   3.377  0.00  0.00    -0.130 NA
ATOM     42  H   UNK    1        9.433  -2.059   3.090  0.00  0.00    +0.306 HD
BRANCH  40  43
ATOM     43  N   UNK    1        7.207  -4.349   3.167  0.00  0.00    -0.289 N 
ATOM     44  H   UNK    1        6.584  -4.630   2.424  0.00  0.00    +0.255 HD
ATOM     45  H   UNK    1        7.792  -5.131   3.425  0.00  0.00    +0.255 HD
ENDBRANCH  40  43
ENDBRANCH  38  40
ENDBRANCH  37  38
ENDBRANCH  36  37
ENDBRANCH  35  36
ENDBRANCH   6  35
ENDBRANCH   2   6
ENDBRANCH   1   4
BRANCH   1  46
ATOM     46  C   UNK    1       -0.464   1.437   0.027  0.00  0.00    +0.234 C 
ATOM     47  O   UNK    1        0.096   2.285  -0.667  0.00  0.00    -0.274 OA
ATOM     48  N   UNK    1       -1.474   1.695   0.881  0.00  0.00    -0.302 N 
ATOM     49  H   UNK    1       -1.873   0.919   1.388  0.00  0.00    +0.150 HD
BRANCH  48  50
ATOM     50  C   UNK    1       -2.059   3.002   1.206  0.00  0.00    +0.159 C 
BRANCH  50  51
ATOM     51  C   UNK    1       -1.026   3.897   1.918  0.00  0.00    +0.234 C 
ATOM     52  O   UNK    1       -0.333   4.674   1.260  0.00  0.00    -0.274 OA
ATOM     53  N   UNK    1       -0.940   3.729   3.251  0.00  0.00    -0.303 N 
ATOM     54  H   UNK    1       -1.567   3.067   3.683  0.00  0.00    +0.149 HD
BRANCH  53  55
ATOM     55  C   UNK    1        0.030   4.339   4.167  0.00  0.00    +0.156 C 
ATOM     56  C   UNK    1       -0.046   5.881   4.137  0.00  0.00    +0.038 C 
BRANCH  55  57
ATOM     57  C   UNK    1        1.451   3.806   3.912  0.00  0.00    +0.234 C 
ATOM     58  O   UNK    1        2.182   4.374   3.102  0.00  0.00    -0.274 OA
ATOM     59  N   UNK    1        1.780   2.702   4.610  0.00  0.00    -0.302 N 
ATOM     60  H   UNK    1        1.088   2.334   5.246  0.00  0.00    +0.150 HD
BRANCH  59  61
ATOM     61  C   UNK    1        3.010   1.897   4.534  0.00  0.00    +0.159 C 
BRANCH  61  62
ATOM     62  C   UNK    1        3.085   1.047   3.244  0.00  0.00    +0.231 C 
ATOM     63  O   UNK    1        2.805   1.529   2.149  0.00  0.00    -0.274 OA
ATOM     64  N   UNK    1        3.497  -0.216   3.387  0.00  0.00    -0.328 N 
ATOM     65  H   UNK    1        3.734  -0.577   4.299  0.00  0.00    +0.145 HD
ATOM     66  H   UNK    1        3.585  -0.814   2.578  0.00  0.00    +0.145 HD
ENDBRANCH  61  62
BRANCH  61  67
ATOM     67  C   UNK    1        4.276   2.768   4.754  0.00  0.00    +0.035 C 
BRANCH  67  68
ATOM     68  C   UNK    1        5.587   1.971   4.885  0.00  0.00    +0.039 C 
BRANCH  68  69
ATOM     69  C   UNK    1        6.781   2.864   5.251  0.00  0.00    +0.196 C 
BRANCH  69  70
ATOM     70  N   UNK    1        8.014   2.097   5.338  0.00  0.00    -0.276 N 
ATOM     71  H   UNK    1        8.601   2.151   4.519  0.00  0.00    +0.258 HD
BRANCH  70  72
ATOM     72  C   UNK    1        8.496   1.316   6.387  0.00  0.00    +0.376 C 
ATOM     73  N   UNK    1        9.591   0.696   6.332  0.00  0.00    -0.130 NA
ATOM     74  H   UNK    1       10.077   0.820   5.456  0.00  0.00    +0.306 HD
BRANCH  72  75
ATOM     75  N   UNK    1        7.668   1.283   7.499  0.00  0.00    -0.289 N 
ATOM     76  H   UNK    1        7.110   2.116   7.622  0.00  0.00    +0.255 HD
ATOM     77  H   UNK    1        8.148   1.072   8.362  0.00  0.00    +0.255 HD
ENDBRANCH  72  75
ENDBRANCH  70  72
ENDBRANCH  69  70
ENDBRANCH  68  69
ENDBRANCH  67  68
ENDBRANCH  61  67
ENDBRANCH  59  61
ENDBRANCH  55  57
ENDBRANCH  53  55
ENDBRANCH  50  51
BRANCH  50  78
ATOM     78  C   UNK    1       -2.695   3.653  -0.049  0.00  0.00    +0.035 C 
BRANCH  78  79
ATOM     79  C   UNK    1       -3.525   4.917   0.252  0.00  0.00    +0.039 C 
BRANCH  79  80
ATOM     80  C   UNK    1       -4.166   5.539  -1.000  0.00  0.00    +0.196 C 
BRANCH  80  81
ATOM     81  N   UNK    1       -5.141   4.653  -1.618  0.00  0.00    -0.276 N 
ATOM     82  H   UNK    1       -4.797   4.149  -2.423  0.00  0.00    +0.258 HD
BRANCH  81  83
ATOM     83  C   UNK    1       -6.454   4.383  -1.243  0.00  0.00    +0.376 C 
ATOM     84  N   UNK    1       -7.188   3.564  -1.859  0.00  0.00    -0.130 NA
ATOM     85  H   UNK    1       -6.726   3.130  -2.645  0.00  0.00    +0.306 HD
BRANCH  83  86
ATOM     86  N   UNK    1       -6.888   5.095  -0.134  0.00  0.00    -0.289 N 
ATOM     87  H   UNK    1       -6.437   5.991  -0.018  0.00  0.00    +0.255 HD
ATOM     88  H   UNK    1       -7.890   5.216  -0.090  0.00  0.00    +0.255 HD
ENDBRANCH  83  86
ENDBRANCH  81  83
ENDBRANCH  80  81
ENDBRANCH  79  80
ENDBRANCH  78  79
ENDBRANCH  50  78
ENDBRANCH  48  50
ENDBRANCH   1  46
BRANCH   1  89
ATOM     89  C   UNK    1       -0.737  -0.814  -1.204  0.00  0.00    +0.035 C 
BRANCH  89  90
ATOM     90  C   UNK    1       -2.271  -0.867  -1.083  0.00  0.00    +0.039 C 
BRANCH  90  91
ATOM     91  C   UNK    1       -2.914  -1.777  -2.140  0.00  0.00    +0.196 C 
BRANCH  91  92
ATOM     92  N   UNK    1       -4.364  -1.780  -2.024  0.00  0.00    -0.276 N 
ATOM     93  H   UNK    1       -4.838  -1.160  -2.664  0.00  0.00    +0.258 HD
BRANCH  92  94
ATOM     94  C   UNK    1       -5.174  -2.469  -1.124  0.00  0.00    +0.376 C 
ATOM     95  N   UNK    1       -6.428  -2.349  -1.102  0.00  0.00    -0.130 NA
ATOM     96  H   UNK    1       -6.779  -1.708  -1.799  0.00  0.00    +0.306 HD
BRANCH  94  97
ATOM     97  N   UNK    1       -4.482  -3.300  -0.256  0.00  0.00    -0.289 N 
ATOM     98  H   UNK    1       -3.610  -3.649  -0.627  0.00  0.00    +0.255 HD
ATOM     99  H   UNK    1       -5.029  -4.072   0.098  0.00  0.00    +0.255 HD
ENDBRANCH  94  97
ENDBRANCH  92  94
ENDBRANCH  91  92
ENDBRANCH  90  91
ENDBRANCH  89  90
ENDBRANCH   1  89
TORSDOF 46
