REMARK  Name = DB12328
REMARK                            x       y       z     vdW  Elec       q    Type
REMARK                         _______ _______ _______ _____ _____    ______ ____
ROOT
ATOM      1  C   LIG    1       -0.096  -0.101   0.069  0.00  0.00    +0.027 C 
ATOM      2  C   LIG    1        1.454   0.010  -0.004  0.00  0.00    +0.109 C 
ATOM      3  C   LIG    1        2.062   0.585  -1.300  0.00  0.00    +0.109 C 
ATOM      4  C   LIG    1        2.872  -0.600  -1.850  0.00  0.00    +0.324 C 
ATOM      5  O   LIG    1        2.740  -1.671  -1.065  0.00  0.00    -0.392 OA
ATOM      6  O   LIG    1        3.567  -0.633  -2.865  0.00  0.00    -0.250 OA
ATOM      7  C   LIG    1        2.916   1.764  -0.758  0.00  0.00    +0.136 C 
ATOM      8  O   LIG    1        3.324   1.214   0.489  0.00  0.00    -0.371 OA
ATOM      9  C   LIG    1        2.127   2.964  -0.204  0.00  0.00    +0.035 C 
ATOM     10  C   LIG    1        1.526   2.395   1.078  0.00  0.00    +0.035 C 
ATOM     11  C   LIG    1        1.074   1.006  -2.426  0.00  0.00    +0.027 C 
ATOM     12  C   LIG    1        1.997  -1.428   0.016  0.00  0.00    +0.324 C 
ATOM     13  O   LIG    1        1.813  -2.292   0.873  0.00  0.00    -0.250 OA
ATOM     14  C   LIG    1        2.056   0.950   1.076  0.00  0.00    +0.136 C 
ENDROOT
TORSDOF 0
