REMARK  Name = DB12834
REMARK                            x       y       z     vdW  Elec       q    Type
REMARK                         _______ _______ _______ _____ _____    ______ ____
ROOT
ATOM      1  N   LIG    1       -0.503   1.373  -0.067  0.00  0.00    -0.307 N 
ATOM      2  C   LIG    1       -0.792   2.216  -1.133  0.00  0.00    +0.211 A 
ATOM      3  C   LIG    1       -1.190   3.410  -0.542  0.00  0.00    +0.164 A 
ATOM      4  N   LIG    1       -1.156   3.357   0.773  0.00  0.00    -0.239 NA
ATOM      5  C   LIG    1       -0.743   2.145   1.056  0.00  0.00    +0.108 A 
ATOM      6  C   LIG    1       -0.557   1.653   2.478  0.00  0.00    +0.086 C 
ENDROOT
BRANCH   2   7
ATOM      7  N   LIG    1       -0.686   1.880  -2.527  0.00  0.00    +0.025 N 
ATOM      8  O   LIG    1       -1.006   2.755  -3.324  0.00  0.00    -0.128 OA
BRANCH   7   9
ATOM      9  O   LIG    1       -0.290   0.771  -2.865  0.00  0.00    -0.395 OA
ATOM     10  H   LIG    1       -0.058   0.137  -2.215  0.00  0.00    +0.329 HD
ENDBRANCH   7   9
ENDBRANCH   2   7
BRANCH   1  11
ATOM     11  C   LIG    1       -0.020  -0.015  -0.060  0.00  0.00    +0.156 C 
BRANCH  11  13
ATOM     12  C   LIG    1        2.026  -1.547   0.069  0.00  0.00    +0.039 C 
ATOM     13  C   LIG    1        1.525  -0.097   0.002  0.00  0.00    +0.131 C 
BRANCH  13  14
ATOM     14  O   LIG    1        2.122   0.529  -1.116  0.00  0.00    -0.390 OA
ATOM     15  H   LIG    1        1.801   0.102  -1.914  0.00  0.00    +0.210 HD
ENDBRANCH  13  14
ENDBRANCH  11  13
ENDBRANCH   1  11
TORSDOF 5
