REMARK  Name = DB12145
REMARK                            x       y       z     vdW  Elec       q    Type
REMARK                         _______ _______ _______ _____ _____    ______ ____
ROOT
ATOM      1  C   LIG    1       -2.008   2.033   2.982  0.00  0.00    +0.020 A 
ATOM      2  C   LIG    1       -2.671   0.806   2.833  0.00  0.00    +0.114 A 
ATOM      3  N   LIG    1       -2.354  -0.099   1.866  0.00  0.00    -0.221 NA
ATOM      4  C   LIG    1       -1.330   0.242   1.048  0.00  0.00    +0.219 A 
ATOM      5  O   LIG    1       -0.949  -0.555  -0.001  0.00  0.00    -0.471 OA
ATOM      6  C   LIG    1        0.294  -0.042  -0.509  0.00  0.00    +0.105 C 
ATOM      7  C   LIG    1        0.307  -0.185  -2.065  0.00  0.00    +0.028 C 
ATOM      8  C   LIG    1        1.704   0.268  -2.571  0.00  0.00    -0.011 C 
ATOM      9  C   LIG    1        2.844  -0.565  -1.924  0.00  0.00    -0.078 C 
ATOM     10  N   LIG    1        2.224  -1.631  -0.984  0.00  0.00    +0.382 N 
ATOM     11  H   LIG    1        2.960  -2.187  -0.571  0.00  0.00    -0.082 HD
ATOM     12  C   LIG    1        1.277  -2.551  -1.794  0.00  0.00    -0.078 C 
ATOM     13  C   LIG    1        0.150  -1.689  -2.423  0.00  0.00    -0.011 C 
ATOM     14  C   LIG    1        1.415  -0.930   0.138  0.00  0.00    -0.030 C 
ATOM     15  C   LIG    1        0.351   1.430  -0.016  0.00  0.00    +0.086 C 
ATOM     16  C   LIG    1       -0.610   1.417   1.126  0.00  0.00    +0.018 A 
ATOM     17  C   LIG    1       -0.966   2.350   2.101  0.00  0.00    +0.010 A 
ENDROOT
TORSDOF 0
