REMARK  Name = DB12190
REMARK                            x       y       z     vdW  Elec       q    Type
REMARK                         _______ _______ _______ _____ _____    ______ ____
ROOT
ATOM      1  C   LIG    1        1.556   0.093  -0.138  0.00  0.00    +0.135 C 
ATOM      2  C   LIG    1        2.148   0.437  -1.527  0.00  0.00    +0.158 C 
ATOM      3  S   LIG    1        3.528   1.589  -1.674  0.00  0.00    -0.101 S 
ATOM      4  C   LIG    1        4.673   0.250  -2.013  0.00  0.00    +0.044 C 
ATOM      5  C   LIG    1        4.096  -0.970  -1.882  0.00  0.00    +0.134 C 
ATOM      6  N   LIG    1        2.780  -0.889  -1.547  0.00  0.00    -0.251 N 
ATOM      7  C   LIG    1        2.139  -1.328  -0.384  0.00  0.00    +0.229 C 
ATOM      8  O   LIG    1        2.123  -2.398   0.224  0.00  0.00    -0.275 OA
ENDROOT
BRANCH   4   9
ATOM      9  C   LIG    1        6.122   0.560  -2.364  0.00  0.00    +0.157 C 
ATOM     10  O   LIG    1        6.686   1.521  -1.464  0.00  0.00    -0.371 OA
ATOM     11  C   LIG    1        7.287   2.600  -2.179  0.00  0.00    +0.161 C 
ATOM     12  C   LIG    1        7.521   2.037  -3.575  0.00  0.00    +0.031 C 
ATOM     13  C   LIG    1        6.298   1.170  -3.758  0.00  0.00    +0.039 C 
ENDBRANCH   4   9
BRANCH   1  15
ATOM     14  C   LIG    1       -0.509  -0.501   1.302  0.00  0.00    +0.038 C 
ATOM     15  C   LIG    1        0.013   0.096  -0.018  0.00  0.00    +0.126 C 
BRANCH  15  16
ATOM     16  O   LIG    1       -0.435   1.435  -0.098  0.00  0.00    -0.391 OA
ATOM     17  H   LIG    1       -0.035   1.932   0.619  0.00  0.00    +0.210 HD
ENDBRANCH  15  16
ENDBRANCH   1  15
BRANCH   5  18
ATOM     18  C   LIG    1        4.683  -2.403  -2.056  0.00  0.00    +0.352 C 
ATOM     19  O   LIG    1        5.696  -2.643  -1.361  0.00  0.00    -0.244 OA
BRANCH  18  20
ATOM     20  O   LIG    1        4.082  -3.135  -2.877  0.00  0.00    -0.476 OA
ATOM     21  H   LIG    1        3.326  -2.812  -3.327  0.00  0.00    +0.295 HD
ENDBRANCH  18  20
ENDBRANCH   5  18
TORSDOF 5
