REMARK  Name = DB12508
REMARK                            x       y       z     vdW  Elec       q    Type
REMARK                         _______ _______ _______ _____ _____    ______ ____
ROOT
ATOM      1  C   LIG    1        5.685  -2.267  -0.212  0.00  0.00    +0.209 C 
ATOM      2  O   LIG    1        6.407  -2.054  -1.434  0.00  0.00    -0.456 OA
ATOM      3  C   LIG    1        7.275  -2.973  -1.928  0.00  0.00    +0.310 C 
ATOM      4  O   LIG    1        7.517  -4.078  -1.437  0.00  0.00    -0.251 OA
ATOM      5  C   LIG    1        8.008  -2.472  -3.182  0.00  0.00    +0.151 C 
ATOM      6  C   LIG    1        9.554  -2.628  -3.169  0.00  0.00    +0.125 C 
ATOM      7  C   LIG    1       10.284  -1.980  -1.965  0.00  0.00    +0.035 C 
ATOM      8  C   LIG    1       10.087  -0.449  -1.867  0.00  0.00    +0.041 C 
ATOM      9  C   LIG    1       10.699   0.247  -0.613  0.00  0.00    +0.104 C 
ATOM     10  C   LIG    1       12.239   0.094  -0.596  0.00  0.00    +0.045 C 
ATOM     11  C   LIG    1       10.097  -0.290   0.728  0.00  0.00    +0.232 C 
ATOM     12  C   LIG    1        8.572  -0.275   0.776  0.00  0.00    +0.016 C 
ATOM     13  C   LIG    1        7.809  -1.370   0.939  0.00  0.00    -0.020 C 
ATOM     14  C   LIG    1        6.286  -1.385   0.934  0.00  0.00    +0.053 C 
ATOM     15  C   LIG    1        5.761  -1.804   2.322  0.00  0.00    +0.016 C 
ENDROOT
BRANCH   1  17
ATOM     16  C   LIG    1        3.386  -1.178   0.014  0.00  0.00    +0.002 C 
ATOM     17  C   LIG    1        4.178  -2.148  -0.506  0.00  0.00    -0.032 C 
ATOM     18  C   LIG    1        3.670  -3.247  -1.439  0.00  0.00    +0.043 C 
BRANCH  16  20
ATOM     19  C   LIG    1        1.248  -0.034   0.397  0.00  0.00    +0.007 C 
ATOM     20  C   LIG    1        1.961  -1.000  -0.213  0.00  0.00    -0.001 C 
BRANCH  19  21
ATOM     21  C   LIG    1       -0.250   0.229   0.245  0.00  0.00    +0.084 C 
ATOM     22  C   LIG    1       -1.027  -0.421   1.408  0.00  0.00    +0.046 C 
BRANCH  21  23
ATOM     23  O   LIG    1       -0.434   1.627   0.380  0.00  0.00    -0.385 OA
ATOM     24  H   LIG    1       -1.373   1.817   0.326  0.00  0.00    +0.211 HD
ENDBRANCH  21  23
BRANCH  21  25
ATOM     25  C   LIG    1       -0.870  -0.187  -1.121  0.00  0.00    +0.073 C 
BRANCH  25  28
ATOM     26  C   LIG    1       -0.206  -0.222  -3.653  0.00  0.00    +0.153 C 
ATOM     27  O   LIG    1        0.927   0.088  -2.882  0.00  0.00    -0.368 OA
ATOM     28  C   LIG    1       -0.303   0.535  -2.364  0.00  0.00    +0.151 C 
BRANCH  26  29
ATOM     29  C   LIG    1       -0.370   0.488  -5.024  0.00  0.00    +0.046 C 
ATOM     30  C   LIG    1        0.126   1.953  -5.056  0.00  0.00    +0.013 C 
BRANCH  29  31
ATOM     31  C   LIG    1       -1.804   0.348  -5.608  0.00  0.00    +0.120 C 
BRANCH  31  33
ATOM     32  C   LIG    1       -4.327   0.878  -5.338  0.00  0.00    +0.006 C 
ATOM     33  C   LIG    1       -2.925   0.925  -4.707  0.00  0.00    +0.028 C 
ENDBRANCH  31  33
BRANCH  31  34
ATOM     34  O   LIG    1       -2.072  -1.016  -5.887  0.00  0.00    -0.391 OA
ATOM     35  H   LIG    1       -2.075  -1.501  -5.059  0.00  0.00    +0.210 HD
ENDBRANCH  31  34
ENDBRANCH  29  31
ENDBRANCH  26  29
ENDBRANCH  25  28
ENDBRANCH  21  25
ENDBRANCH  19  21
ENDBRANCH  16  20
ENDBRANCH   1  17
BRANCH   6  36
ATOM     36  O   LIG    1        9.908  -3.997  -3.238  0.00  0.00    -0.391 OA
ATOM     37  H   LIG    1        9.554  -4.442  -2.464  0.00  0.00    +0.210 HD
ENDBRANCH   6  36
BRANCH   9  38
ATOM     38  O   LIG    1       10.408   1.631  -0.742  0.00  0.00    -0.385 OA
ATOM     39  H   LIG    1       10.789   1.946  -1.565  0.00  0.00    +0.210 HD
ENDBRANCH   9  38
BRANCH  11  40
ATOM     40  O   LIG    1       10.635   0.445   1.834  0.00  0.00    -0.440 OA
BRANCH  40  41
ATOM     41  C   LIG    1       10.624  -0.032   3.112  0.00  0.00    +0.403 C 
ATOM     42  N   LIG    1       11.097   0.927   4.031  0.00  0.00    -0.271 N 
ATOM     43  C   LIG    1       11.124   2.362   3.680  0.00  0.00    +0.092 C 
ATOM     44  C   LIG    1        9.756   2.962   4.090  0.00  0.00    -0.059 C 
ATOM     45  N   LIG    1        9.495   2.765   5.609  0.00  0.00    +0.384 N 
ATOM     46  H   LIG    1        8.541   3.051   5.782  0.00  0.00    -0.081 HD
ATOM     47  C   LIG    1        9.579   1.244   5.925  0.00  0.00    -0.059 C 
ATOM     48  C   LIG    1       10.932   0.634   5.465  0.00  0.00    +0.092 C 
ATOM     49  O   LIG    1       10.245  -1.170   3.403  0.00  0.00    -0.226 OA
BRANCH  45  50
ATOM     50  C   LIG    1       10.376   3.648   6.554  0.00  0.00    -0.068 C 
ATOM     51  C   LIG    1       10.394   5.144   6.130  0.00  0.00    -0.015 C 
ATOM     52  C   LIG    1        9.046   5.891   6.061  0.00  0.00    -0.002 C 
ATOM     53  C   LIG    1        8.199   5.891   7.348  0.00  0.00    -0.000 C 
ATOM     54  C   LIG    1        7.566   4.529   7.684  0.00  0.00    -0.000 C 
ATOM     55  C   LIG    1        8.467   3.515   8.418  0.00  0.00    -0.002 C 
ATOM     56  C   LIG    1        9.967   3.466   8.043  0.00  0.00    -0.015 C 
ENDBRANCH  45  50
ENDBRANCH  40  41
ENDBRANCH  11  40
TORSDOF 15
