REMARK  Name = DB12751
REMARK                            x       y       z     vdW  Elec       q    Type
REMARK                         _______ _______ _______ _____ _____    ______ ____
ROOT
ATOM      1  C   LIG    1       -0.091  -0.023   0.059  0.00  0.00    +0.233 C 
ENDROOT
BRANCH   1   2
ATOM      2  C   LIG    1       -0.586  -0.767  -1.221  0.00  0.00    +0.334 C 
ATOM      3  O   LIG    1       -0.300  -1.984  -1.311  0.00  0.00    -0.248 OA
BRANCH   2   4
ATOM      4  O   LIG    1       -1.248  -0.153  -2.094  0.00  0.00    -0.479 OA
ATOM      5  H   LIG    1       -1.438   0.758  -1.983  0.00  0.00    +0.295 HD
ENDBRANCH   2   4
ENDBRANCH   1   2
BRANCH   1   6
ATOM      6  O   LIG    1       -0.707   1.258   0.192  0.00  0.00    -0.380 OA
ATOM      7  H   LIG    1       -1.185   1.440  -0.621  0.00  0.00    +0.211 HD
ENDBRANCH   1   6
BRANCH   1   8
ATOM      8  C   LIG    1        1.466   0.131   0.035  0.00  0.00    +0.163 C 
BRANCH   8   9
ATOM      9  C   LIG    1        2.098   0.711   1.326  0.00  0.00    +0.308 C 
ATOM     10  O   LIG    1        1.559   0.478   2.433  0.00  0.00    -0.251 OA
BRANCH   9  11
ATOM     11  O   LIG    1        3.165   1.352   1.190  0.00  0.00    -0.481 OA
ATOM     12  H   LIG    1        3.520   1.494   0.334  0.00  0.00    +0.295 HD
ENDBRANCH   9  11
ENDBRANCH   8   9
ENDBRANCH   1   8
TORSDOF 6
