REMARK  Name = DB12125
REMARK                            x       y       z     vdW  Elec       q    Type
REMARK                         _______ _______ _______ _____ _____    ______ ____
ROOT
ATOM      1  C   LIG    1       -2.599  -0.385  -2.836  0.00  0.00    +0.023 A 
ATOM      2  C   LIG    1       -3.306  -0.880  -1.740  0.00  0.00    +0.111 A 
ATOM      3  N   LIG    1       -2.725  -1.130  -0.539  0.00  0.00    -0.256 NA
ATOM      4  C   LIG    1       -1.389  -0.913  -0.401  0.00  0.00    +0.083 A 
ATOM      5  C   LIG    1       -0.728  -1.192   0.940  0.00  0.00    +0.067 C 
ATOM      6  C   LIG    1        0.500  -0.277   1.133  0.00  0.00    -0.003 C 
ATOM      7  C   LIG    1        1.396  -0.397  -0.150  0.00  0.00    +0.176 C 
ATOM      8  O   LIG    1        0.693   0.026  -1.329  0.00  0.00    -0.487 OA
ATOM      9  C   LIG    1        2.680   0.466  -0.043  0.00  0.00    +0.026 C 
ATOM     10  C   LIG    1        2.451   1.859   0.604  0.00  0.00    -0.075 C 
ATOM     11  N   LIG    1        1.505   1.759   1.829  0.00  0.00    +0.380 N 
ATOM     12  H   LIG    1        1.394   2.668   2.258  0.00  0.00    -0.082 HD
ATOM     13  C   LIG    1        1.954   0.711   2.872  0.00  0.00    -0.078 C 
ATOM     14  C   LIG    1        0.146   1.201   1.372  0.00  0.00    -0.068 C 
ATOM     15  C   LIG    1        1.295  -0.608   2.416  0.00  0.00    -0.010 C 
ATOM     16  C   LIG    1       -0.624  -0.379  -1.456  0.00  0.00    +0.142 A 
ATOM     17  C   LIG    1       -1.238  -0.122  -2.684  0.00  0.00    +0.049 A 
ENDROOT
TORSDOF 0
