REMARK  Name = DB12635
REMARK                            x       y       z     vdW  Elec       q    Type
REMARK                         _______ _______ _______ _____ _____    ______ ____
ROOT
ATOM      1  C   LIG    1       -2.961   2.733  -0.153  0.00  0.00    -0.017 A 
ATOM      2  C   LIG    1       -3.222   1.376   0.082  0.00  0.00    +0.019 A 
ATOM      3  C   LIG    1       -2.167   0.451   0.182  0.00  0.00    +0.011 A 
ATOM      4  C   LIG    1       -2.091  -0.972   0.402  0.00  0.00    +0.054 A 
ATOM      5  C   LIG    1       -0.742  -1.283   0.385  0.00  0.00    +0.099 A 
ATOM      6  N   LIG    1        0.018  -0.155   0.195  0.00  0.00    -0.342 N 
ATOM      7  C   LIG    1       -0.829   0.932   0.043  0.00  0.00    +0.050 A 
ATOM      8  C   LIG    1       -0.549   2.281  -0.197  0.00  0.00    +0.027 A 
ATOM      9  C   LIG    1       -1.632   3.152  -0.289  0.00  0.00    +0.010 A 
ENDROOT
BRANCH   1  13
ATOM     10  C   LIG    1       -7.563   4.262   1.246  0.00  0.00    +0.044 C 
ATOM     11  C   LIG    1       -6.309   4.471   0.417  0.00  0.00    -0.050 A 
ATOM     12  C   LIG    1       -5.255   3.556   0.504  0.00  0.00    +0.012 A 
ATOM     13  C   LIG    1       -4.085   3.716  -0.254  0.00  0.00    -0.018 A 
ATOM     14  C   LIG    1       -4.003   4.825  -1.110  0.00  0.00    +0.008 A 
ATOM     15  C   LIG    1       -5.050   5.741  -1.206  0.00  0.00    +0.001 A 
ATOM     16  C   LIG    1       -6.203   5.564  -0.444  0.00  0.00    +0.003 A 
ENDBRANCH   1  13
BRANCH   4  17
ATOM     17  C   LIG    1       -3.219  -1.894   0.594  0.00  0.00    +0.271 C 
ATOM     18  O   LIG    1       -4.399  -1.532   0.595  0.00  0.00    -0.280 OA
BRANCH  17  19
ATOM     19  C   LIG    1       -2.963  -3.360   0.803  0.00  0.00    +0.378 C 
ATOM     20  O   LIG    1       -2.904  -4.056  -0.237  0.00  0.00    -0.241 OA
BRANCH  19  21
ATOM     21  O   LIG    1       -2.817  -3.722   1.994  0.00  0.00    -0.475 OA
ATOM     22  H   LIG    1       -2.886  -3.094   2.686  0.00  0.00    +0.296 HD
ENDBRANCH  19  21
ENDBRANCH  17  19
ENDBRANCH   4  17
BRANCH   6  23
ATOM     23  C   LIG    1        1.473  -0.140   0.083  0.00  0.00    +0.157 C 
BRANCH  23  24
ATOM     24  C   LIG    1        1.970  -0.045  -1.354  0.00  0.00    -0.028 A 
ATOM     25  C   LIG    1        2.665   1.086  -1.782  0.00  0.00    +0.005 A 
ATOM     26  C   LIG    1        3.119   1.168  -3.095  0.00  0.00    +0.004 A 
ATOM     27  C   LIG    1        2.891   0.124  -4.005  0.00  0.00    -0.042 A 
ATOM     28  C   LIG    1        2.191  -1.008  -3.558  0.00  0.00    +0.004 A 
ATOM     29  C   LIG    1        1.736  -1.092  -2.245  0.00  0.00    +0.005 A 
BRANCH  27  30
ATOM     30  C   LIG    1        3.414   0.255  -5.458  0.00  0.00    -0.013 C 
ATOM     31  C   LIG    1        4.957   0.397  -5.444  0.00  0.00    +0.015 C 
ATOM     32  C   LIG    1        3.066  -0.966  -6.350  0.00  0.00    +0.015 C 
ATOM     33  C   LIG    1        2.794   1.507  -6.127  0.00  0.00    +0.015 C 
ENDBRANCH  27  30
ENDBRANCH  23  24
ENDBRANCH   6  23
TORSDOF 7
