REMARK  Name = DB12731
REMARK                            x       y       z     vdW  Elec       q    Type
REMARK                         _______ _______ _______ _____ _____    ______ ____
ROOT
ATOM      1  C   LIG    1       -0.603   1.368   0.194  0.00  0.00    +0.004 C 
ENDROOT
BRANCH   1   6
ATOM      2  C   LIG    1       -4.856   3.243   2.266  0.00  0.00    +0.247 C 
ATOM      3  N   LIG    1       -4.689   2.497   1.135  0.00  0.00    -0.298 N 
ATOM      4  C   LIG    1       -4.421   1.043   1.195  0.00  0.00    +0.108 C 
ATOM      5  C   LIG    1       -2.888   0.860   1.315  0.00  0.00    +0.022 C 
ATOM      6  C   LIG    1       -2.141   1.512   0.124  0.00  0.00    -0.008 C 
ATOM      7  C   LIG    1       -2.577   2.992   0.006  0.00  0.00    +0.022 C 
ATOM      8  C   LIG    1       -4.118   3.132  -0.073  0.00  0.00    +0.108 C 
ATOM      9  O   LIG    1       -4.511   4.426   2.339  0.00  0.00    -0.270 OA
BRANCH   2  13
ATOM     10  C   LIG    1       -6.757   1.534   5.731  0.00  0.00    +0.000 A 
ATOM     11  C   LIG    1       -5.668   2.387   5.884  0.00  0.00    +0.001 A 
ATOM     12  C   LIG    1       -5.055   2.932   4.759  0.00  0.00    +0.013 A 
ATOM     13  C   LIG    1       -5.517   2.615   3.475  0.00  0.00    +0.037 A 
ATOM     14  C   LIG    1       -6.629   1.770   3.337  0.00  0.00    +0.013 A 
ATOM     15  C   LIG    1       -7.242   1.225   4.463  0.00  0.00    +0.001 A 
ENDBRANCH   2  13
ENDBRANCH   1   6
BRANCH   1  16
ATOM     16  C   LIG    1       -0.096  -0.086   0.124  0.00  0.00    +0.002 C 
BRANCH  16  17
ATOM     17  C   LIG    1        1.441  -0.188   0.065  0.00  0.00    +0.019 C 
BRANCH  17  18
ATOM     18  C   LIG    1        1.986  -1.627  -0.059  0.00  0.00    +0.104 C 
BRANCH  18  19
ATOM     19  N   LIG    1        1.743  -2.455   1.125  0.00  0.00    -0.312 N 
ATOM     20  H   LIG    1        2.450  -2.414   1.844  0.00  0.00    +0.149 HD
ATOM     21  C   LIG    1        0.690  -3.270   1.317  0.00  0.00    +0.237 C 
ATOM     22  O   LIG    1       -0.217  -3.415   0.493  0.00  0.00    -0.271 OA
BRANCH  21  23
ATOM     23  C   LIG    1        0.727  -3.948   2.592  0.00  0.00    +0.068 C 
ATOM     24  C   LIG    1       -0.251  -4.785   3.001  0.00  0.00    +0.014 C 
BRANCH  24  25
ATOM     25  C   LIG    1       -0.283  -5.522   4.281  0.00  0.00    -0.007 A 
ATOM     26  C   LIG    1        0.843  -5.673   5.105  0.00  0.00    +0.118 A 
ATOM     27  N   LIG    1        0.820  -6.341   6.287  0.00  0.00    -0.263 NA
ATOM     28  C   LIG    1       -0.358  -6.885   6.683  0.00  0.00    +0.111 A 
ATOM     29  C   LIG    1       -1.529  -6.784   5.932  0.00  0.00    +0.020 A 
ATOM     30  C   LIG    1       -1.484  -6.093   4.720  0.00  0.00    +0.011 A 
ENDBRANCH  24  25
ENDBRANCH  21  23
ENDBRANCH  18  19
ENDBRANCH  17  18
ENDBRANCH  16  17
ENDBRANCH   1  16
TORSDOF 8
