REMARK  Name = DB12778
REMARK                            x       y       z     vdW  Elec       q    Type
REMARK                         _______ _______ _______ _____ _____    ______ ____
ROOT
ATOM      1  C   LIG    1       -2.758   1.561   2.048  0.00  0.00    +0.105 C 
ATOM      2  C   LIG    1       -3.775   1.129   0.949  0.00  0.00    +0.170 C 
ATOM      3  C   LIG    1       -3.284   1.561  -0.454  0.00  0.00    +0.153 C 
ATOM      4  C   LIG    1       -1.907   0.926  -0.747  0.00  0.00    +0.047 C 
ATOM      5  C   LIG    1       -0.883   1.413   0.303  0.00  0.00    +0.079 C 
ATOM      6  C   LIG    1       -1.338   1.013   1.733  0.00  0.00    +0.037 C 
ENDROOT
BRANCH   1   8
ATOM      7  C   LIG    1       -2.730   1.797   4.556  0.00  0.00    +0.261 C 
ATOM      8  N   LIG    1       -3.203   1.262   3.412  0.00  0.00    -0.305 N 
ATOM      9  H   LIG    1       -3.926   0.562   3.485  0.00  0.00    +0.149 HD
ATOM     10  O   LIG    1       -1.827   2.637   4.563  0.00  0.00    -0.269 OA
BRANCH   7  15
ATOM     11  C   LIG    1       -3.574   1.731   8.150  0.00  0.00    +0.327 A 
ATOM     12  O   LIG    1       -3.309   2.370   9.165  0.00  0.00    -0.247 OA
ATOM     13  N   LIG    1       -3.072   2.039   6.919  0.00  0.00    -0.303 N 
ATOM     14  H   LIG    1       -2.460   2.841   6.870  0.00  0.00    +0.171 HD
ATOM     15  C   LIG    1       -3.365   1.322   5.782  0.00  0.00    +0.111 A 
ATOM     16  C   LIG    1       -4.192   0.242   5.845  0.00  0.00    +0.101 A 
ATOM     17  C   LIG    1       -4.782  -0.163   7.110  0.00  0.00    +0.255 A 
ATOM     18  O   LIG    1       -5.542  -1.119   7.243  0.00  0.00    -0.268 OA
ATOM     19  N   LIG    1       -4.401   0.638   8.148  0.00  0.00    -0.275 N 
ATOM     20  H   LIG    1       -4.787   0.390   9.047  0.00  0.00    +0.173 HD
ENDBRANCH   7  15
ENDBRANCH   1   8
BRANCH   5  21
ATOM     21  C   LIG    1        0.477   0.745   0.007  0.00  0.00    +0.216 C 
ATOM     22  N   LIG    1        1.467   1.558  -0.400  0.00  0.00    -0.314 N 
ATOM     23  H   LIG    1        1.266   2.541  -0.515  0.00  0.00    +0.149 HD
ATOM     24  O   LIG    1        0.620  -0.473   0.141  0.00  0.00    -0.276 OA
BRANCH  22  25
ATOM     25  C   LIG    1        2.828   1.133  -0.723  0.00  0.00    +0.123 C 
BRANCH  25  26
ATOM     26  C   LIG    1        2.989   0.327  -2.035  0.00  0.00    +0.123 C 
BRANCH  26  27
ATOM     27  N   LIG    1        2.845   1.135  -3.249  0.00  0.00    -0.312 N 
ATOM     28  H   LIG    1        3.697   1.532  -3.619  0.00  0.00    +0.149 HD
ATOM     29  C   LIG    1        1.693   1.393  -3.896  0.00  0.00    +0.239 C 
ATOM     30  O   LIG    1        0.603   0.936  -3.547  0.00  0.00    -0.273 OA
BRANCH  29  31
ATOM     31  C   LIG    1        1.816   2.315  -5.115  0.00  0.00    +0.255 C 
BRANCH  31  32
ATOM     32  O   LIG    1        0.524   2.576  -5.650  0.00  0.00    -0.368 OA
BRANCH  32  33
ATOM     33  C   LIG    1        0.538   3.424  -6.790  0.00  0.00    +0.188 C 
BRANCH  33  34
ATOM     34  C   LIG    1       -0.896   3.623  -7.293  0.00  0.00    +0.188 C 
BRANCH  34  35
ATOM     35  O   LIG    1       -1.664   4.265  -6.285  0.00  0.00    -0.368 OA
BRANCH  35  36
ATOM     36  C   LIG    1       -3.046   4.372  -6.608  0.00  0.00    +0.255 C 
BRANCH  36  37
ATOM     37  C   LIG    1       -3.821   5.091  -5.492  0.00  0.00    +0.243 C 
ATOM     38  N   LIG    1       -3.138   5.477  -4.388  0.00  0.00    -0.283 N 
ATOM     39  H   LIG    1       -2.155   5.242  -4.369  0.00  0.00    +0.155 HD
ATOM     40  O   LIG    1       -5.033   5.241  -5.647  0.00  0.00    -0.273 OA
BRANCH  38  41
ATOM     41  C   LIG    1       -3.606   6.128  -3.228  0.00  0.00    +0.045 A 
ATOM     42  C   LIG    1       -4.705   6.997  -3.329  0.00  0.00    +0.053 A 
ATOM     43  C   LIG    1       -5.263   7.614  -2.219  0.00  0.00    +0.119 A 
ATOM     44  C   LIG    1       -4.718   7.388  -0.968  0.00  0.00    +0.038 A 
ATOM     45  C   LIG    1       -3.569   6.584  -0.810  0.00  0.00    -0.010 A 
ATOM     46  C   LIG    1       -3.047   6.420   0.491  0.00  0.00    +0.038 A 
ATOM     47  C   LIG    1       -1.896   5.686   0.708  0.00  0.00    +0.119 A 
ATOM     48  C   LIG    1       -1.230   5.127  -0.371  0.00  0.00    +0.059 A 
ATOM     49  C   LIG    1       -1.706   5.221  -1.684  0.00  0.00    +0.128 A 
ATOM     50  C   LIG    1       -2.940   5.957  -1.946  0.00  0.00    +0.031 A 
BRANCH  47  51
ATOM     51  S   LIG    1       -1.250   5.518   2.373  0.00  0.00    +0.110 S 
ATOM     52  O   LIG    1       -0.403   4.322   2.305  0.00  0.00    -0.142 OA
ATOM     53  O   LIG    1       -2.462   5.373   3.188  0.00  0.00    -0.142 OA
BRANCH  51  54
ATOM     54  O   LIG    1       -0.528   6.783   2.552  0.00  0.00    -0.250 OA
ATOM     55  H   LIG    1       -1.163   7.515   2.586  0.00  0.00    +0.245 HD
ENDBRANCH  51  54
ENDBRANCH  47  51
BRANCH  43  56
ATOM     56  S   LIG    1       -6.662   8.729  -2.377  0.00  0.00    +0.110 S 
ATOM     57  O   LIG    1       -7.505   8.370  -1.230  0.00  0.00    -0.142 OA
ATOM     58  O   LIG    1       -7.233   8.409  -3.690  0.00  0.00    -0.142 OA
BRANCH  56  59
ATOM     59  O   LIG    1       -6.016  10.043  -2.285  0.00  0.00    -0.250 OA
ATOM     60  H   LIG    1       -5.482  10.197  -3.080  0.00  0.00    +0.245 HD
ENDBRANCH  56  59
ENDBRANCH  43  56
BRANCH  49  61
ATOM     61  S   LIG    1       -0.664   4.418  -2.943  0.00  0.00    +0.110 S 
ATOM     62  O   LIG    1       -0.389   5.507  -3.888  0.00  0.00    -0.142 OA
ATOM     63  O   LIG    1       -1.529   3.340  -3.434  0.00  0.00    -0.142 OA
BRANCH  61  64
ATOM     64  O   LIG    1        0.526   3.952  -2.223  0.00  0.00    -0.250 OA
ATOM     65  H   LIG    1        0.278   3.236  -1.617  0.00  0.00    +0.245 HD
ENDBRANCH  61  64
ENDBRANCH  49  61
ENDBRANCH  38  41
ENDBRANCH  36  37
ENDBRANCH  35  36
ENDBRANCH  34  35
ENDBRANCH  33  34
ENDBRANCH  32  33
ENDBRANCH  31  32
ENDBRANCH  29  31
ENDBRANCH  26  27
ENDBRANCH  25  26
ENDBRANCH  22  25
ENDBRANCH   5  21
BRANCH   3  66
ATOM     66  O   LIG    1       -4.182   1.082  -1.446  0.00  0.00    -0.342 OA
BRANCH  66  67
ATOM     67  C   LIG    1       -4.688   1.996  -2.371  0.00  0.00    +0.295 C 
ATOM     68  O   LIG    1       -5.783   2.682  -1.810  0.00  0.00    -0.340 OA
ATOM     69  C   LIG    1       -6.441   3.579  -2.713  0.00  0.00    +0.178 C 
ATOM     70  C   LIG    1       -7.066   2.764  -3.873  0.00  0.00    +0.178 C 
ATOM     71  C   LIG    1       -5.956   1.973  -4.584  0.00  0.00    +0.196 C 
ATOM     72  C   LIG    1       -5.128   1.145  -3.578  0.00  0.00    +0.264 C 
BRANCH  70  73
ATOM     73  O   LIG    1       -8.112   1.917  -3.419  0.00  0.00    -0.386 OA
ATOM     74  H   LIG    1       -8.503   1.491  -4.185  0.00  0.00    +0.210 HD
ENDBRANCH  70  73
BRANCH  71  75
ATOM     75  O   LIG    1       -6.529   1.132  -5.592  0.00  0.00    -0.356 OA
BRANCH  75  76
ATOM     76  C   LIG    1       -5.792   0.970  -6.814  0.00  0.00    +0.227 C 
BRANCH  76  77
ATOM     77  C   LIG    1       -6.126   2.133  -7.794  0.00  0.00    +0.334 C 
ATOM     78  O   LIG    1       -5.260   2.426  -8.650  0.00  0.00    -0.248 OA
BRANCH  77  79
ATOM     79  O   LIG    1       -7.232   2.715  -7.691  0.00  0.00    -0.479 OA
ATOM     80  H   LIG    1       -7.447   3.417  -8.274  0.00  0.00    +0.295 HD
ENDBRANCH  77  79
ENDBRANCH  76  77
BRANCH  76  81
ATOM     81  C   LIG    1       -6.183  -0.416  -7.391  0.00  0.00    +0.046 C 
BRANCH  81  82
ATOM     82  C   LIG    1       -5.375  -0.934  -8.612  0.00  0.00    -0.008 C 
ATOM     83  C   LIG    1       -3.859  -1.076  -8.323  0.00  0.00    +0.003 C 
ATOM     84  C   LIG    1       -3.081  -1.557  -9.564  0.00  0.00    +0.000 C 
ATOM     85  C   LIG    1       -3.656  -2.876 -10.122  0.00  0.00    +0.000 C 
ATOM     86  C   LIG    1       -5.181  -2.800 -10.349  0.00  0.00    +0.000 C 
ATOM     87  C   LIG    1       -5.916  -2.303  -9.087  0.00  0.00    +0.003 C 
ENDBRANCH  81  82
ENDBRANCH  76  81
ENDBRANCH  75  76
ENDBRANCH  71  75
BRANCH  69  88
ATOM     88  C   LIG    1       -7.452   4.442  -1.930  0.00  0.00    +0.190 C 
BRANCH  88  89
ATOM     89  O   LIG    1       -8.044   5.420  -2.760  0.00  0.00    -0.392 OA
ATOM     90  H   LIG    1       -8.599   4.979  -3.408  0.00  0.00    +0.210 HD
ENDBRANCH  88  89
ENDBRANCH  69  88
BRANCH  72  91
ATOM     91  O   LIG    1       -3.980   0.608  -4.234  0.00  0.00    -0.450 OA
BRANCH  91  92
ATOM     92  C   LIG    1       -3.491  -0.634  -3.987  0.00  0.00    +0.340 C 
ATOM     93  O   LIG    1       -3.991  -1.417  -3.174  0.00  0.00    -0.245 OA
BRANCH  92  94
ATOM     94  C   LIG    1       -2.300  -0.968  -4.836  0.00  0.00    +0.059 A 
ATOM     95  C   LIG    1       -1.765  -2.263  -4.787  0.00  0.00    +0.015 A 
ATOM     96  C   LIG    1       -0.668  -2.605  -5.573  0.00  0.00    +0.001 A 
ATOM     97  C   LIG    1       -0.098  -1.654  -6.415  0.00  0.00    +0.000 A 
ATOM     98  C   LIG    1       -0.614  -0.363  -6.474  0.00  0.00    +0.001 A 
ATOM     99  C   LIG    1       -1.706  -0.018  -5.684  0.00  0.00    +0.015 A 
ENDBRANCH  92  94
ENDBRANCH  91  92
ENDBRANCH  72  91
ENDBRANCH  66  67
ENDBRANCH   3  66
BRANCH   2 100
ATOM    100  O   LIG    1       -5.077   1.682   1.177  0.00  0.00    -0.341 OA
BRANCH 100 101
ATOM    101  C   LIG    1       -5.999   0.887   1.882  0.00  0.00    +0.282 C 
ATOM    102  O   LIG    1       -6.410  -0.247   1.151  0.00  0.00    -0.343 OA
ATOM    103  C   LIG    1       -7.155   0.033  -0.042  0.00  0.00    +0.149 C 
ATOM    104  C   LIG    1       -7.404  -1.278  -0.806  0.00  0.00    +0.041 C 
ATOM    105  C   LIG    1       -8.437   0.843   0.259  0.00  0.00    +0.174 C 
ATOM    106  C   LIG    1       -8.066   2.111   1.057  0.00  0.00    +0.179 C 
ATOM    107  C   LIG    1       -7.203   1.758   2.289  0.00  0.00    +0.201 C 
BRANCH 106 108
ATOM    108  O   LIG    1       -9.211   2.879   1.394  0.00  0.00    -0.386 OA
ATOM    109  H   LIG    1       -9.758   2.363   1.990  0.00  0.00    +0.210 HD
ENDBRANCH 106 108
BRANCH 107 110
ATOM    110  O   LIG    1       -6.790   2.903   3.015  0.00  0.00    -0.384 OA
ATOM    111  H   LIG    1       -6.325   2.618   3.804  0.00  0.00    +0.210 HD
ENDBRANCH 107 110
BRANCH 105 112
ATOM    112  O   LIG    1       -9.421   0.057   0.915  0.00  0.00    -0.387 OA
ATOM    113  H   LIG    1      -10.244   0.551   0.930  0.00  0.00    +0.210 HD
ENDBRANCH 105 112
ENDBRANCH 100 101
ENDBRANCH   2 100
TORSDOF 39
