REMARK  Name = DB12154
REMARK                            x       y       z     vdW  Elec       q    Type
REMARK                         _______ _______ _______ _____ _____    ______ ____
ROOT
ATOM      1  C   LIG    1       -1.838   0.665  -1.120  0.00  0.00    +0.101 C 
ATOM      2  C   LIG    1       -0.733  -0.392  -1.255  0.00  0.00    +0.117 C 
ATOM      3  N   LIG    1       -0.080   0.134  -0.058  0.00  0.00    -0.295 NA
ATOM      4  C   LIG    1       -0.783   1.396  -0.279  0.00  0.00    +0.117 C 
ENDROOT
BRANCH   3   5
ATOM      5  C   LIG    1        1.377   0.107   0.071  0.00  0.00    +0.060 C 
ATOM      6  C   LIG    1        1.844   0.823   1.370  0.00  0.00    +0.038 C 
ATOM      7  C   LIG    1        1.529   0.033   2.662  0.00  0.00    +0.109 C 
ATOM      8  N   LIG    1        2.174  -1.284   2.516  0.00  0.00    -0.297 N 
ATOM      9  C   LIG    1        3.372  -1.603   3.078  0.00  0.00    +0.249 C 
ATOM     10  O   LIG    1        4.034  -2.591   2.754  0.00  0.00    -0.270 OA
ATOM     11  C   LIG    1        1.618  -2.100   1.425  0.00  0.00    +0.109 C 
ATOM     12  C   LIG    1        1.925  -1.348   0.108  0.00  0.00    +0.038 C 
BRANCH   9  13
ATOM     13  C   LIG    1        3.907  -0.708   4.164  0.00  0.00    +0.076 A 
ATOM     14  C   LIG    1        3.311  -0.669   5.436  0.00  0.00    +0.165 A 
ATOM     15  F   LIG    1        2.218  -1.422   5.715  0.00  0.00    -0.203 F 
ATOM     16  C   LIG    1        3.862   0.171   6.415  0.00  0.00    +0.179 A 
ATOM     17  N   LIG    1        4.962   0.938   6.177  0.00  0.00    -0.248 NA
ATOM     18  C   LIG    1        5.536   0.876   4.950  0.00  0.00    +0.112 A 
ATOM     19  C   LIG    1        5.046   0.069   3.924  0.00  0.00    +0.035 A 
BRANCH  16  20
ATOM     20  C   LIG    1        3.244   0.266   7.810  0.00  0.00    +0.437 C 
ATOM     21  F   LIG    1        1.986   0.695   7.710  0.00  0.00    -0.164 F 
ATOM     22  F   LIG    1        3.904   1.103   8.615  0.00  0.00    -0.164 F 
ATOM     23  F   LIG    1        3.240  -0.939   8.381  0.00  0.00    -0.164 F 
ENDBRANCH  16  20
ENDBRANCH   9  13
ENDBRANCH   3   5
BRANCH   1  26
ATOM     24  C   LIG    1       -4.930   0.216   0.774  0.00  0.00    +0.039 A 
ATOM     25  C   LIG    1       -3.810   0.978   0.468  0.00  0.00    +0.119 A 
ATOM     26  N   LIG    1       -3.087   0.270  -0.458  0.00  0.00    -0.261 N 
ATOM     27  N   LIG    1       -3.679  -0.886  -0.781  0.00  0.00    -0.178 NA
ATOM     28  C   LIG    1       -4.761  -0.921  -0.039  0.00  0.00    +0.144 A 
BRANCH  24  31
ATOM     29  C   LIG    1       -5.638   3.073   2.340  0.00  0.00    +0.031 A 
ATOM     30  C   LIG    1       -6.247   1.771   2.343  0.00  0.00    +0.045 A 
ATOM     31  C   LIG    1       -6.041   0.514   1.730  0.00  0.00    +0.086 A 
ATOM     32  N   LIG    1       -6.887  -0.523   1.984  0.00  0.00    -0.235 NA
ATOM     33  C   LIG    1       -7.910  -0.301   2.848  0.00  0.00    +0.224 A 
ATOM     34  N   LIG    1       -8.208   0.848   3.507  0.00  0.00    -0.218 NA
ATOM     35  C   LIG    1       -7.363   1.847   3.228  0.00  0.00    +0.142 A 
ATOM     36  N   LIG    1       -7.408   3.128   3.733  0.00  0.00    -0.346 N 
ATOM     37  H   LIG    1       -8.075   3.511   4.388  0.00  0.00    +0.167 HD
ATOM     38  C   LIG    1       -6.376   3.863   3.202  0.00  0.00    +0.085 A 
ENDBRANCH  24  31
ENDBRANCH   1  26
BRANCH   1  39
ATOM     39  C   LIG    1       -2.124   1.382  -2.459  0.00  0.00    +0.151 C 
BRANCH  39  40
ATOM     40  C   LIG    1       -2.730   0.520  -3.488  0.00  0.00    +0.065 C 
ATOM     41  N   LIG    1       -3.205  -0.158  -4.297  0.00  0.00    -0.196 NA
ENDBRANCH  39  40
ENDBRANCH   1  39
TORSDOF 7
