REMARK  Name = DB12554
REMARK                            x       y       z     vdW  Elec       q    Type
REMARK                         _______ _______ _______ _____ _____    ______ ____
ROOT
ATOM      1  C   LIG    1        0.513   0.082   0.038  0.00  0.00    +0.019 C 
ENDROOT
BRANCH   1   2
ATOM      2  C   LIG    1        0.156   1.576   0.134  0.00  0.00    +0.042 C 
BRANCH   2   3
ATOM      3  C   LIG    1        0.309   2.158   1.548  0.00  0.00    +0.232 C 
BRANCH   3   4
ATOM      4  O   LIG    1       -0.146   3.506   1.559  0.00  0.00    -0.461 OA
BRANCH   4   5
ATOM      5  C   LIG    1       -0.063   4.263   2.683  0.00  0.00    +0.339 C 
ATOM      6  O   LIG    1        0.424   3.859   3.743  0.00  0.00    -0.245 OA
BRANCH   5   7
ATOM      7  C   LIG    1       -0.611   5.650   2.503  0.00  0.00    +0.063 A 
ATOM      8  C   LIG    1       -1.217   6.061   1.307  0.00  0.00    +0.019 A 
ATOM      9  C   LIG    1       -1.723   7.351   1.173  0.00  0.00    +0.050 A 
ATOM     10  C   LIG    1       -1.638   8.270   2.231  0.00  0.00    +0.162 A 
ATOM     11  C   LIG    1       -1.033   7.877   3.433  0.00  0.00    +0.162 A 
ATOM     12  C   LIG    1       -0.528   6.570   3.557  0.00  0.00    +0.064 A 
BRANCH  10  13
ATOM     13  O   LIG    1       -2.123   9.564   2.161  0.00  0.00    -0.491 OA
ATOM     14  C   LIG    1       -2.752  10.014   0.966  0.00  0.00    +0.277 C 
ENDBRANCH  10  13
BRANCH  11  15
ATOM     15  O   LIG    1       -0.972   8.822   4.443  0.00  0.00    -0.491 OA
ATOM     16  C   LIG    1       -0.367   8.485   5.687  0.00  0.00    +0.277 C 
ENDBRANCH  11  15
ENDBRANCH   5   7
ENDBRANCH   4   5
ENDBRANCH   3   4
ENDBRANCH   2   3
ENDBRANCH   1   2
BRANCH   1  17
ATOM     17  C   LIG    1        2.001  -0.222   0.334  0.00  0.00    +0.085 C 
BRANCH  17  18
ATOM     18  N   LIG    1        2.315  -1.658   0.233  0.00  0.00    -0.300 NA
BRANCH  18  19
ATOM     19  C   LIG    1        1.727  -2.369   1.386  0.00  0.00    +0.081 C 
ATOM     20  C   LIG    1        0.907  -3.582   0.919  0.00  0.00    +0.020 C 
ENDBRANCH  18  19
BRANCH  18  21
ATOM     21  C   LIG    1        3.767  -1.920   0.040  0.00  0.00    +0.058 C 
ATOM     22  C   LIG    1        4.106  -3.435   0.060  0.00  0.00    +0.024 C 
BRANCH  21  23
ATOM     23  C   LIG    1        4.329  -1.301  -1.280  0.00  0.00    +0.053 C 
BRANCH  23  24
ATOM     24  C   LIG    1        3.622  -1.715  -2.571  0.00  0.00    -0.046 A 
ATOM     25  C   LIG    1        4.025  -2.868  -3.250  0.00  0.00    +0.007 A 
ATOM     26  C   LIG    1        3.389  -3.243  -4.430  0.00  0.00    +0.046 A 
ATOM     27  C   LIG    1        2.345  -2.463  -4.950  0.00  0.00    +0.120 A 
ATOM     28  C   LIG    1        1.954  -1.309  -4.270  0.00  0.00    +0.046 A 
ATOM     29  C   LIG    1        2.588  -0.933  -3.090  0.00  0.00    +0.007 A 
BRANCH  27  30
ATOM     30  O   LIG    1        1.660  -2.753  -6.115  0.00  0.00    -0.495 OA
ATOM     31  C   LIG    1        2.021  -3.911  -6.862  0.00  0.00    +0.277 C 
ENDBRANCH  27  30
ENDBRANCH  23  24
ENDBRANCH  21  23
ENDBRANCH  18  21
ENDBRANCH  17  18
ENDBRANCH   1  17
TORSDOF 14
