REMARK  Name = DB12463
REMARK                            x       y       z     vdW  Elec       q    Type
REMARK                         _______ _______ _______ _____ _____    ______ ____
ROOT
ATOM      1  C   LIG    1       -0.348   1.511  -0.174  0.00  0.00    +0.234 C 
ATOM      2  N   LIG    1       -1.422   1.621  -0.977  0.00  0.00    -0.299 N 
ATOM      3  H   LIG    1       -1.772   0.787  -1.427  0.00  0.00    +0.150 HD
ATOM      4  O   LIG    1        0.201   2.468   0.376  0.00  0.00    -0.274 OA
ENDROOT
BRANCH   2   5
ATOM      5  C   LIG    1       -2.027   2.892  -1.417  0.00  0.00    +0.190 C 
ATOM      6  C   LIG    1       -3.551   2.645  -1.636  0.00  0.00    +0.240 C 
ATOM      7  O   LIG    1       -4.021   1.507  -1.749  0.00  0.00    -0.273 OA
ATOM      8  N   LIG    1       -4.291   3.788  -1.738  0.00  0.00    -0.302 N 
ATOM      9  C   LIG    1       -5.713   3.694  -2.078  0.00  0.00    +0.132 C 
ATOM     10  C   LIG    1       -3.791   5.127  -1.395  0.00  0.00    +0.112 C 
ATOM     11  C   LIG    1       -2.634   5.726  -2.229  0.00  0.00    +0.054 C 
ATOM     12  C   LIG    1       -1.719   4.825  -3.070  0.00  0.00    -0.040 A 
ATOM     13  C   LIG    1       -1.137   5.361  -4.226  0.00  0.00    +0.004 A 
ATOM     14  C   LIG    1       -0.260   4.619  -5.009  0.00  0.00    +0.000 A 
ATOM     15  C   LIG    1        0.061   3.320  -4.639  0.00  0.00    +0.000 A 
ATOM     16  C   LIG    1       -0.498   2.772  -3.489  0.00  0.00    +0.006 A 
ATOM     17  C   LIG    1       -1.390   3.502  -2.682  0.00  0.00    -0.015 A 
ENDBRANCH   2   5
BRANCH   1  19
ATOM     18  C   LIG    1       -0.278  -0.453   1.433  0.00  0.00    +0.038 C 
ATOM     19  C   LIG    1        0.173   0.083   0.063  0.00  0.00    +0.156 C 
BRANCH  19  20
ATOM     20  N   LIG    1        1.633   0.062  -0.011  0.00  0.00    -0.302 N 
ATOM     21  H   LIG    1        2.092   0.921   0.256  0.00  0.00    +0.150 HD
ATOM     22  C   LIG    1        2.375  -0.976  -0.432  0.00  0.00    +0.242 C 
ATOM     23  O   LIG    1        1.882  -2.053  -0.776  0.00  0.00    -0.273 OA
BRANCH  22  24
ATOM     24  C   LIG    1        3.903  -0.742  -0.470  0.00  0.00    +0.202 C 
BRANCH  24  25
ATOM     25  C   LIG    1        4.418  -0.221  -1.850  0.00  0.00    +0.020 C 
ATOM     26  C   LIG    1        3.762   1.107  -2.295  0.00  0.00    +0.010 C 
ATOM     27  C   LIG    1        5.956  -0.072  -1.884  0.00  0.00    +0.010 C 
ENDBRANCH  24  25
BRANCH  24  28
ATOM     28  O   LIG    1        4.550  -1.965  -0.146  0.00  0.00    -0.382 OA
ATOM     29  H   LIG    1        4.260  -2.243   0.726  0.00  0.00    +0.210 HD
ENDBRANCH  24  28
ENDBRANCH  22  24
ENDBRANCH  19  20
ENDBRANCH   1  19
TORSDOF 6
