REMARK  Name = DB12054
REMARK                            x       y       z     vdW  Elec       q    Type
REMARK                         _______ _______ _______ _____ _____    ______ ____
ROOT
ATOM      1  CA  LEU A  1        1.391   0.026  -0.116  0.00  0.00    +0.159 C 
ATOM      2  N   LEU A  1        1.824   0.584  -1.396  0.00  0.00    -0.302 N 
ATOM      3  H   LEU A  1        1.200   0.440  -2.177  0.00  0.00    +0.150 HD
ATOM      4  C   VAL A  5        3.023   1.149  -1.603  0.00  0.00    +0.234 C 
ATOM      5  O   VAL A  5        3.857   1.354  -0.720  0.00  0.00    -0.274 OA
ATOM      6  CA  VAL A  5        3.350   1.520  -3.064  0.00  0.00    +0.161 C 
ATOM      7  N   VAL A  5        4.483   0.714  -3.521  0.00  0.00    -0.302 N 
ATOM      8  H   VAL A  5        5.386   1.165  -3.498  0.00  0.00    +0.150 HD
ATOM      9  C   PRO A  4        4.411  -0.601  -3.786  0.00  0.00    +0.234 C 
ATOM     10  O   PRO A  4        3.359  -1.243  -3.818  0.00  0.00    -0.274 OA
ATOM     11  CA  PRO A  4        5.756  -1.327  -3.982  0.00  0.00    +0.162 C 
ATOM     12  CB  PRO A  4        5.738  -2.301  -5.181  0.00  0.00    +0.033 C 
ATOM     13  CG  PRO A  4        6.533  -3.510  -4.720  0.00  0.00    +0.021 C 
ATOM     14  CD  PRO A  4        6.222  -3.579  -3.233  0.00  0.00    +0.109 C 
ATOM     15  N   PRO A  4        6.095  -2.180  -2.823  0.00  0.00    -0.288 N 
ATOM     16  C   ASP A  3        6.264  -1.689  -1.569  0.00  0.00    +0.237 C 
ATOM     17  O   ASP A  3        6.359  -0.486  -1.318  0.00  0.00    -0.274 OA
ATOM     18  CA  ASP A  3        6.271  -2.676  -0.381  0.00  0.00    +0.170 C 
ATOM     19  N   ASP A  3        4.989  -2.497   0.298  0.00  0.00    -0.302 N 
ATOM     20  H   ASP A  3        4.660  -1.543   0.351  0.00  0.00    +0.150 HD
ATOM     21  C   TRP A  2        4.255  -3.472   0.861  0.00  0.00    +0.234 C 
ATOM     22  O   TRP A  2        4.561  -4.664   0.845  0.00  0.00    -0.274 OA
ATOM     23  CA  TRP A  2        2.957  -3.056   1.591  0.00  0.00    +0.163 C 
ATOM     24  N   TRP A  2        2.443  -1.734   1.213  0.00  0.00    -0.302 N 
ATOM     25  H   TRP A  2        2.514  -1.020   1.924  0.00  0.00    +0.150 HD
ATOM     26  C   LEU A  1        1.897  -1.419   0.027  0.00  0.00    +0.234 C 
ATOM     27  O   LEU A  1        1.764  -2.208  -0.909  0.00  0.00    -0.274 OA
ENDROOT
BRANCH   6  28
ATOM     28  CB  VAL A  5        3.655   3.044  -3.159  0.00  0.00    +0.012 C 
ATOM     29  CG2 VAL A  5        3.899   3.469  -4.619  0.00  0.00    +0.009 C 
ATOM     30  CG1 VAL A  5        2.566   3.947  -2.539  0.00  0.00    +0.009 C 
ENDBRANCH   6  28
BRANCH   1  31
ATOM     31  CB  LEU A  1       -0.152   0.072  -0.029  0.00  0.00    +0.034 C 
BRANCH  31  33
ATOM     32  CD1 LEU A  1       -0.259   2.365   1.129  0.00  0.00    +0.007 C 
ATOM     33  CG  LEU A  1       -0.759   1.494  -0.044  0.00  0.00    -0.015 C 
ATOM     34  CD2 LEU A  1       -2.301   1.435  -0.109  0.00  0.00    +0.007 C 
ENDBRANCH  31  33
ENDBRANCH   1  31
BRANCH  18  35
ATOM     35  CB  ASP A  3        7.441  -2.424   0.611  0.00  0.00    +0.152 C 
BRANCH  35  36
ATOM     36  CG  ASP A  3        8.880  -2.558   0.075  0.00  0.00    +0.307 C 
ATOM     37  OD1 ASP A  3        9.784  -2.090   0.802  0.00  0.00    -0.251 OA
BRANCH  36  38
ATOM     38  OD2 ASP A  3        9.083  -3.231  -0.961  0.00  0.00    -0.481 OA
ATOM     39  HD2 ASP A  3        8.358  -3.552  -1.461  0.00  0.00    +0.295 HD
ENDBRANCH  36  38
ENDBRANCH  35  36
ENDBRANCH  18  35
BRANCH  23  40
ATOM     40  CB  TRP A  2        3.149  -3.087   3.124  0.00  0.00    +0.069 C 
BRANCH  40  41
ATOM     41  CG  TRP A  2        4.255  -2.232   3.682  0.00  0.00    -0.020 A 
ATOM     42  CD2 TRP A  2        5.633  -2.615   3.981  0.00  0.00    +0.003 A 
ATOM     43  CE3 TRP A  2        6.360  -3.828   3.933  0.00  0.00    +0.010 A 
ATOM     44  CZ3 TRP A  2        7.728  -3.876   4.273  0.00  0.00    +0.001 A 
ATOM     45  CH2 TRP A  2        8.404  -2.706   4.672  0.00  0.00    +0.002 A 
ATOM     46  CZ2 TRP A  2        7.710  -1.484   4.738  0.00  0.00    +0.026 A 
ATOM     47  CE2 TRP A  2        6.346  -1.450   4.396  0.00  0.00    +0.047 A 
ATOM     48  NE1 TRP A  2        5.408  -0.440   4.348  0.00  0.00    -0.360 N 
ATOM     49  HE1 TRP A  2        5.577   0.530   4.572  0.00  0.00    +0.165 HD
ATOM     50  CD1 TRP A  2        4.181  -0.903   3.921  0.00  0.00    +0.087 A 
ENDBRANCH  40  41
ENDBRANCH  23  40
TORSDOF 8
