REMARK  Name = DB12538
REMARK                            x       y       z     vdW  Elec       q    Type
REMARK                         _______ _______ _______ _____ _____    ______ ____
ROOT
ATOM      1  CA  LEU A  1       -0.283   2.650  -2.965  0.00  0.00    +0.159 C 
ATOM      2  N   LEU A  1       -1.558   3.101  -3.519  0.00  0.00    -0.302 N 
ATOM      3  H   LEU A  1       -1.462   3.901  -4.129  0.00  0.00    +0.150 HD
ATOM      4  C   UNK A  6       -2.798   2.591  -3.401  0.00  0.00    +0.235 C 
ATOM      5  O   UNK A  6       -3.716   3.079  -4.060  0.00  0.00    -0.274 OA
ATOM      6  C   UNK A  6       -3.111   1.392  -2.458  0.00  0.00    +0.176 C 
ATOM      7  N   UNK A  6       -4.549   1.467  -2.135  0.00  0.00    -0.301 N 
ATOM      8  H   UNK A  6       -5.109   1.053  -2.865  0.00  0.00    +0.150 HD
ATOM      9  C   PHE A  5       -5.271   2.051  -1.150  0.00  0.00    +0.234 C 
ATOM     10  CA  PHE A  5       -4.685   2.714   0.128  0.00  0.00    +0.163 C 
ATOM     11  N   PHE A  5       -5.106   2.094   1.393  0.00  0.00    -0.302 N 
ATOM     12  H   PHE A  5       -5.439   2.775   2.062  0.00  0.00    +0.150 HD
ATOM     13  C   TRP A  4       -5.018   0.829   1.852  0.00  0.00    +0.234 C 
ATOM     14  CA  TRP A  4       -4.623  -0.337   0.919  0.00  0.00    +0.163 C 
ATOM     15  N   TRP A  4       -3.800  -1.303   1.647  0.00  0.00    -0.302 N 
ATOM     16  H   TRP A  4       -4.297  -1.774   2.389  0.00  0.00    +0.150 HD
ATOM     17  C   UNK A  3       -2.513  -1.650   1.460  0.00  0.00    +0.234 C 
ATOM     18  O   UNK A  3       -1.999  -2.533   2.148  0.00  0.00    -0.274 OA
ATOM     19  C   UNK A  3       -1.644  -0.980   0.361  0.00  0.00    +0.168 C 
ATOM     20  C   UNK A  3       -1.531  -1.843  -0.940  0.00  0.00    +0.127 C 
ATOM     21  C   UNK A  3       -2.873  -2.061  -1.669  0.00  0.00    +0.215 C 
ATOM     22  N   UNK A  3       -3.380  -1.152  -2.526  0.00  0.00    -0.313 N 
ATOM     23  H   UNK A  3       -4.271  -1.401  -2.931  0.00  0.00    +0.149 HD
ATOM     24  O   UNK A  3       -3.520  -3.072  -1.406  0.00  0.00    -0.276 OA
ATOM     25  N   UNK A  3       -0.350  -0.710   0.997  0.00  0.00    -0.302 N 
ATOM     26  H   UNK A  3       -0.248  -1.178   1.887  0.00  0.00    +0.150 HD
ATOM     27  C   UNK A  2        0.627   0.153   0.664  0.00  0.00    +0.234 C 
ATOM     28  O   UNK A  2        1.555   0.387   1.436  0.00  0.00    -0.274 OA
ATOM     29  C   UNK A  2        0.644   0.842  -0.716  0.00  0.00    +0.168 C 
ATOM     30  N   UNK A  2        0.380   2.271  -0.563  0.00  0.00    -0.302 N 
ATOM     31  H   UNK A  2        0.519   2.627   0.373  0.00  0.00    +0.150 HD
ATOM     32  O   TRP A  4       -5.292   0.571   3.023  0.00  0.00    -0.274 OA
ATOM     33  O   PHE A  5       -6.498   2.053  -1.233  0.00  0.00    -0.274 OA
ATOM     34  C   UNK A  6       -2.764   0.033  -3.141  0.00  0.00    +0.136 C 
ATOM     35  C   LEU A  1       -0.091   3.120  -1.499  0.00  0.00    +0.234 C 
ATOM     36  O   LEU A  1       -0.368   4.285  -1.216  0.00  0.00    -0.274 OA
ENDROOT
BRANCH   1  37
ATOM     37  CB  LEU A  1        0.826   3.128  -3.945  0.00  0.00    +0.034 C 
BRANCH  37  39
ATOM     38  CD1 LEU A  1        1.612   5.090  -5.386  0.00  0.00    +0.007 C 
ATOM     39  CG  LEU A  1        1.162   4.644  -3.977  0.00  0.00    -0.015 C 
ATOM     40  CD2 LEU A  1        2.194   5.043  -2.895  0.00  0.00    +0.007 C 
ENDBRANCH  37  39
ENDBRANCH   1  37
BRANCH  10  41
ATOM     41  CB  PHE A  5       -3.191   3.086   0.191  0.00  0.00    +0.067 C 
BRANCH  41  42
ATOM     42  CG  PHE A  5       -2.832   4.130   1.232  0.00  0.00    -0.045 A 
ATOM     43  CD2 PHE A  5       -2.481   3.741   2.543  0.00  0.00    +0.004 A 
ATOM     44  CE2 PHE A  5       -2.233   4.705   3.511  0.00  0.00    +0.000 A 
ATOM     45  CZ  PHE A  5       -2.355   6.054   3.201  0.00  0.00    +0.000 A 
ATOM     46  CE1 PHE A  5       -2.737   6.451   1.926  0.00  0.00    +0.000 A 
ATOM     47  CD1 PHE A  5       -2.991   5.503   0.944  0.00  0.00    +0.004 A 
ENDBRANCH  41  42
ENDBRANCH  10  41
BRANCH  14  48
ATOM     48  CB  TRP A  4       -5.876  -1.074   0.382  0.00  0.00    +0.069 C 
BRANCH  48  49
ATOM     49  CG  TRP A  4       -6.798  -1.721   1.379  0.00  0.00    -0.020 A 
ATOM     50  CD2 TRP A  4       -7.972  -1.153   2.037  0.00  0.00    +0.003 A 
ATOM     51  CE3 TRP A  4       -8.648   0.089   1.965  0.00  0.00    +0.010 A 
ATOM     52  CZ3 TRP A  4       -9.791   0.346   2.751  0.00  0.00    +0.001 A 
ATOM     53  CH2 TRP A  4      -10.287  -0.637   3.630  0.00  0.00    +0.002 A 
ATOM     54  CZ2 TRP A  4       -9.638  -1.882   3.728  0.00  0.00    +0.026 A 
ATOM     55  CE2 TRP A  4       -8.499  -2.126   2.940  0.00  0.00    +0.047 A 
ATOM     56  NE1 TRP A  4       -7.653  -3.207   2.809  0.00  0.00    -0.360 N 
ATOM     57  HE1 TRP A  4       -7.729  -4.079   3.313  0.00  0.00    +0.165 HD
ATOM     58  CD1 TRP A  4       -6.649  -2.962   1.896  0.00  0.00    +0.087 A 
ENDBRANCH  48  49
ENDBRANCH  14  48
BRANCH  29  59
ATOM     59  C   UNK A  2        1.974   0.539  -1.481  0.00  0.00    +0.127 C 
BRANCH  59  60
ATOM     60  C   UNK A  2        1.822  -0.676  -2.406  0.00  0.00    +0.217 C 
ATOM     61  N   UNK A  2        1.991  -1.881  -1.834  0.00  0.00    -0.288 N 
ATOM     62  H   UNK A  2        2.197  -1.911  -0.845  0.00  0.00    +0.151 HD
ATOM     63  O   UNK A  2        1.477  -0.516  -3.577  0.00  0.00    -0.276 OA
BRANCH  61  64
ATOM     64  C   UNK A  2        1.836  -3.153  -2.486  0.00  0.00    +0.229 C 
ATOM     65  O   UNK A  2        0.489  -3.471  -2.718  0.00  0.00    -0.349 OA
ATOM     66  C   UNK A  2        0.290  -4.658  -3.489  0.00  0.00    +0.177 C 
ATOM     67  C   UNK A  2        0.845  -5.875  -2.704  0.00  0.00    +0.176 C 
ATOM     68  C   UNK A  2        2.309  -5.620  -2.282  0.00  0.00    +0.170 C 
ATOM     69  C   UNK A  2        2.485  -4.241  -1.595  0.00  0.00    +0.151 C 
BRANCH  69  70
ATOM     70  N   UNK A  2        3.881  -3.978  -1.203  0.00  0.00    -0.306 N 
ATOM     71  H   UNK A  2        4.585  -4.246  -1.875  0.00  0.00    +0.149 HD
ATOM     72  C   UNK A  2        4.287  -3.424  -0.046  0.00  0.00    +0.210 C 
ATOM     73  C   UNK A  2        5.792  -3.261   0.139  0.00  0.00    +0.109 C 
ATOM     74  O   UNK A  2        3.520  -3.041   0.839  0.00  0.00    -0.276 OA
ENDBRANCH  69  70
BRANCH  67  75
ATOM     75  O   UNK A  2        0.724  -7.084  -3.436  0.00  0.00    -0.387 OA
ATOM     76  H   UNK A  2        1.286  -7.031  -4.213  0.00  0.00    +0.210 HD
ENDBRANCH  67  75
BRANCH  68  77
ATOM     77  O   UNK A  2        2.819  -6.675  -1.483  0.00  0.00    -0.387 OA
ATOM     78  H   UNK A  2        2.303  -6.724  -0.675  0.00  0.00    +0.210 HD
ENDBRANCH  68  77
BRANCH  66  79
ATOM     79  C   UNK A  2       -1.223  -4.734  -3.793  0.00  0.00    +0.190 C 
BRANCH  79  80
ATOM     80  O   UNK A  2       -1.510  -5.650  -4.830  0.00  0.00    -0.392 OA
ATOM     81  H   UNK A  2       -2.460  -5.676  -4.963  0.00  0.00    +0.210 HD
ENDBRANCH  79  80
ENDBRANCH  66  79
ENDBRANCH  61  64
ENDBRANCH  59  60
ENDBRANCH  29  59
TORSDOF 14
