REMARK  Name = DB12809
REMARK                            x       y       z     vdW  Elec       q    Type
REMARK                         _______ _______ _______ _____ _____    ______ ____
ROOT
ATOM      1  C   LIG    1        2.120   0.902  -1.153  0.00  0.00    +0.023 A 
ATOM      2  C   LIG    1        1.370   1.433  -2.223  0.00  0.00    +0.061 A 
ATOM      3  C   LIG    1        2.052   1.858  -3.358  0.00  0.00    +0.167 A 
ATOM      4  O   LIG    1        1.547   2.370  -4.511  0.00  0.00    -0.453 OA
ATOM      5  C   LIG    1        2.658   2.796  -5.254  0.00  0.00    +0.466 C 
ATOM      6  O   LIG    1        3.802   2.222  -4.679  0.00  0.00    -0.453 OA
ATOM      7  C   LIG    1        3.410   1.770  -3.459  0.00  0.00    +0.166 A 
ATOM      8  C   LIG    1        4.188   1.254  -2.431  0.00  0.00    +0.050 A 
ATOM      9  C   LIG    1        3.528   0.828  -1.270  0.00  0.00    +0.015 A 
ENDROOT
BRANCH   1  10
ATOM     10  C   LIG    1        1.452   0.444   0.112  0.00  0.00    +0.180 C 
ATOM     11  O   LIG    1        2.121   0.200   1.121  0.00  0.00    -0.290 OA
BRANCH  10  13
ATOM     12  C   LIG    1       -0.445  -0.974   1.052  0.00  0.00    +0.032 C 
ATOM     13  C   LIG    1       -0.053   0.207   0.140  0.00  0.00    +0.120 C 
BRANCH  13  14
ATOM     14  N   LIG    1       -0.710   1.466   0.522  0.00  0.00    -0.321 NA
ATOM     15  H   LIG    1       -0.457   1.723   1.466  0.00  0.00    +0.119 HD
ATOM     16  H   LIG    1       -1.714   1.357   0.525  0.00  0.00    +0.119 HD
ENDBRANCH  13  14
ENDBRANCH  10  13
ENDBRANCH   1  10
TORSDOF 3
