REMARK  Name = DB12648
REMARK                            x       y       z     vdW  Elec       q    Type
REMARK                         _______ _______ _______ _____ _____    ______ ____
ROOT
ATOM      1  CA  ARG A  5        1.372  -0.195  -0.028  0.00  0.00    +0.159 C 
ENDROOT
BRANCH   1   2
ATOM      2  C   ARG A  5        1.865   0.292  -1.399  0.00  0.00    +0.234 C 
ATOM      3  N   ARG A  6        2.764   1.289  -1.381  0.00  0.00    -0.302 N 
ATOM      4  H   ARG A  6        3.060   1.676  -0.497  0.00  0.00    +0.150 HD
ATOM      5  O   ARG A  5        1.442  -0.246  -2.424  0.00  0.00    -0.274 OA
BRANCH   3   6
ATOM      6  CA  ARG A  6        3.439   1.813  -2.568  0.00  0.00    +0.159 C 
BRANCH   6   7
ATOM      7  C   ARG A  6        4.657   0.938  -2.919  0.00  0.00    +0.234 C 
ATOM      8  N   ARG A  7        4.878   0.732  -4.227  0.00  0.00    -0.302 N 
ATOM      9  H   ARG A  7        4.256   1.141  -4.911  0.00  0.00    +0.150 HD
ATOM     10  O   ARG A  6        5.366   0.492  -2.016  0.00  0.00    -0.274 OA
BRANCH   8  11
ATOM     11  CA  ARG A  7        5.965  -0.081  -4.768  0.00  0.00    +0.159 C 
BRANCH  11  12
ATOM     12  C   ARG A  7        6.425   0.496  -6.114  0.00  0.00    +0.234 C 
ATOM     13  N   ARG A  8        7.754   0.569  -6.293  0.00  0.00    -0.302 N 
ATOM     14  H   ARG A  8        8.369   0.283  -5.544  0.00  0.00    +0.150 HD
ATOM     15  O   ARG A  7        5.586   0.805  -6.963  0.00  0.00    -0.274 OA
BRANCH  13  16
ATOM     16  CA  ARG A  8        8.408   0.865  -7.567  0.00  0.00    +0.159 C 
BRANCH  16  17
ATOM     17  C   ARG A  8        8.596  -0.437  -8.364  0.00  0.00    +0.234 C 
ATOM     18  N   ARG A  9        8.212  -0.395  -9.649  0.00  0.00    -0.301 N 
ATOM     19  H   ARG A  9        7.818   0.458 -10.020  0.00  0.00    +0.150 HD
ATOM     20  O   ARG A  8        9.094  -1.419  -7.814  0.00  0.00    -0.274 OA
BRANCH  18  21
ATOM     21  CA  ARG A  9        8.352  -1.490 -10.610  0.00  0.00    +0.182 C 
BRANCH  21  22
ATOM     22  C   ARG A  9        8.918  -0.962 -11.940  0.00  0.00    +0.325 C 
ATOM     23  O   ARG A  9        9.934  -1.391 -12.447  0.00  0.00    -0.249 OA
BRANCH  22  24
ATOM     24  OXT ARG A  9        8.129   0.033 -12.445  0.00  0.00    -0.479 OA
ATOM     25  HXT ARG A  9        8.470   0.388 -13.269  0.00  0.00    +0.295 HD
ENDBRANCH  22  24
ENDBRANCH  21  22
BRANCH  21  26
ATOM     26  CB  ARG A  9        7.010  -2.235 -10.797  0.00  0.00    +0.037 C 
BRANCH  26  27
ATOM     27  CG  ARG A  9        6.481  -2.900  -9.512  0.00  0.00    +0.039 C 
BRANCH  27  28
ATOM     28  CD  ARG A  9        5.287  -3.840  -9.738  0.00  0.00    +0.196 C 
BRANCH  28  29
ATOM     29  NE  ARG A  9        4.104  -3.121 -10.180  0.00  0.00    -0.276 N 
ATOM     30  HE  ARG A  9        3.549  -2.704  -9.447  0.00  0.00    +0.258 HD
BRANCH  29  31
ATOM     31  CZ  ARG A  9        3.685  -2.912 -11.487  0.00  0.00    +0.376 C 
ATOM     32  NH2 ARG A  9        4.275  -3.343 -12.515  0.00  0.00    -0.130 NA
ATOM     33  HH2 ARG A  9        3.821  -3.085 -13.379  0.00  0.00    +0.306 HD
BRANCH  31  34
ATOM     34  NH1 ARG A  9        2.520  -2.166 -11.530  0.00  0.00    -0.289 N 
ATOM     35 HH11 ARG A  9        1.917  -2.292 -10.730  0.00  0.00    +0.255 HD
ATOM     36 HH12 ARG A  9        1.981  -2.295 -12.374  0.00  0.00    +0.255 HD
ENDBRANCH  31  34
ENDBRANCH  29  31
ENDBRANCH  28  29
ENDBRANCH  27  28
ENDBRANCH  26  27
ENDBRANCH  21  26
ENDBRANCH  18  21
ENDBRANCH  16  17
BRANCH  16  37
ATOM     37  CB  ARG A  8        9.750   1.585  -7.290  0.00  0.00    +0.035 C 
BRANCH  37  38
ATOM     38  CG  ARG A  8       10.645   1.853  -8.520  0.00  0.00    +0.039 C 
BRANCH  38  39
ATOM     39  CD  ARG A  8        9.978   2.692  -9.622  0.00  0.00    +0.196 C 
BRANCH  39  40
ATOM     40  NE  ARG A  8       10.856   2.839 -10.768  0.00  0.00    -0.276 N 
ATOM     41  HE  ARG A  8       11.801   2.506 -10.647  0.00  0.00    +0.258 HD
BRANCH  40  42
ATOM     42  CZ  ARG A  8       10.512   3.323 -12.023  0.00  0.00    +0.376 C 
ATOM     43  NH2 ARG A  8        9.367   3.741 -12.344  0.00  0.00    -0.130 NA
ATOM     44  HH2 ARG A  8        9.307   4.050 -13.304  0.00  0.00    +0.306 HD
BRANCH  42  45
ATOM     45  NH1 ARG A  8       11.588   3.288 -12.892  0.00  0.00    -0.289 N 
ATOM     46 HH11 ARG A  8       12.487   3.378 -12.442  0.00  0.00    +0.255 HD
ATOM     47 HH12 ARG A  8       11.529   3.954 -13.649  0.00  0.00    +0.255 HD
ENDBRANCH  42  45
ENDBRANCH  40  42
ENDBRANCH  39  40
ENDBRANCH  38  39
ENDBRANCH  37  38
ENDBRANCH  16  37
ENDBRANCH  13  16
ENDBRANCH  11  12
BRANCH  11  48
ATOM     48  CB  ARG A  7        5.493  -1.552  -4.880  0.00  0.00    +0.035 C 
BRANCH  48  49
ATOM     49  CG  ARG A  7        6.507  -2.514  -5.529  0.00  0.00    +0.039 C 
BRANCH  49  50
ATOM     50  CD  ARG A  7        6.005  -3.963  -5.577  0.00  0.00    +0.196 C 
BRANCH  50  51
ATOM     51  NE  ARG A  7        6.923  -4.814  -6.312  0.00  0.00    -0.276 N 
ATOM     52  HE  ARG A  7        6.638  -5.056  -7.250  0.00  0.00    +0.258 HD
BRANCH  51  53
ATOM     53  CZ  ARG A  7        8.158  -5.285  -5.889  0.00  0.00    +0.376 C 
ATOM     54  NH2 ARG A  7        8.671  -5.056  -4.759  0.00  0.00    -0.130 NA
ATOM     55  HH2 ARG A  7        9.580  -5.478  -4.638  0.00  0.00    +0.306 HD
BRANCH  53  56
ATOM     56  NH1 ARG A  7        8.770  -6.048  -6.868  0.00  0.00    -0.289 N 
ATOM     57 HH11 ARG A  7        8.128  -6.507  -7.498  0.00  0.00    +0.255 HD
ATOM     58 HH12 ARG A  7        9.429  -6.726  -6.513  0.00  0.00    +0.255 HD
ENDBRANCH  53  56
ENDBRANCH  51  53
ENDBRANCH  50  51
ENDBRANCH  49  50
ENDBRANCH  48  49
ENDBRANCH  11  48
ENDBRANCH   8  11
ENDBRANCH   6   7
BRANCH   6  59
ATOM     59  CB  ARG A  6        3.819   3.287  -2.307  0.00  0.00    +0.033 C 
BRANCH  59  60
ATOM     60  CG  ARG A  6        4.486   3.999  -3.503  0.00  0.00    +0.017 C 
BRANCH  60  61
ATOM     61  CD  ARG A  6        4.743   5.502  -3.278  0.00  0.00    +0.084 C 
BRANCH  61  62
ATOM     62  NE  ARG A  6        5.813   5.763  -2.297  0.00  0.00    -0.283 NA
ATOM     63  HE  ARG A  6        5.506   5.857  -1.339  0.00  0.00    +0.125 HD
BRANCH  62  64
ATOM     64  CZ  ARG A  6        7.138   5.840  -2.536  0.00  0.00    +0.167 C 
BRANCH  64  65
ATOM     65  NH1 ARG A  6        7.659   5.693  -3.765  0.00  0.00    -0.297 NA
ATOM     66 HH11 ARG A  6        7.052   5.522  -4.555  0.00  0.00    +0.121 HD
ATOM     67 HH12 ARG A  6        8.656   5.757  -3.909  0.00  0.00    +0.121 HD
ENDBRANCH  64  65
BRANCH  64  68
ATOM     68  NH2 ARG A  6        7.964   6.071  -1.508  0.00  0.00    -0.297 NA
ATOM     69 HH21 ARG A  6        7.596   6.190  -0.575  0.00  0.00    +0.121 HD
ATOM     70 HH22 ARG A  6        8.961   6.132  -1.660  0.00  0.00    +0.121 HD
ENDBRANCH  64  68
ENDBRANCH  62  64
ENDBRANCH  61  62
ENDBRANCH  60  61
ENDBRANCH  59  60
ENDBRANCH   6  59
ENDBRANCH   3   6
ENDBRANCH   1   2
BRANCH   1  72
ATOM     71  C   ARG A  4       -0.830   0.881   0.355  0.00  0.00    +0.234 C 
ATOM     72  N   ARG A  5       -0.090  -0.180  -0.002  0.00  0.00    -0.302 N 
ATOM     73  H   ARG A  5       -0.545  -1.004  -0.368  0.00  0.00    +0.150 HD
ATOM     74  O   ARG A  4       -0.372   1.931   0.808  0.00  0.00    -0.274 OA
BRANCH  71  75
ATOM     75  CA  ARG A  4       -2.344   0.757   0.107  0.00  0.00    +0.159 C 
BRANCH  75  77
ATOM     76  C   ARG A  3       -3.274   0.669   2.413  0.00  0.00    +0.234 C 
ATOM     77  N   ARG A  4       -3.116   1.286   1.230  0.00  0.00    -0.302 N 
ATOM     78  H   ARG A  4       -3.529   2.196   1.089  0.00  0.00    +0.150 HD
ATOM     79  O   ARG A  3       -2.800  -0.434   2.692  0.00  0.00    -0.274 OA
BRANCH  76  80
ATOM     80  CA  ARG A  3       -4.087   1.440   3.461  0.00  0.00    +0.159 C 
BRANCH  80  82
ATOM     81  C   ARG A  2       -6.254   0.726   4.455  0.00  0.00    +0.234 C 
ATOM     82  N   ARG A  3       -4.959   0.510   4.177  0.00  0.00    -0.302 N 
ATOM     83  H   ARG A  3       -4.535  -0.367   4.445  0.00  0.00    +0.150 HD
ATOM     84  O   ARG A  2       -6.869   1.756   4.175  0.00  0.00    -0.274 OA
BRANCH  81  85
ATOM     85  CA  ARG A  2       -6.991  -0.434   5.151  0.00  0.00    +0.159 C 
BRANCH  85  87
ATOM     86  C   ARG A  1       -7.241   0.525   7.440  0.00  0.00    +0.230 C 
ATOM     87  N   ARG A  2       -7.765   0.029   6.303  0.00  0.00    -0.303 N 
ATOM     88  H   ARG A  2       -8.769  -0.013   6.203  0.00  0.00    +0.149 HD
ATOM     89  O   ARG A  1       -6.030   0.608   7.660  0.00  0.00    -0.274 OA
BRANCH  86  90
ATOM     90  CA  ARG A  1       -8.252   0.997   8.505  0.00  0.00    +0.138 C 
BRANCH  90  91
ATOM     91  N   ARG A  1       -8.176   0.026   9.610  0.00  0.00    -0.320 NA
ATOM     92  H1  ARG A  1       -8.982   0.101  10.214  0.00  0.00    +0.119 HD
ATOM     93  H2  ARG A  1       -7.368   0.204  10.189  0.00  0.00    +0.119 HD
ENDBRANCH  90  91
BRANCH  90  94
ATOM     94  CB  ARG A  1       -7.968   2.449   8.961  0.00  0.00    +0.029 C 
BRANCH  94  95
ATOM     95  CG  ARG A  1       -9.034   3.021   9.913  0.00  0.00    +0.017 C 
BRANCH  95  96
ATOM     96  CD  ARG A  1       -8.768   4.491  10.279  0.00  0.00    +0.084 C 
BRANCH  96  97
ATOM     97  NE  ARG A  1       -9.691   4.982  11.317  0.00  0.00    -0.283 NA
ATOM     98  HE  ARG A  1      -10.562   5.362  10.973  0.00  0.00    +0.125 HD
BRANCH  97  99
ATOM     99  CZ  ARG A  1       -9.518   4.939  12.653  0.00  0.00    +0.167 C 
BRANCH  99 100
ATOM    100  NH2 ARG A  1      -10.480   5.432  13.445  0.00  0.00    -0.297 NA
ATOM    101 HH21 ARG A  1      -11.317   5.829  13.042  0.00  0.00    +0.121 HD
ATOM    102 HH22 ARG A  1      -10.373   5.412  14.449  0.00  0.00    +0.121 HD
ENDBRANCH  99 100
BRANCH  99 103
ATOM    103  NH1 ARG A  1       -8.417   4.421  13.221  0.00  0.00    -0.297 NA
ATOM    104 HH11 ARG A  1       -7.679   4.045  12.643  0.00  0.00    +0.121 HD
ATOM    105 HH12 ARG A  1       -8.320   4.406  14.227  0.00  0.00    +0.121 HD
ENDBRANCH  99 103
ENDBRANCH  97  99
ENDBRANCH  96  97
ENDBRANCH  95  96
ENDBRANCH  94  95
ENDBRANCH  90  94
ENDBRANCH  86  90
ENDBRANCH  85  87
BRANCH  85 106
ATOM    106  CB  ARG A  2       -7.937  -1.187   4.188  0.00  0.00    +0.033 C 
BRANCH 106 107
ATOM    107  CG  ARG A  2       -7.268  -1.725   2.909  0.00  0.00    +0.017 C 
BRANCH 107 108
ATOM    108  CD  ARG A  2       -8.235  -2.529   2.025  0.00  0.00    +0.084 C 
BRANCH 108 109
ATOM    109  NE  ARG A  2       -7.542  -3.169   0.893  0.00  0.00    -0.283 NA
ATOM    110  HE  ARG A  2       -7.484  -2.611   0.053  0.00  0.00    +0.125 HD
BRANCH 109 111
ATOM    111  CZ  ARG A  2       -6.942  -4.376   0.880  0.00  0.00    +0.167 C 
BRANCH 111 112
ATOM    112  NH2 ARG A  2       -6.335  -4.781  -0.243  0.00  0.00    -0.297 NA
ATOM    113 HH21 ARG A  2       -6.335  -4.189  -1.062  0.00  0.00    +0.121 HD
ATOM    114 HH22 ARG A  2       -5.879  -5.681  -0.279  0.00  0.00    +0.121 HD
ENDBRANCH 111 112
BRANCH 111 115
ATOM    115  NH1 ARG A  2       -6.927  -5.185   1.952  0.00  0.00    -0.297 NA
ATOM    116 HH11 ARG A  2       -7.382  -4.899   2.808  0.00  0.00    +0.121 HD
ATOM    117 HH12 ARG A  2       -6.470  -6.085   1.907  0.00  0.00    +0.121 HD
ENDBRANCH 111 115
ENDBRANCH 109 111
ENDBRANCH 108 109
ENDBRANCH 107 108
ENDBRANCH 106 107
ENDBRANCH  85 106
ENDBRANCH  81  85
ENDBRANCH  80  82
BRANCH  80 118
ATOM    118  CB  ARG A  3       -3.151   2.169   4.451  0.00  0.00    +0.033 C 
BRANCH 118 119
ATOM    119  CG  ARG A  3       -3.888   3.021   5.507  0.00  0.00    +0.017 C 
BRANCH 119 120
ATOM    120  CD  ARG A  3       -2.985   3.920   6.372  0.00  0.00    +0.084 C 
BRANCH 120 121
ATOM    121  NE  ARG A  3       -1.944   3.171   7.102  0.00  0.00    -0.283 NA
ATOM    122  HE  ARG A  3       -2.273   2.660   7.909  0.00  0.00    +0.125 HD
BRANCH 121 123
ATOM    123  CZ  ARG A  3       -0.637   3.063   6.792  0.00  0.00    +0.167 C 
BRANCH 123 124
ATOM    124  NH2 ARG A  3        0.151   2.318   7.578  0.00  0.00    -0.297 NA
ATOM    125 HH21 ARG A  3       -0.236   1.848   8.384  0.00  0.00    +0.121 HD
ATOM    126 HH22 ARG A  3        1.136   2.229   7.374  0.00  0.00    +0.121 HD
ENDBRANCH 123 124
BRANCH 123 127
ATOM    127  NH1 ARG A  3       -0.092   3.674   5.727  0.00  0.00    -0.297 NA
ATOM    128 HH11 ARG A  3       -0.667   4.243   5.123  0.00  0.00    +0.121 HD
ATOM    129 HH12 ARG A  3        0.894   3.578   5.531  0.00  0.00    +0.121 HD
ENDBRANCH 123 127
ENDBRANCH 121 123
ENDBRANCH 120 121
ENDBRANCH 119 120
ENDBRANCH 118 119
ENDBRANCH  80 118
ENDBRANCH  76  80
ENDBRANCH  75  77
BRANCH  75 130
ATOM    130  CB  ARG A  4       -2.781   1.498  -1.178  0.00  0.00    +0.033 C 
BRANCH 130 131
ATOM    131  CG  ARG A  4       -2.039   1.071  -2.461  0.00  0.00    +0.017 C 
BRANCH 131 132
ATOM    132  CD  ARG A  4       -2.583   1.763  -3.720  0.00  0.00    +0.084 C 
BRANCH 132 133
ATOM    133  NE  ARG A  4       -1.746   1.480  -4.899  0.00  0.00    -0.283 NA
ATOM    134  HE  ARG A  4       -1.001   0.813  -4.751  0.00  0.00    +0.125 HD
BRANCH 133 135
ATOM    135  CZ  ARG A  4       -1.871   2.011  -6.131  0.00  0.00    +0.167 C 
BRANCH 135 136
ATOM    136  NH1 ARG A  4       -2.824   2.909  -6.434  0.00  0.00    -0.297 NA
ATOM    137 HH11 ARG A  4       -3.482   3.207  -5.729  0.00  0.00    +0.121 HD
ATOM    138 HH12 ARG A  4       -2.887   3.289  -7.368  0.00  0.00    +0.121 HD
ENDBRANCH 135 136
BRANCH 135 139
ATOM    139  NH2 ARG A  4       -1.014   1.631  -7.088  0.00  0.00    -0.297 NA
ATOM    140 HH21 ARG A  4       -0.293   0.954  -6.884  0.00  0.00    +0.121 HD
ATOM    141 HH22 ARG A  4       -1.088   2.016  -8.019  0.00  0.00    +0.121 HD
ENDBRANCH 135 139
ENDBRANCH 133 135
ENDBRANCH 132 133
ENDBRANCH 131 132
ENDBRANCH 130 131
ENDBRANCH  75 130
ENDBRANCH  71  75
ENDBRANCH   1  72
BRANCH   1 142
ATOM    142  CB  ARG A  5        1.890  -1.621   0.256  0.00  0.00    +0.033 C 
BRANCH 142 143
ATOM    143  CG  ARG A  5        1.524  -2.150   1.653  0.00  0.00    +0.017 C 
BRANCH 143 144
ATOM    144  CD  ARG A  5        2.074  -3.564   1.904  0.00  0.00    +0.084 C 
BRANCH 144 145
ATOM    145  NE  ARG A  5        1.898  -3.992   3.304  0.00  0.00    -0.283 NA
ATOM    146  HE  ARG A  5        1.014  -4.434   3.511  0.00  0.00    +0.125 HD
BRANCH 145 147
ATOM    147  CZ  ARG A  5        2.764  -3.823   4.323  0.00  0.00    +0.167 C 
BRANCH 147 148
ATOM    148  NH1 ARG A  5        3.953  -3.218   4.166  0.00  0.00    -0.297 NA
ATOM    149 HH11 ARG A  5        4.228  -2.875   3.256  0.00  0.00    +0.121 HD
ATOM    150 HH12 ARG A  5        4.582  -3.115   4.949  0.00  0.00    +0.121 HD
ENDBRANCH 147 148
BRANCH 147 151
ATOM    151  NH2 ARG A  5        2.426  -4.276   5.538  0.00  0.00    -0.297 NA
ATOM    152 HH21 ARG A  5        1.538  -4.735   5.680  0.00  0.00    +0.121 HD
ATOM    153 HH22 ARG A  5        3.060  -4.170   6.317  0.00  0.00    +0.121 HD
ENDBRANCH 147 151
ENDBRANCH 145 147
ENDBRANCH 144 145
ENDBRANCH 143 144
ENDBRANCH 142 143
ENDBRANCH   1 142
TORSDOF 79
