REMARK  Name = DB12960
REMARK                            x       y       z     vdW  Elec       q    Type
REMARK                         _______ _______ _______ _____ _____    ______ ____
ROOT
ATOM      1  N   LIG    1        1.491  -0.013  -0.089  0.00  0.00    -0.294 NA
ATOM      2  C   LIG    1        1.974  -1.401  -0.265  0.00  0.00    +0.038 C 
ATOM      3  C   LIG    1        3.458  -1.520  -0.678  0.00  0.00    +0.022 C 
ATOM      4  C   LIG    1        1.639  -2.274   0.978  0.00  0.00    -0.059 C 
ATOM      5  N   LIG    1        2.269  -1.673   2.271  0.00  0.00    +0.385 N 
ATOM      6  H   LIG    1        3.267  -1.662   2.111  0.00  0.00    -0.081 HD
ATOM      7  C   LIG    1        1.861  -0.178   2.396  0.00  0.00    -0.062 C 
ATOM      8  C   LIG    1        2.173   0.570   1.080  0.00  0.00    +0.067 C 
ENDROOT
BRANCH   1  10
ATOM      9  C   LIG    1       -0.410   1.660  -0.153  0.00  0.00    +0.144 C 
ATOM     10  C   LIG    1        0.015   0.169  -0.075  0.00  0.00    +0.116 C 
ATOM     11  C   LIG    1       -0.668  -0.389  -1.324  0.00  0.00    -0.024 A 
ATOM     12  C   LIG    1       -1.050  -1.700  -1.622  0.00  0.00    +0.006 A 
ATOM     13  C   LIG    1       -1.609  -2.001  -2.865  0.00  0.00    +0.013 A 
ATOM     14  C   LIG    1       -1.807  -0.994  -3.819  0.00  0.00    +0.055 A 
ATOM     15  C   LIG    1       -1.474   0.327  -3.493  0.00  0.00    +0.016 A 
ATOM     16  C   LIG    1       -0.963   0.631  -2.231  0.00  0.00    -0.040 A 
ATOM     17  C   LIG    1       -0.602   1.972  -1.642  0.00  0.00    +0.069 C 
BRANCH  14  18
ATOM     18  C   LIG    1       -2.395  -1.308  -5.194  0.00  0.00    +0.417 C 
ATOM     19  F   LIG    1       -1.452  -1.148  -6.122  0.00  0.00    -0.166 F 
ATOM     20  F   LIG    1       -3.406  -0.479  -5.462  0.00  0.00    -0.166 F 
ATOM     21  F   LIG    1       -2.853  -2.559  -5.276  0.00  0.00    -0.166 F 
ENDBRANCH  14  18
BRANCH   9  22
ATOM     22  O   LIG    1       -1.666   1.897   0.493  0.00  0.00    -0.375 OA
BRANCH  22  24
ATOM     23  C   LIG    1       -0.902   2.976   2.596  0.00  0.00    +0.034 C 
ATOM     24  C   LIG    1       -1.707   1.854   1.921  0.00  0.00    +0.157 C 
ENDBRANCH  22  24
ENDBRANCH   9  22
ENDBRANCH   1  10
BRANCH   5  25
ATOM     25  C   LIG    1        2.036  -2.552   3.557  0.00  0.00    -0.065 C 
ATOM     26  C   LIG    1        2.877  -3.847   3.384  0.00  0.00    -0.010 C 
ATOM     27  C   LIG    1        0.520  -2.899   3.721  0.00  0.00    +0.007 C 
ATOM     28  C   LIG    1        0.197  -3.552   5.090  0.00  0.00    +0.107 C 
ATOM     29  N   LIG    1        0.681  -2.629   6.130  0.00  0.00    -0.298 N 
ATOM     30  C   LIG    1       -0.162  -1.688   6.643  0.00  0.00    +0.250 C 
ATOM     31  O   LIG    1       -1.347  -1.592   6.318  0.00  0.00    -0.270 OA
ATOM     32  C   LIG    1        2.150  -2.490   6.156  0.00  0.00    +0.107 C 
ATOM     33  C   LIG    1        2.549  -1.795   4.830  0.00  0.00    +0.007 C 
BRANCH  30  34
ATOM     34  C   LIG    1        0.383  -0.718   7.667  0.00  0.00    +0.079 A 
ATOM     35  C   LIG    1        0.444   0.670   7.409  0.00  0.00    +0.054 A 
ATOM     36  C   LIG    1       -0.026   1.301   6.101  0.00  0.00    +0.066 C 
ATOM     37  N   LIG    1        0.931   1.557   8.318  0.00  0.00    -0.240 NA
ATOM     38  C   LIG    1        1.355   1.044   9.498  0.00  0.00    +0.221 A 
ATOM     39  N   LIG    1        1.330  -0.262   9.857  0.00  0.00    -0.240 NA
ATOM     40  C   LIG    1        0.834  -1.135   8.940  0.00  0.00    +0.054 A 
ATOM     41  C   LIG    1        0.793  -2.585   9.415  0.00  0.00    +0.066 C 
ENDBRANCH  30  34
ENDBRANCH   5  25
TORSDOF 6
