REMARK  Name = DB12206
REMARK                            x       y       z     vdW  Elec       q    Type
REMARK                         _______ _______ _______ _____ _____    ______ ____
ROOT
ATOM      1  N   LIG    1        2.199  -1.099  -0.738  0.00  0.00    -0.313 N 
ATOM      2  C   LIG    1        3.571  -0.972  -0.548  0.00  0.00    +0.054 A 
ATOM      3  C   LIG    1        3.781   0.209   0.148  0.00  0.00    +0.028 A 
ATOM      4  C   LIG    1        2.546   0.789   0.405  0.00  0.00    +0.024 A 
ATOM      5  C   LIG    1        1.560  -0.014  -0.151  0.00  0.00    +0.025 A 
ENDROOT
BRANCH   1   8
ATOM      6  C   LIG    1        2.461  -1.327  -3.682  0.00  0.00    +0.046 C 
ATOM      7  C   LIG    1        1.680  -2.312  -2.820  0.00  0.00    -0.026 A 
ATOM      8  C   LIG    1        1.550  -2.149  -1.429  0.00  0.00    +0.050 A 
ATOM      9  C   LIG    1        0.773  -3.048  -0.693  0.00  0.00    +0.027 A 
ATOM     10  C   LIG    1        0.143  -4.116  -1.327  0.00  0.00    +0.015 A 
ATOM     11  C   LIG    1        0.270  -4.308  -2.713  0.00  0.00    +0.037 A 
ATOM     12  C   LIG    1        1.041  -3.389  -3.442  0.00  0.00    +0.018 A 
BRANCH  11  13
ATOM     13  C   LIG    1       -0.397  -5.468  -3.426  0.00  0.00    +0.242 C 
ATOM     14  O   LIG    1       -0.238  -5.661  -4.631  0.00  0.00    -0.270 OA
ATOM     15  N   LIG    1       -1.170  -6.280  -2.696  0.00  0.00    -0.325 N 
ATOM     16  H   LIG    1       -1.631  -7.064  -3.132  0.00  0.00    +0.145 HD
ATOM     17  H   LIG    1       -1.297  -6.111  -1.709  0.00  0.00    +0.145 HD
ENDBRANCH  11  13
ENDBRANCH   1   8
BRANCH   2  18
ATOM     18  C   LIG    1        4.606  -1.942  -1.023  0.00  0.00    -0.001 A 
ATOM     19  C   LIG    1        5.763  -1.451  -1.634  0.00  0.00    +0.012 A 
ATOM     20  C   LIG    1        6.746  -2.328  -2.084  0.00  0.00    +0.027 A 
ATOM     21  C   LIG    1        6.580  -3.707  -1.919  0.00  0.00    +0.047 A 
ATOM     22  C   LIG    1        5.427  -4.201  -1.300  0.00  0.00    +0.027 A 
ATOM     23  C   LIG    1        4.448  -3.320  -0.850  0.00  0.00    +0.012 A 
BRANCH  21  24
ATOM     24  N   LIG    1        7.577  -4.598  -2.373  0.00  0.00    -0.306 N 
ATOM     25  C   LIG    1        8.936  -4.387  -2.464  0.00  0.00    +0.204 A 
ATOM     26  N   LIG    1        9.611  -5.414  -2.924  0.00  0.00    -0.244 NA
ATOM     27  C   LIG    1        8.695  -6.336  -3.151  0.00  0.00    +0.130 A 
ATOM     28  C   LIG    1        7.425  -5.888  -2.827  0.00  0.00    +0.112 A 
ENDBRANCH  21  24
ENDBRANCH   2  18
BRANCH   5  29
ATOM     29  C   LIG    1        0.042   0.156  -0.191  0.00  0.00    +0.065 C 
BRANCH  29  30
ATOM     30  C   LIG    1       -0.472   1.567   0.208  0.00  0.00    +0.126 C 
BRANCH  30  31
ATOM     31  C   LIG    1       -0.060   2.720  -0.742  0.00  0.00    +0.305 C 
ATOM     32  O   LIG    1       -0.008   3.866  -0.240  0.00  0.00    -0.251 OA
BRANCH  31  33
ATOM     33  O   LIG    1        0.164   2.473  -1.950  0.00  0.00    -0.481 OA
ATOM     34  H   LIG    1        0.109   1.593  -2.266  0.00  0.00    +0.295 HD
ENDBRANCH  31  33
ENDBRANCH  30  31
ENDBRANCH  29  30
ENDBRANCH   5  29
TORSDOF 8
