REMARK  Name = DB12702
REMARK                            x       y       z     vdW  Elec       q    Type
REMARK                         _______ _______ _______ _____ _____    ______ ____
ROOT
ATOM      1  C   LIG    1       -2.109   3.293   0.898  0.00  0.00    +0.070 C 
ATOM      2  C   LIG    1       -2.583   2.101   0.015  0.00  0.00    +0.007 C 
ATOM      3  C   LIG    1       -1.917   0.737   0.341  0.00  0.00    -0.066 C 
ATOM      4  N   LIG    1       -0.397   0.952   0.207  0.00  0.00    +0.385 N 
ATOM      5  H   LIG    1       -0.228   1.567  -0.576  0.00  0.00    -0.081 HD
ATOM      6  C   LIG    1       -0.109   1.712   1.518  0.00  0.00    -0.066 C 
ATOM      7  C   LIG    1       -0.914   0.925   2.570  0.00  0.00    -0.017 C 
ATOM      8  C   LIG    1       -2.082   0.285   1.805  0.00  0.00    -0.017 C 
ATOM      9  C   LIG    1       -0.605   3.165   1.298  0.00  0.00    +0.007 C 
ENDROOT
BRANCH   1  11
ATOM     10  C   LIG    1       -3.117   4.550   2.829  0.00  0.00    +0.250 C 
ATOM     11  N   LIG    1       -2.985   3.445   2.066  0.00  0.00    -0.308 N 
ATOM     12  H   LIG    1       -3.608   2.672   2.252  0.00  0.00    +0.149 HD
ATOM     13  O   LIG    1       -2.453   5.569   2.622  0.00  0.00    -0.270 OA
BRANCH  10  17
ATOM     14  N   LIG    1       -5.651   5.493   5.461  0.00  0.00    -0.305 N 
ATOM     15  C   LIG    1       -4.918   5.628   4.295  0.00  0.00    +0.264 A 
ATOM     16  O   LIG    1       -4.934   6.653   3.607  0.00  0.00    -0.267 OA
ATOM     17  C   LIG    1       -4.098   4.460   3.911  0.00  0.00    +0.102 A 
ATOM     18  C   LIG    1       -4.217   3.290   4.594  0.00  0.00    +0.028 A 
ATOM     19  C   LIG    1       -5.164   3.109   5.692  0.00  0.00    -0.001 A 
ATOM     20  C   LIG    1       -5.353   1.853   6.273  0.00  0.00    +0.010 A 
ATOM     21  C   LIG    1       -6.310   1.688   7.270  0.00  0.00    +0.001 A 
ATOM     22  C   LIG    1       -7.083   2.773   7.674  0.00  0.00    +0.002 A 
ATOM     23  C   LIG    1       -6.895   4.027   7.090  0.00  0.00    +0.026 A 
ATOM     24  C   LIG    1       -5.922   4.225   6.089  0.00  0.00    +0.052 A 
BRANCH  14  26
ATOM     25  C   LIG    1       -7.717   6.953   5.303  0.00  0.00    +0.030 C 
ATOM     26  C   LIG    1       -6.365   6.694   6.000  0.00  0.00    +0.085 C 
ATOM     27  C   LIG    1       -5.523   7.983   6.183  0.00  0.00    +0.030 C 
ENDBRANCH  14  26
ENDBRANCH  10  17
ENDBRANCH   1  11
BRANCH   4  28
ATOM     28  C   LIG    1        0.423  -0.344  -0.022  0.00  0.00    -0.045 C 
BRANCH  28  29
ATOM     29  C   LIG    1        1.904  -0.037  -0.349  0.00  0.00    +0.114 C 
BRANCH  29  30
ATOM     30  O   LIG    1        2.521  -1.264  -0.689  0.00  0.00    -0.392 OA
ATOM     31  H   LIG    1        2.432  -1.871   0.049  0.00  0.00    +0.210 HD
ENDBRANCH  29  30
BRANCH  29  32
ATOM     32  C   LIG    1        2.093   1.012  -1.477  0.00  0.00    +0.138 C 
BRANCH  32  33
ATOM     33  N   LIG    1        3.494   1.179  -1.953  0.00  0.00    -0.182 NA
ATOM     34  C   LIG    1        4.582   1.339  -0.963  0.00  0.00    +0.131 C 
BRANCH  33  35
ATOM     35  S   LIG    1        3.896   0.804  -3.640  0.00  0.00    +0.029 S 
ATOM     36  C   LIG    1        4.142  -1.065  -3.632  0.00  0.00    +0.215 C 
ATOM     37  O   LIG    1        5.184   1.432  -3.952  0.00  0.00    -0.158 OA
ATOM     38  O   LIG    1        2.718   1.104  -4.463  0.00  0.00    -0.158 OA
ENDBRANCH  33  35
ENDBRANCH  32  33
ENDBRANCH  29  32
ENDBRANCH  28  29
ENDBRANCH   4  28
TORSDOF 9
