REMARK  Name = DB12199
REMARK                            x       y       z     vdW  Elec       q    Type
REMARK                         _______ _______ _______ _____ _____    ______ ____
ROOT
ATOM      1  CA  TYR A  1        1.456   0.065   0.201  0.00  0.00    +0.163 C 
ENDROOT
BRANCH   1   2
ATOM      2  N   TYR A  1        0.020   0.181  -0.044  0.00  0.00    -0.302 N 
ATOM      3  H   TYR A  1       -0.459  -0.683  -0.250  0.00  0.00    +0.150 HD
ATOM      4  C   TYR A  1       -0.667   1.333  -0.073  0.00  0.00    +0.234 C 
ATOM      5  O   TYR A  1       -0.181   2.442   0.161  0.00  0.00    -0.274 OA
BRANCH   4   6
ATOM      6  CA  TYR A  1       -2.155   1.213  -0.453  0.00  0.00    +0.161 C 
BRANCH   6   7
ATOM      7  N   TYR A  1       -2.966   2.030   0.448  0.00  0.00    -0.302 N 
ATOM      8  H   TYR A  1       -3.220   2.945   0.104  0.00  0.00    +0.150 HD
ATOM      9  C   TYR A  1       -3.318   1.670   1.693  0.00  0.00    +0.234 C 
ATOM     10  O   TYR A  1       -3.051   0.584   2.210  0.00  0.00    -0.274 OA
BRANCH   9  11
ATOM     11  CA  TYR A  1       -4.056   2.742   2.515  0.00  0.00    +0.159 C 
BRANCH  11  12
ATOM     12  N   TYR A  1       -5.263   2.202   3.144  0.00  0.00    -0.306 N 
ATOM     13  H   TYR A  1       -5.217   2.082   4.146  0.00  0.00    +0.149 HD
ATOM     14  C   UNK A  0       -6.376   1.829   2.488  0.00  0.00    +0.197 C 
ATOM     15  O   UNK A  0       -6.502   1.935   1.266  0.00  0.00    -0.278 OA
BRANCH  14  16
ATOM     16  C   UNK A  0       -7.504   1.244   3.357  0.00  0.00    +0.014 C 
BRANCH  16  17
ATOM     17  N   UNK A  0       -8.840   1.699   2.861  0.00  0.00    +0.383 N 
ATOM     18  H   UNK A  0       -9.564   1.121   3.266  0.00  0.00    -0.086 HD
ATOM     19  H   UNK A  0       -8.898   1.583   1.859  0.00  0.00    -0.086 HD
ATOM     20  C   UNK A  0       -9.159   3.161   3.222  0.00  0.00    -0.100 C 
ENDBRANCH  16  17
ENDBRANCH  14  16
ENDBRANCH  11  12
BRANCH  11  21
ATOM     21  CB  TYR A  1       -3.154   3.356   3.610  0.00  0.00    +0.033 C 
BRANCH  21  22
ATOM     22  CG  TYR A  1       -1.825   3.951   3.091  0.00  0.00    +0.017 C 
BRANCH  22  23
ATOM     23  CD  TYR A  1       -0.950   4.607   4.176  0.00  0.00    +0.084 C 
BRANCH  23  24
ATOM     24  NE  TYR A  1       -0.381   3.636   5.129  0.00  0.00    -0.283 NA
ATOM     25  HE  TYR A  1       -0.871   3.558   6.009  0.00  0.00    +0.125 HD
BRANCH  24  26
ATOM     26  CZ  TYR A  1        0.682   2.828   4.941  0.00  0.00    +0.167 C 
BRANCH  26  27
ATOM     27  NH2 TYR A  1        1.385   2.807   3.795  0.00  0.00    -0.297 NA
ATOM     28 HH21 TYR A  1        1.119   3.408   3.028  0.00  0.00    +0.121 HD
ATOM     29 HH22 TYR A  1        2.171   2.181   3.690  0.00  0.00    +0.121 HD
ENDBRANCH  26  27
BRANCH  26  30
ATOM     30  NH1 TYR A  1        1.049   2.012   5.938  0.00  0.00    -0.297 NA
ATOM     31 HH11 TYR A  1        1.838   1.392   5.822  0.00  0.00    +0.121 HD
ATOM     32 HH12 TYR A  1        0.534   2.009   6.807  0.00  0.00    +0.121 HD
ENDBRANCH  26  30
ENDBRANCH  24  26
ENDBRANCH  23  24
ENDBRANCH  22  23
ENDBRANCH  21  22
ENDBRANCH  11  21
ENDBRANCH   9  11
ENDBRANCH   6   7
BRANCH   6  33
ATOM     33  CB  TYR A  1       -2.336   1.662  -1.934  0.00  0.00    +0.012 C 
ATOM     34  CG2 TYR A  1       -1.419   0.935  -2.943  0.00  0.00    +0.009 C 
ATOM     35  CG1 TYR A  1       -3.801   1.506  -2.384  0.00  0.00    +0.009 C 
ENDBRANCH   6  33
ENDBRANCH   4   6
ENDBRANCH   1   2
BRANCH   1  36
ATOM     36  C   TYR A  1        2.207   0.235  -1.129  0.00  0.00    +0.234 C 
ATOM     37  N   ILE A  2        2.440   1.505  -1.500  0.00  0.00    -0.302 N 
ATOM     38  H   ILE A  2        2.134   2.259  -0.902  0.00  0.00    +0.150 HD
ATOM     39  O   TYR A  1        2.518  -0.752  -1.794  0.00  0.00    -0.274 OA
BRANCH  37  40
ATOM     40  CA  ILE A  2        3.122   1.905  -2.731  0.00  0.00    +0.162 C 
BRANCH  40  41
ATOM     41  C   ILE A  2        4.639   1.678  -2.585  0.00  0.00    +0.234 C 
ATOM     42  O   ILE A  2        5.220   2.080  -1.576  0.00  0.00    -0.274 OA
ATOM     43  N   HIS A  3        5.235   1.039  -3.604  0.00  0.00    -0.302 N 
ATOM     44  H   HIS A  3        4.681   0.746  -4.396  0.00  0.00    +0.150 HD
BRANCH  43  45
ATOM     45  CA  HIS A  3        6.654   0.693  -3.663  0.00  0.00    +0.165 C 
BRANCH  45  46
ATOM     46  C   HIS A  3        7.213   1.190  -5.012  0.00  0.00    +0.237 C 
ATOM     47  N   PRO A  4        7.774   2.426  -5.052  0.00  0.00    -0.288 N 
ATOM     48  CD  PRO A  4        7.816   3.389  -3.950  0.00  0.00    +0.109 C 
ATOM     49  CG  PRO A  4        7.988   4.740  -4.625  0.00  0.00    +0.021 C 
ATOM     50  CB  PRO A  4        8.852   4.404  -5.826  0.00  0.00    +0.033 C 
ATOM     51  CA  PRO A  4        8.382   3.004  -6.269  0.00  0.00    +0.162 C 
ATOM     52  O   HIS A  3        7.101   0.458  -5.997  0.00  0.00    -0.274 OA
BRANCH  51  53
ATOM     53  C   PRO A  4        9.539   2.166  -6.844  0.00  0.00    +0.234 C 
ATOM     54  O   PRO A  4       10.524   1.931  -6.144  0.00  0.00    -0.274 OA
ATOM     55  N   ALA A  5        9.367   1.724  -8.105  0.00  0.00    -0.301 N 
ATOM     56  H   ALA A  5        8.518   1.981  -8.586  0.00  0.00    +0.150 HD
BRANCH  55  57
ATOM     57  CA  ALA A  5       10.306   0.919  -8.910  0.00  0.00    +0.179 C 
ATOM     58  CB  ALA A  5       10.488  -0.498  -8.297  0.00  0.00    +0.040 C 
BRANCH  57  59
ATOM     59  C   ALA A  5       11.628   1.716  -9.244  0.00  0.00    +0.325 C 
ATOM     60  OXT ALA A  5       12.705   1.223  -8.833  0.00  0.00    -0.249 OA
BRANCH  59  61
ATOM     61  O   ALA A  5       11.450   2.763  -9.911  0.00  0.00    -0.479 OA
ATOM     62  H   ALA A  5       12.182   3.295 -10.153  0.00  0.00    +0.295 HD
ENDBRANCH  59  61
ENDBRANCH  57  59
ENDBRANCH  55  57
ENDBRANCH  51  53
ENDBRANCH  45  46
BRANCH  45  63
ATOM     63  CB  HIS A  3        6.813  -0.835  -3.485  0.00  0.00    +0.086 C 
BRANCH  63  64
ATOM     64  CG  HIS A  3        6.282  -1.387  -2.181  0.00  0.00    +0.038 A 
ATOM     65  ND1 HIS A  3        6.638  -0.874  -0.944  0.00  0.00    -0.348 N 
ATOM     66  HD1 HIS A  3        7.273  -0.108  -0.773  0.00  0.00    +0.166 HD
ATOM     67  CE1 HIS A  3        5.967  -1.568  -0.021  0.00  0.00    +0.196 A 
ATOM     68  NE2 HIS A  3        5.188  -2.511  -0.536  0.00  0.00    -0.244 NA
ATOM     69  CD2 HIS A  3        5.385  -2.398  -1.915  0.00  0.00    +0.133 A 
ENDBRANCH  63  64
ENDBRANCH  45  63
ENDBRANCH  43  45
ENDBRANCH  40  41
BRANCH  40  70
ATOM     70  CB  ILE A  2        2.854   3.406  -3.067  0.00  0.00    +0.015 C 
ATOM     71  CG2 ILE A  2        3.639   3.916  -4.301  0.00  0.00    +0.010 C 
BRANCH  70  72
ATOM     72  CG1 ILE A  2        1.339   3.669  -3.258  0.00  0.00    +0.002 C 
ATOM     73  CD1 ILE A  2        0.961   5.154  -3.355  0.00  0.00    +0.004 C 
ENDBRANCH  70  72
ENDBRANCH  40  70
ENDBRANCH  37  40
ENDBRANCH   1  36
BRANCH   1  74
ATOM     74  CB  TYR A  1        1.744  -1.292   0.880  0.00  0.00    +0.067 C 
BRANCH  74  75
ATOM     75  CG  TYR A  1        1.252  -1.388   2.316  0.00  0.00    -0.045 A 
ATOM     76  CD2 TYR A  1        2.158  -1.219   3.385  0.00  0.00    +0.007 A 
ATOM     77  CE2 TYR A  1        1.707  -1.307   4.716  0.00  0.00    +0.045 A 
ATOM     78  CZ  TYR A  1        0.346  -1.550   4.986  0.00  0.00    +0.117 A 
ATOM     79  CE1 TYR A  1       -0.562  -1.714   3.923  0.00  0.00    +0.045 A 
ATOM     80  CD1 TYR A  1       -0.109  -1.641   2.591  0.00  0.00    +0.007 A 
BRANCH  78  81
ATOM     81  OH  TYR A  1       -0.092  -1.628   6.276  0.00  0.00    -0.507 OA
ATOM     82  HH  TYR A  1        0.616  -1.567   6.921  0.00  0.00    +0.292 HD
ENDBRANCH  78  81
ENDBRANCH  74  75
ENDBRANCH   1  74
TORSDOF 31
