REMARK  Name = DB12803
REMARK                            x       y       z     vdW  Elec       q    Type
REMARK                         _______ _______ _______ _____ _____    ______ ____
ROOT
ATOM      1  C   LIG    1        2.048  -1.404   0.290  0.00  0.00    +0.128 C 
ENDROOT
BRANCH   1   2
ATOM      2  C   LIG    1        3.557  -1.451   0.059  0.00  0.00    -0.019 A 
ATOM      3  C   LIG    1        4.084  -1.393  -1.238  0.00  0.00    +0.027 A 
ATOM      4  C   LIG    1        5.464  -1.423  -1.449  0.00  0.00    +0.060 A 
ATOM      5 CL   LIG    1        6.063  -1.346  -3.070  0.00  0.00    -0.082 Cl
ATOM      6  C   LIG    1        6.333  -1.512  -0.354  0.00  0.00    +0.059 A 
ATOM      7 CL   LIG    1        8.049  -1.554  -0.567  0.00  0.00    -0.082 Cl
ATOM      8  C   LIG    1        5.812  -1.568   0.940  0.00  0.00    +0.022 A 
ATOM      9  C   LIG    1        4.433  -1.535   1.146  0.00  0.00    +0.007 A 
ENDBRANCH   1   2
BRANCH   1  10
ATOM     10  O   LIG    1        1.359  -2.351  -0.509  0.00  0.00    -0.389 OA
ATOM     11  H   LIG    1        1.648  -3.232  -0.255  0.00  0.00    +0.210 HD
ENDBRANCH   1  10
BRANCH   1  12
ATOM     12  C   LIG    1        1.496   0.019   0.036  0.00  0.00    -0.046 C 
BRANCH  12  13
ATOM     13  N   LIG    1       -0.015   0.088   0.339  0.00  0.00    +0.382 N 
ATOM     14  H   LIG    1       -0.502  -0.555  -0.271  0.00  0.00    -0.085 HD
ATOM     15  H   LIG    1       -0.151  -0.230   1.288  0.00  0.00    -0.085 HD
BRANCH  13  17
ATOM     16  C   LIG    1       -2.059   1.420   0.847  0.00  0.00    -0.014 C 
ATOM     17  C   LIG    1       -0.660   1.482   0.212  0.00  0.00    -0.078 C 
ATOM     18  C   LIG    1       -0.696   1.923  -1.264  0.00  0.00    -0.014 C 
ENDBRANCH  13  17
ENDBRANCH  12  13
ENDBRANCH   1  12
TORSDOF 5
