REMARK  Name = DB12461
REMARK                            x       y       z     vdW  Elec       q    Type
REMARK                         _______ _______ _______ _____ _____    ______ ____
ROOT
ATOM      1  C   LIG    1       -3.048  -1.361   1.117  0.00  0.00    +0.135 C 
ATOM      2  N   LIG    1       -2.064  -0.515   0.435  0.00  0.00    -0.268 N 
ATOM      3  C   LIG    1       -2.214   0.899   0.149  0.00  0.00    +0.164 C 
ATOM      4  C   LIG    1       -0.730   1.256   0.267  0.00  0.00    +0.258 C 
ATOM      5  O   LIG    1       -0.273   2.386   0.458  0.00  0.00    -0.272 OA
ATOM      6  N   LIG    1       -0.044   0.101   0.070  0.00  0.00    -0.192 N 
ATOM      7  C   LIG    1       -0.870  -0.983   0.028  0.00  0.00    +0.316 C 
ATOM      8  O   LIG    1       -0.578  -2.148  -0.253  0.00  0.00    -0.252 OA
ENDROOT
BRANCH   3   9
ATOM      9  C   LIG    1       -2.773   1.197  -1.273  0.00  0.00    -0.013 A 
ATOM     10  C   LIG    1       -2.592   2.465  -1.849  0.00  0.00    +0.006 A 
ATOM     11  C   LIG    1       -3.087   2.748  -3.119  0.00  0.00    +0.000 A 
ATOM     12  C   LIG    1       -3.773   1.766  -3.826  0.00  0.00    +0.000 A 
ATOM     13  C   LIG    1       -3.970   0.505  -3.272  0.00  0.00    +0.000 A 
ATOM     14  C   LIG    1       -3.475   0.223  -2.002  0.00  0.00    +0.006 A 
ENDBRANCH   3   9
BRANCH   6  15
ATOM     15  C   LIG    1        1.367   0.024  -0.014  0.00  0.00    +0.046 A 
ATOM     16  C   LIG    1        2.085  -0.847   0.817  0.00  0.00    +0.037 A 
ATOM     17  C   LIG    1        3.484  -0.941   0.746  0.00  0.00    +0.074 A 
ATOM     18  C   LIG    1        4.169  -0.130  -0.187  0.00  0.00    +0.064 A 
ATOM     19  C   LIG    1        3.452   0.740  -1.014  0.00  0.00    +0.021 A 
ATOM     20  C   LIG    1        2.065   0.817  -0.931  0.00  0.00    +0.025 A 
BRANCH  17  21
ATOM     21  C   LIG    1        4.217  -1.919   1.682  0.00  0.00    +0.419 C 
ATOM     22  F   LIG    1        5.075  -1.252   2.455  0.00  0.00    -0.166 F 
ATOM     23  F   LIG    1        4.893  -2.817   0.964  0.00  0.00    -0.166 F 
ATOM     24  F   LIG    1        3.387  -2.587   2.486  0.00  0.00    -0.166 F 
ENDBRANCH  17  21
BRANCH  18  25
ATOM     25  C   LIG    1        5.622  -0.156  -0.334  0.00  0.00    +0.100 C 
ATOM     26  N   LIG    1        6.773  -0.177  -0.451  0.00  0.00    -0.191 NA
ENDBRANCH  18  25
ENDBRANCH   6  15
BRANCH   3  27
ATOM     27  C   LIG    1       -3.045   1.682   1.220  0.00  0.00    +0.196 C 
BRANCH  27  28
ATOM     28  O   LIG    1       -2.649   1.464   2.566  0.00  0.00    -0.392 OA
ATOM     29  H   LIG    1       -3.204   1.997   3.139  0.00  0.00    +0.210 HD
ENDBRANCH  27  28
ENDBRANCH   3  27
TORSDOF 6
