REMARK  Name = DB12211
REMARK                            x       y       z     vdW  Elec       q    Type
REMARK                         _______ _______ _______ _____ _____    ______ ____
ROOT
ATOM      1  C   LIG    1        1.636   0.001   0.058  0.00  0.00    +0.088 A 
ATOM      2  N   LIG    1        2.336   1.160   0.069  0.00  0.00    -0.247 NA
ATOM      3  C   LIG    1        3.696   1.142   0.022  0.00  0.00    +0.076 A 
ATOM      4  C   LIG    1        4.398   2.394   0.032  0.00  0.00    -0.018 A 
ATOM      5  C   LIG    1        3.593   3.710   0.030  0.00  0.00    +0.037 C 
ATOM      6  C   LIG    1        4.446   4.976   0.234  0.00  0.00    +0.005 C 
ATOM      7  C   LIG    1        5.780   4.892  -0.516  0.00  0.00    +0.005 C 
ATOM      8  C   LIG    1        6.597   3.705   0.017  0.00  0.00    +0.035 C 
ATOM      9  C   LIG    1        5.808   2.397  -0.023  0.00  0.00    -0.042 A 
ATOM     10  C   LIG    1        6.491   1.186  -0.095  0.00  0.00    +0.004 A 
ATOM     11  C   LIG    1        5.830  -0.033  -0.102  0.00  0.00    +0.011 A 
ATOM     12  C   LIG    1        4.413  -0.094  -0.042  0.00  0.00    +0.018 A 
ATOM     13  C   LIG    1        3.661  -1.323  -0.047  0.00  0.00    +0.111 A 
ATOM     14  C   LIG    1        2.255  -1.251   0.001  0.00  0.00    +0.153 A 
ENDROOT
BRANCH  13  15
ATOM     15  C   LIG    1        4.348  -2.653  -0.103  0.00  0.00    +0.341 C 
ATOM     16  O   LIG    1        4.649  -3.185   0.990  0.00  0.00    -0.245 OA
BRANCH  15  17
ATOM     17  O   LIG    1        4.580  -3.129  -1.237  0.00  0.00    -0.477 OA
ATOM     18  H   LIG    1        4.318  -2.660  -2.005  0.00  0.00    +0.295 HD
ENDBRANCH  15  17
ENDBRANCH  13  15
BRANCH  14  19
ATOM     19  O   LIG    1        1.476  -2.388  -0.004  0.00  0.00    -0.504 OA
ATOM     20  H   LIG    1        0.536  -2.202   0.026  0.00  0.00    +0.292 HD
ENDBRANCH  14  19
BRANCH   1  21
ATOM     21  C   LIG    1        0.107   0.127   0.118  0.00  0.00    +0.094 C 
BRANCH  21  23
ATOM     22  C   LIG    1       -0.740   2.146  -1.158  0.00  0.00    +0.005 A 
ATOM     23  C   LIG    1       -0.476   1.539   0.073  0.00  0.00    -0.041 A 
ATOM     24  C   LIG    1       -0.759   2.215   1.263  0.00  0.00    +0.005 A 
ATOM     25  C   LIG    1       -1.288   3.502   1.222  0.00  0.00    +0.020 A 
ATOM     26  C   LIG    1       -1.539   4.108  -0.008  0.00  0.00    +0.041 A 
ATOM     27 CL   LIG    1       -2.191   5.705  -0.058  0.00  0.00    -0.084 Cl
ATOM     28  C   LIG    1       -1.269   3.434  -1.198  0.00  0.00    +0.020 A 
ENDBRANCH  21  23
ENDBRANCH   1  21
TORSDOF 5
