REMARK  Name = DB12451
REMARK                            x       y       z     vdW  Elec       q    Type
REMARK                         _______ _______ _______ _____ _____    ______ ____
ROOT
ATOM      1  C   LIG    1       -1.171  -0.829   2.710  0.00  0.00    +0.159 C 
ATOM      2  N   LIG    1       -0.616   0.067   1.687  0.00  0.00    -0.302 N 
ATOM      3  H   LIG    1       -0.208   0.918   2.048  0.00  0.00    +0.150 HD
ATOM      4  C   LIG    1       -0.430  -0.213   0.384  0.00  0.00    +0.237 C 
ATOM      5  O   LIG    1       -0.902  -1.187  -0.201  0.00  0.00    -0.274 OA
ATOM      6  C   LIG    1        0.527   0.731  -0.383  0.00  0.00    +0.190 C 
ATOM      7  N   LIG    1       -0.148   1.959  -0.884  0.00  0.00    -0.289 N 
ATOM      8  C   LIG    1       -0.657   1.834  -2.256  0.00  0.00    +0.133 C 
ATOM      9  C   LIG    1       -0.385   3.059  -0.115  0.00  0.00    +0.237 C 
ATOM     10  O   LIG    1       -0.194   3.079   1.103  0.00  0.00    -0.274 OA
ATOM     11  C   LIG    1       -0.871   4.379  -0.799  0.00  0.00    +0.164 C 
ATOM     12  N   LIG    1       -2.349   4.566  -0.915  0.00  0.00    -0.291 N 
ATOM     13  C   LIG    1       -2.758   5.110  -2.218  0.00  0.00    +0.133 C 
ATOM     14  C   LIG    1       -3.276   4.255   0.043  0.00  0.00    +0.236 C 
ATOM     15  O   LIG    1       -2.976   3.794   1.143  0.00  0.00    -0.274 OA
ATOM     16  C   LIG    1       -4.788   4.524  -0.222  0.00  0.00    +0.162 C 
ATOM     17  N   LIG    1       -5.660   3.406   0.241  0.00  0.00    -0.291 N 
ATOM     18  C   LIG    1       -5.939   3.332   1.692  0.00  0.00    +0.133 C 
ATOM     19  C   LIG    1       -6.107   2.389  -0.559  0.00  0.00    +0.236 C 
ATOM     20  O   LIG    1       -6.673   1.394  -0.106  0.00  0.00    -0.274 OA
ATOM     21  C   LIG    1       -5.959   2.422  -2.110  0.00  0.00    +0.162 C 
ATOM     22  N   LIG    1       -5.461   1.109  -2.648  0.00  0.00    -0.291 N 
ATOM     23  C   LIG    1       -4.043   0.909  -2.281  0.00  0.00    +0.133 C 
ATOM     24  C   LIG    1       -5.968   0.242  -3.587  0.00  0.00    +0.236 C 
ATOM     25  O   LIG    1       -5.254  -0.564  -4.193  0.00  0.00    -0.274 OA
ATOM     26  C   LIG    1       -7.474   0.140  -3.926  0.00  0.00    +0.156 C 
ATOM     27  C   LIG    1       -7.791   0.745  -5.314  0.00  0.00    +0.038 C 
ATOM     28  N   LIG    1       -7.867  -1.273  -3.946  0.00  0.00    -0.303 N 
ATOM     29  H   LIG    1       -7.098  -1.926  -3.991  0.00  0.00    +0.149 HD
ATOM     30  C   LIG    1       -9.124  -1.748  -3.968  0.00  0.00    +0.234 C 
ATOM     31  O   LIG    1      -10.133  -1.046  -3.915  0.00  0.00    -0.274 OA
ATOM     32  C   LIG    1       -9.251  -3.278  -4.092  0.00  0.00    +0.156 C 
ATOM     33  C   LIG    1      -10.111  -3.683  -5.307  0.00  0.00    +0.038 C 
ATOM     34  N   LIG    1       -9.709  -3.947  -2.866  0.00  0.00    -0.303 N 
ATOM     35  H   LIG    1       -9.014  -4.540  -2.437  0.00  0.00    +0.149 HD
ATOM     36  C   LIG    1      -10.929  -3.917  -2.295  0.00  0.00    +0.234 C 
ATOM     37  O   LIG    1      -11.870  -3.240  -2.706  0.00  0.00    -0.274 OA
ATOM     38  C   LIG    1      -11.103  -4.864  -1.080  0.00  0.00    +0.162 C 
ATOM     39  N   LIG    1      -11.998  -4.370   0.006  0.00  0.00    -0.291 N 
ATOM     40  C   LIG    1      -13.382  -4.012  -0.361  0.00  0.00    +0.133 C 
ATOM     41  C   LIG    1      -11.633  -4.268   1.322  0.00  0.00    +0.237 C 
ATOM     42  O   LIG    1      -12.399  -3.832   2.188  0.00  0.00    -0.274 OA
ATOM     43  C   LIG    1      -10.192  -4.660   1.772  0.00  0.00    +0.162 C 
ATOM     44  N   LIG    1       -9.319  -3.515   1.497  0.00  0.00    -0.302 N 
ATOM     45  H   LIG    1       -9.620  -2.634   1.885  0.00  0.00    +0.150 HD
ATOM     46  C   LIG    1       -8.234  -3.549   0.709  0.00  0.00    +0.234 C 
ATOM     47  O   LIG    1       -7.777  -4.595   0.245  0.00  0.00    -0.274 OA
ATOM     48  C   LIG    1       -7.568  -2.178   0.399  0.00  0.00    +0.164 C 
ATOM     49  N   LIG    1       -6.231  -2.340  -0.247  0.00  0.00    -0.291 N 
ATOM     50  C   LIG    1       -6.208  -2.939  -1.594  0.00  0.00    +0.133 C 
ATOM     51  C   LIG    1       -5.032  -1.989   0.306  0.00  0.00    +0.247 C 
ATOM     52  O   LIG    1       -3.966  -2.149  -0.298  0.00  0.00    -0.273 OA
ATOM     53  C   LIG    1       -4.961  -1.359   1.733  0.00  0.00    +0.220 C 
ATOM     54  N   LIG    1       -3.641  -0.735   2.049  0.00  0.00    -0.283 N 
ATOM     55  C   LIG    1       -3.630   0.729   1.952  0.00  0.00    +0.133 C 
ATOM     56  C   LIG    1       -2.549  -1.478   2.407  0.00  0.00    +0.237 C 
ATOM     57  O   LIG    1       -2.586  -2.707   2.500  0.00  0.00    -0.274 OA
ENDROOT
BRANCH  11  58
ATOM     58  C   LIG    1       -0.161   5.612  -0.133  0.00  0.00    +0.012 C 
ATOM     59  C   LIG    1        1.378   5.479  -0.020  0.00  0.00    +0.009 C 
ATOM     60  C   LIG    1       -0.463   6.934  -0.865  0.00  0.00    +0.009 C 
ENDBRANCH  11  58
BRANCH  43  61
ATOM     61  C   LIG    1      -10.139  -5.077   3.284  0.00  0.00    +0.012 C 
ATOM     62  C   LIG    1      -11.017  -6.305   3.617  0.00  0.00    +0.009 C 
ATOM     63  C   LIG    1       -8.699  -5.350   3.765  0.00  0.00    +0.009 C 
ENDBRANCH  43  61
BRANCH   1  65
ATOM     64  C   LIG    1        0.244   0.316   4.556  0.00  0.00    +0.006 C 
ATOM     65  C   LIG    1       -1.138  -0.213   4.133  0.00  0.00    +0.028 C 
ENDBRANCH   1  65
BRANCH   6  66
ATOM     66  C   LIG    1        1.925   0.958   0.308  0.00  0.00    +0.147 C 
BRANCH  66  67
ATOM     67  O   LIG    1        2.787   1.549  -0.652  0.00  0.00    -0.389 OA
ATOM     68  H   LIG    1        2.725   1.046  -1.468  0.00  0.00    +0.210 HD
ENDBRANCH  66  67
BRANCH  66  69
ATOM     69  C   LIG    1        2.639  -0.310   0.887  0.00  0.00    +0.021 C 
ATOM     70  C   LIG    1        3.932   0.060   1.649  0.00  0.00    +0.010 C 
BRANCH  69  71
ATOM     71  C   LIG    1        2.879  -1.431  -0.159  0.00  0.00    +0.032 C 
BRANCH  71  72
ATOM     72  C   LIG    1        3.291  -2.766   0.438  0.00  0.00    -0.031 C 
ATOM     73  C   LIG    1        2.509  -3.859   0.477  0.00  0.00    -0.034 C 
ATOM     74  C   LIG    1        2.918  -5.190   1.071  0.00  0.00    +0.035 C 
ENDBRANCH  71  72
ENDBRANCH  69  71
ENDBRANCH  66  69
ENDBRANCH   6  66
BRANCH  16  75
ATOM     75  C   LIG    1       -5.321   5.926   0.237  0.00  0.00    +0.035 C 
BRANCH  75  76
ATOM     76  C   LIG    1       -4.378   6.907   0.986  0.00  0.00    -0.015 C 
ATOM     77  C   LIG    1       -4.936   8.349   0.945  0.00  0.00    +0.007 C 
ATOM     78  C   LIG    1       -4.054   6.458   2.429  0.00  0.00    +0.007 C 
ENDBRANCH  75  76
ENDBRANCH  16  75
BRANCH  21  79
ATOM     79  C   LIG    1       -7.236   3.022  -2.769  0.00  0.00    +0.035 C 
BRANCH  79  80
ATOM     80  C   LIG    1       -7.423   4.551  -2.638  0.00  0.00    -0.015 C 
ATOM     81  C   LIG    1       -6.396   5.325  -3.498  0.00  0.00    +0.007 C 
ATOM     82  C   LIG    1       -8.876   4.962  -2.963  0.00  0.00    +0.007 C 
ENDBRANCH  79  80
ENDBRANCH  21  79
BRANCH  38  83
ATOM     83  C   LIG    1      -11.557  -6.288  -1.505  0.00  0.00    +0.035 C 
BRANCH  83  84
ATOM     84  C   LIG    1      -10.571  -7.082  -2.397  0.00  0.00    -0.015 C 
ATOM     85  C   LIG    1       -9.186  -7.256  -1.735  0.00  0.00    +0.007 C 
ATOM     86  C   LIG    1      -11.185  -8.432  -2.827  0.00  0.00    +0.007 C 
ENDBRANCH  83  84
ENDBRANCH  38  83
BRANCH  48  87
ATOM     87  C   LIG    1       -8.504  -1.265  -0.456  0.00  0.00    +0.066 C 
BRANCH  87  88
ATOM     88  C   LIG    1       -9.658  -0.466   0.234  0.00  0.00    +0.063 C 
ATOM     89  C   LIG    1      -10.057   0.752  -0.625  0.00  0.00    +0.041 C 
ATOM     90  C   LIG    1       -9.346  -0.009   1.676  0.00  0.00    +0.041 C 
BRANCH  88  91
ATOM     91  O   LIG    1      -10.826  -1.261   0.279  0.00  0.00    -0.389 OA
ATOM     92  H   LIG    1      -10.638  -2.067   0.764  0.00  0.00    +0.210 HD
ENDBRANCH  88  91
ENDBRANCH  87  88
ENDBRANCH  48  87
BRANCH  53  93
ATOM     93  S   LIG    1       -5.634  -2.568   3.059  0.00  0.00    -0.131 S 
BRANCH  93  94
ATOM     94  C   LIG    1       -6.418  -1.378   4.184  0.00  0.00    +0.053 C 
BRANCH  94  95
ATOM     95  C   LIG    1       -5.426  -0.607   5.074  0.00  0.00    -0.069 C 
BRANCH  95  96
ATOM     96  N   LIG    1       -6.128   0.522   5.865  0.00  0.00    +0.376 N 
ATOM     97  H   LIG    1       -6.958   0.125   6.282  0.00  0.00    -0.083 HD
ATOM     98  C   LIG    1       -5.241   1.020   7.024  0.00  0.00    -0.097 C 
ATOM     99  C   LIG    1       -6.567   1.708   4.979  0.00  0.00    -0.097 C 
ENDBRANCH  95  96
ENDBRANCH  94  95
ENDBRANCH  93  94
ENDBRANCH  53  93
TORSDOF 21
