REMARK  Name = DB12971
REMARK                            x       y       z     vdW  Elec       q    Type
REMARK                         _______ _______ _______ _____ _____    ______ ____
ROOT
ATOM      1  N   LIG    1        2.064  -1.728   0.135  0.00  0.00    -0.328 N 
ATOM      2  C   LIG    1        3.417  -2.115   0.074  0.00  0.00    +0.055 A 
ATOM      3  C   LIG    1        4.609  -1.409   0.292  0.00  0.00    +0.058 A 
ATOM      4  C   LIG    1        5.842  -2.095   0.339  0.00  0.00    -0.023 A 
ATOM      5  C   LIG    1        7.146  -1.326   0.596  0.00  0.00    +0.046 C 
ATOM      6  C   LIG    1        5.868  -3.500   0.177  0.00  0.00    -0.029 A 
ATOM      7  C   LIG    1        4.660  -4.205  -0.025  0.00  0.00    -0.041 A 
ATOM      8  C   LIG    1        4.657  -5.726  -0.177  0.00  0.00    +0.044 C 
ATOM      9  C   LIG    1        3.451  -3.504  -0.091  0.00  0.00    -0.020 A 
ATOM     10  C   LIG    1        2.056  -4.048  -0.278  0.00  0.00    +0.056 C 
ATOM     11  C   LIG    1        1.272  -2.775  -0.494  0.00  0.00    +0.110 C 
ENDROOT
BRANCH   3  12
ATOM     12  N   LIG    1        4.561  -0.021   0.486  0.00  0.00    -0.283 N 
ATOM     13  H   LIG    1        4.254   0.302   1.392  0.00  0.00    +0.155 HD
ATOM     14  C   LIG    1        4.795   0.891  -0.485  0.00  0.00    +0.223 C 
ATOM     15  O   LIG    1        5.119   0.568  -1.632  0.00  0.00    -0.275 OA
BRANCH  14  16
ATOM     16  C   LIG    1        4.631   2.401  -0.137  0.00  0.00    +0.039 C 
ATOM     17  C   LIG    1        4.219   2.651   1.341  0.00  0.00    +0.020 C 
ATOM     18  C   LIG    1        5.977   3.122  -0.399  0.00  0.00    +0.020 C 
ATOM     19  C   LIG    1        3.542   3.009  -1.056  0.00  0.00    +0.020 C 
ENDBRANCH  14  16
ENDBRANCH   3  12
BRANCH   1  20
ATOM     20  C   LIG    1        1.533  -0.401  -0.202  0.00  0.00    +0.105 C 
BRANCH  20  21
ATOM     21  C   LIG    1        0.020  -0.193   0.028  0.00  0.00    +0.019 C 
BRANCH  21  22
ATOM     22  C   LIG    1       -0.388   1.286  -0.086  0.00  0.00    +0.002 C 
BRANCH  22  23
ATOM     23  C   LIG    1       -1.900   1.509   0.095  0.00  0.00    +0.000 C 
BRANCH  23  24
ATOM     24  C   LIG    1       -2.306   2.987  -0.038  0.00  0.00    -0.000 C 
BRANCH  24  25
ATOM     25  C   LIG    1       -3.821   3.210   0.115  0.00  0.00    -0.000 C 
BRANCH  25  27
ATOM     26  C   LIG    1       -5.740   4.907   0.102  0.00  0.00    +0.004 C 
ATOM     27  C   LIG    1       -4.227   4.687  -0.030  0.00  0.00    -0.003 C 
ENDBRANCH  25  27
ENDBRANCH  24  25
ENDBRANCH  23  24
ENDBRANCH  22  23
ENDBRANCH  21  22
ENDBRANCH  20  21
ENDBRANCH   1  20
BRANCH   6  28
ATOM     28  C   LIG    1        7.214  -4.263   0.205  0.00  0.00    +0.156 C 
BRANCH  28  29
ATOM     29  C   LIG    1        7.695  -4.648   1.629  0.00  0.00    +0.309 C 
ATOM     30  O   LIG    1        8.932  -4.754   1.786  0.00  0.00    -0.251 OA
BRANCH  29  31
ATOM     31  O   LIG    1        6.855  -4.859   2.535  0.00  0.00    -0.480 OA
ATOM     32  H   LIG    1        5.940  -4.763   2.356  0.00  0.00    +0.295 HD
ENDBRANCH  29  31
ENDBRANCH  28  29
ENDBRANCH   6  28
TORSDOF 12
