REMARK  Name = DB12439
REMARK                            x       y       z     vdW  Elec       q    Type
REMARK                         _______ _______ _______ _____ _____    ______ ____
ROOT
ATOM      1  C   LIG    1        1.880   0.212   0.306  0.00  0.00    +0.150 C 
ENDROOT
BRANCH   1   2
ATOM      2  O   LIG    1        2.309   1.006   1.396  0.00  0.00    -0.389 OA
ATOM      3  H   LIG    1        1.978   0.617   2.209  0.00  0.00    +0.210 HD
ENDBRANCH   1   2
BRANCH   1   4
ATOM      4  C   LIG    1        0.333   0.114   0.284  0.00  0.00    +0.146 C 
BRANCH   4   5
ATOM      5  N   LIG    1       -0.466   1.357   0.226  0.00  0.00    -0.270 N 
ATOM      6  C   LIG    1       -0.051   2.483  -0.411  0.00  0.00    +0.333 C 
ATOM      7  O   LIG    1       -0.710   3.519  -0.525  0.00  0.00    -0.279 OA
BRANCH   5  11
ATOM      8  C   LIG    1       -4.134   0.783   0.508  0.00  0.00    +0.065 A 
ATOM      9  C   LIG    1       -2.837   0.846  -0.035  0.00  0.00    +0.049 A 
ATOM     10  I   LIG    1       -2.477   0.274  -2.040  0.00  0.00    -0.041 I 
ATOM     11  C   LIG    1       -1.769   1.296   0.764  0.00  0.00    +0.064 A 
ATOM     12  C   LIG    1       -1.987   1.671   2.101  0.00  0.00    +0.049 A 
ATOM     13  I   LIG    1       -0.359   2.324   3.284  0.00  0.00    -0.041 I 
ATOM     14  C   LIG    1       -3.287   1.611   2.639  0.00  0.00    +0.065 A 
ATOM     15  C   LIG    1       -4.362   1.167   1.844  0.00  0.00    +0.040 A 
ATOM     16  I   LIG    1       -6.318   1.075   2.659  0.00  0.00    -0.042 I 
BRANCH   8  19
ATOM     17  N   LIG    1       -5.523  -1.008  -0.277  0.00  0.00    -0.309 N 
ATOM     18  H   LIG    1       -4.911  -1.581   0.286  0.00  0.00    +0.149 HD
ATOM     19  C   LIG    1       -5.280   0.312  -0.345  0.00  0.00    +0.246 C 
ATOM     20  O   LIG    1       -5.927   1.110  -1.025  0.00  0.00    -0.270 OA
BRANCH  17  21
ATOM     21  C   LIG    1       -6.598  -1.712  -0.982  0.00  0.00    +0.138 C 
BRANCH  21  22
ATOM     22  C   LIG    1       -7.934  -1.778  -0.200  0.00  0.00    +0.157 C 
BRANCH  22  23
ATOM     23  O   LIG    1       -8.483  -0.479  -0.073  0.00  0.00    -0.388 OA
ATOM     24  H   LIG    1       -7.803   0.108   0.268  0.00  0.00    +0.210 HD
ENDBRANCH  22  23
BRANCH  22  25
ATOM     25  C   LIG    1       -8.990  -2.676  -0.877  0.00  0.00    +0.188 C 
BRANCH  25  26
ATOM     26  O   LIG    1       -8.617  -4.039  -0.830  0.00  0.00    -0.392 OA
ATOM     27  H   LIG    1       -9.310  -4.560  -1.242  0.00  0.00    +0.210 HD
ENDBRANCH  25  26
ENDBRANCH  22  25
ENDBRANCH  21  22
ENDBRANCH  17  21
ENDBRANCH   8  19
BRANCH  14  28
ATOM     28  C   LIG    1       -3.523   2.023   4.065  0.00  0.00    +0.246 C 
ATOM     29  N   LIG    1       -3.797   3.329   4.231  0.00  0.00    -0.309 N 
ATOM     30  H   LIG    1       -3.871   3.916   3.412  0.00  0.00    +0.149 HD
ATOM     31  O   LIG    1       -3.444   1.202   4.979  0.00  0.00    -0.270 OA
BRANCH  29  32
ATOM     32  C   LIG    1       -4.002   3.984   5.523  0.00  0.00    +0.138 C 
BRANCH  32  33
ATOM     33  C   LIG    1       -2.701   4.225   6.329  0.00  0.00    +0.157 C 
BRANCH  33  34
ATOM     34  O   LIG    1       -1.814   5.057   5.600  0.00  0.00    -0.388 OA
ATOM     35  H   LIG    1       -1.674   4.666   4.734  0.00  0.00    +0.210 HD
ENDBRANCH  33  34
BRANCH  33  36
ATOM     36  C   LIG    1       -2.938   4.822   7.735  0.00  0.00    +0.188 C 
BRANCH  36  37
ATOM     37  O   LIG    1       -3.655   6.042   7.691  0.00  0.00    -0.392 OA
ATOM     38  H   LIG    1       -3.744   6.377   8.586  0.00  0.00    +0.210 HD
ENDBRANCH  36  37
ENDBRANCH  33  36
ENDBRANCH  32  33
ENDBRANCH  29  32
ENDBRANCH  14  28
ENDBRANCH   5  11
ENDBRANCH   4   5
ENDBRANCH   1   4
BRANCH   1  39
ATOM     39  C   LIG    1        2.538  -1.180   0.403  0.00  0.00    +0.146 C 
BRANCH  39  40
ATOM     40  N   LIG    1        3.983  -1.232   0.114  0.00  0.00    -0.270 N 
ATOM     41  C   LIG    1        4.875  -1.297   1.133  0.00  0.00    +0.333 C 
ATOM     42  O   LIG    1        6.099  -1.352   1.003  0.00  0.00    -0.279 OA
BRANCH  40  43
ATOM     43  C   LIG    1        4.410  -1.204  -1.233  0.00  0.00    +0.064 A 
ATOM     44  C   LIG    1        4.372  -2.397  -1.978  0.00  0.00    +0.049 A 
ATOM     45  I   LIG    1        3.749  -4.196  -1.051  0.00  0.00    -0.041 I 
ATOM     46  C   LIG    1        4.759  -2.390  -3.331  0.00  0.00    +0.065 A 
ATOM     47  C   LIG    1        5.193  -1.195  -3.937  0.00  0.00    +0.040 A 
ATOM     48  I   LIG    1        5.768  -1.186  -5.978  0.00  0.00    -0.042 I 
ATOM     49  C   LIG    1        5.250  -0.008  -3.180  0.00  0.00    +0.065 A 
ATOM     50  C   LIG    1        4.863  -0.009  -1.826  0.00  0.00    +0.049 A 
ATOM     51  I   LIG    1        4.999   1.769  -0.684  0.00  0.00    -0.041 I 
BRANCH  46  52
ATOM     52  C   LIG    1        4.720  -3.665  -4.128  0.00  0.00    +0.246 C 
ATOM     53  N   LIG    1        3.544  -3.912  -4.732  0.00  0.00    -0.309 N 
ATOM     54  H   LIG    1        2.801  -3.235  -4.639  0.00  0.00    +0.149 HD
ATOM     55  O   LIG    1        5.707  -4.398  -4.189  0.00  0.00    -0.270 OA
BRANCH  53  56
ATOM     56  C   LIG    1        3.253  -5.096  -5.542  0.00  0.00    +0.138 C 
BRANCH  56  57
ATOM     57  C   LIG    1        3.088  -6.409  -4.733  0.00  0.00    +0.157 C 
BRANCH  57  58
ATOM     58  O   LIG    1        2.009  -6.268  -3.826  0.00  0.00    -0.388 OA
ATOM     59  H   LIG    1        2.192  -5.518  -3.255  0.00  0.00    +0.210 HD
ENDBRANCH  57  58
BRANCH  57  60
ATOM     60  C   LIG    1        2.817  -7.639  -5.623  0.00  0.00    +0.188 C 
BRANCH  60  61
ATOM     61  O   LIG    1        3.950  -7.973  -6.400  0.00  0.00    -0.392 OA
ATOM     62  H   LIG    1        3.745  -8.753  -6.920  0.00  0.00    +0.210 HD
ENDBRANCH  60  61
ENDBRANCH  57  60
ENDBRANCH  56  57
ENDBRANCH  53  56
ENDBRANCH  46  52
BRANCH  49  63
ATOM     63  C   LIG    1        5.729   1.266  -3.822  0.00  0.00    +0.246 C 
ATOM     64  N   LIG    1        7.058   1.457  -3.757  0.00  0.00    -0.309 N 
ATOM     65  H   LIG    1        7.618   0.773  -3.269  0.00  0.00    +0.149 HD
ATOM     66  O   LIG    1        4.933   2.039  -4.356  0.00  0.00    -0.270 OA
BRANCH  64  67
ATOM     67  C   LIG    1        7.778   2.602  -4.318  0.00  0.00    +0.138 C 
BRANCH  67  68
ATOM     68  C   LIG    1        8.281   2.388  -5.768  0.00  0.00    +0.157 C 
BRANCH  68  69
ATOM     69  O   LIG    1        7.178   2.248  -6.646  0.00  0.00    -0.388 OA
ATOM     70  H   LIG    1        6.617   3.022  -6.562  0.00  0.00    +0.210 HD
ENDBRANCH  68  69
BRANCH  68  71
ATOM     71  C   LIG    1        9.161   3.549  -6.279  0.00  0.00    +0.188 C 
BRANCH  71  72
ATOM     72  O   LIG    1       10.398   3.598  -5.597  0.00  0.00    -0.392 OA
ATOM     73  H   LIG    1       10.240   3.882  -4.694  0.00  0.00    +0.210 HD
ENDBRANCH  71  72
ENDBRANCH  68  71
ENDBRANCH  67  68
ENDBRANCH  64  67
ENDBRANCH  49  63
ENDBRANCH  40  43
ENDBRANCH  39  40
ENDBRANCH   1  39
TORSDOF 31
