REMARK  Name = DB12774
REMARK                            x       y       z     vdW  Elec       q    Type
REMARK                         _______ _______ _______ _____ _____    ______ ____
ROOT
ATOM      1  C   LIG    1       -4.156   0.397   0.072  0.00  0.00    +0.136 A 
ATOM      2  N   LIG    1       -4.658   1.659   0.047  0.00  0.00    -0.199 NA
ATOM      3  C   LIG    1       -3.767   2.682   0.024  0.00  0.00    +0.222 A 
ATOM      4  N   LIG    1       -2.411   2.551  -0.000  0.00  0.00    -0.194 NA
ATOM      5  C   LIG    1       -1.910   1.285   0.021  0.00  0.00    +0.167 A 
ATOM      6  N   LIG    1       -0.554   1.181  -0.001  0.00  0.00    -0.227 NA
ATOM      7  C   LIG    1        0.015  -0.057   0.007  0.00  0.00    +0.073 A 
ATOM      8  C   LIG    1       -0.755  -1.226   0.044  0.00  0.00    +0.029 A 
ATOM      9  C   LIG    1       -2.145  -1.140   0.065  0.00  0.00    +0.017 A 
ATOM     10  C   LIG    1       -2.757   0.139   0.054  0.00  0.00    +0.059 A 
ENDROOT
BRANCH   1  13
ATOM     11  C   LIG    1       -4.918  -0.974  -2.472  0.00  0.00    +0.030 C 
ATOM     12  C   LIG    1       -5.811  -0.899  -1.213  0.00  0.00    +0.097 C 
ATOM     13  N   LIG    1       -5.081  -0.638   0.050  0.00  0.00    -0.307 N 
ATOM     14  C   LIG    1       -6.016  -0.703   1.186  0.00  0.00    +0.135 C 
ATOM     15  C   LIG    1       -6.784  -2.035   1.224  0.00  0.00    +0.179 C 
ATOM     16  O   LIG    1       -7.516  -2.177   0.019  0.00  0.00    -0.376 OA
ATOM     17  C   LIG    1       -6.677  -2.186  -1.127  0.00  0.00    +0.182 C 
ENDBRANCH   1  13
BRANCH   3  18
ATOM     18  N   LIG    1       -4.308   3.958  -0.085  0.00  0.00    -0.292 N 
ATOM     19  C   LIG    1       -4.812   4.438  -1.398  0.00  0.00    +0.099 C 
ATOM     20  C   LIG    1       -5.609   3.423  -2.250  0.00  0.00    +0.030 C 
ATOM     21  C   LIG    1       -5.639   5.745  -1.257  0.00  0.00    +0.182 C 
ATOM     22  O   LIG    1       -4.930   6.740  -0.531  0.00  0.00    -0.376 OA
ATOM     23  C   LIG    1       -4.543   6.297   0.758  0.00  0.00    +0.179 C 
ATOM     24  C   LIG    1       -3.632   5.066   0.613  0.00  0.00    +0.136 C 
ENDBRANCH   3  18
BRANCH   7  25
ATOM     25  C   LIG    1        1.510  -0.097  -0.011  0.00  0.00    +0.001 A 
ATOM     26  C   LIG    1        2.277   0.903   0.604  0.00  0.00    +0.019 A 
ATOM     27  C   LIG    1        3.676   0.868   0.591  0.00  0.00    +0.020 A 
ATOM     28  C   LIG    1        4.346  -0.188  -0.046  0.00  0.00    +0.125 A 
ATOM     29  C   LIG    1        3.584  -1.191  -0.665  0.00  0.00    +0.046 A 
ATOM     30  C   LIG    1        2.191  -1.142  -0.647  0.00  0.00    +0.013 A 
BRANCH  28  31
ATOM     31  O   LIG    1        5.730  -0.180  -0.026  0.00  0.00    -0.495 OA
ATOM     32  C   LIG    1        6.447  -1.239  -0.652  0.00  0.00    +0.277 C 
ENDBRANCH  28  31
BRANCH  27  33
ATOM     33  C   LIG    1        4.451   1.984   1.282  0.00  0.00    +0.194 C 
BRANCH  33  34
ATOM     34  O   LIG    1        4.979   1.585   2.529  0.00  0.00    -0.390 OA
ATOM     35  H   LIG    1        5.499   2.309   2.886  0.00  0.00    +0.210 HD
ENDBRANCH  33  34
ENDBRANCH  27  33
ENDBRANCH   7  25
TORSDOF 6
