REMARK  Name = DB12512
REMARK                            x       y       z     vdW  Elec       q    Type
REMARK                         _______ _______ _______ _____ _____    ______ ____
ROOT
ATOM      1  C   LIG    1        1.327  -0.088   0.026  0.00  0.00    +0.125 A 
ATOM      2  N   LIG    1        2.023  -1.266  -0.133  0.00  0.00    -0.200 N 
ATOM      3  N   LIG    1        1.511  -2.468  -0.492  0.00  0.00    -0.168 NA
ATOM      4  C   LIG    1        2.526  -3.309  -0.519  0.00  0.00    +0.070 A 
ATOM      5  C   LIG    1        2.256  -4.747  -0.906  0.00  0.00    +0.068 C 
ATOM      6  C   LIG    1        3.749  -2.704  -0.182  0.00  0.00    +0.049 A 
ATOM      7  C   LIG    1        3.408  -1.349   0.077  0.00  0.00    +0.166 A 
ATOM      8  N   LIG    1        4.118  -0.277   0.451  0.00  0.00    -0.232 NA
ATOM      9  C   LIG    1        3.447   0.896   0.602  0.00  0.00    +0.044 A 
ATOM     10  C   LIG    1        4.301   2.080   1.013  0.00  0.00    +0.066 C 
ATOM     11  C   LIG    1        2.073   1.037   0.399  0.00  0.00    +0.066 A 
ENDROOT
BRANCH   6  12
ATOM     12  C   LIG    1        5.101  -3.336  -0.102  0.00  0.00    -0.009 A 
ATOM     13  C   LIG    1        6.214  -2.878  -0.831  0.00  0.00    -0.039 A 
ATOM     14  C   LIG    1        6.109  -1.725  -1.821  0.00  0.00    +0.044 C 
ATOM     15  C   LIG    1        7.447  -3.522  -0.685  0.00  0.00    +0.049 A 
ATOM     16  C   LIG    1        7.597  -4.617   0.181  0.00  0.00    +0.120 A 
ATOM     17  C   LIG    1        6.485  -5.058   0.899  0.00  0.00    +0.046 A 
ATOM     18  C   LIG    1        5.252  -4.426   0.760  0.00  0.00    +0.012 A 
BRANCH  16  19
ATOM     19  O   LIG    1        8.779  -5.304   0.381  0.00  0.00    -0.495 OA
ATOM     20  C   LIG    1        9.944  -4.902  -0.331  0.00  0.00    +0.277 C 
ENDBRANCH  16  19
ENDBRANCH   6  12
BRANCH   1  21
ATOM     21  N   LIG    1       -0.064  -0.063  -0.205  0.00  0.00    -0.318 N 
ATOM     22  H   LIG    1       -0.473  -0.886  -0.624  0.00  0.00    +0.148 HD
BRANCH  21  23
ATOM     23  C   LIG    1       -0.893   1.145  -0.140  0.00  0.00    +0.160 C 
BRANCH  23  24
ATOM     24  C   LIG    1       -0.882   1.827   1.223  0.00  0.00    +0.248 A 
ATOM     25  O   LIG    1       -1.026   3.175   1.257  0.00  0.00    -0.336 OA
ATOM     26  N   LIG    1       -1.020   3.502   2.610  0.00  0.00    -0.062 NA
ATOM     27  C   LIG    1       -0.911   2.331   3.197  0.00  0.00    +0.169 A 
ATOM     28  C   LIG    1       -0.854   2.198   4.702  0.00  0.00    +0.091 C 
ATOM     29  N   LIG    1       -0.829   1.278   2.409  0.00  0.00    -0.195 NA
ENDBRANCH  23  24
BRANCH  23  31
ATOM     30  C   LIG    1       -2.507   0.353  -2.005  0.00  0.00    +0.006 C 
ATOM     31  C   LIG    1       -2.351   0.838  -0.553  0.00  0.00    +0.028 C 
ENDBRANCH  23  31
ENDBRANCH  21  23
ENDBRANCH   1  21
TORSDOF 6
