REMARK  Name = DB12040
REMARK                            x       y       z     vdW  Elec       q    Type
REMARK                         _______ _______ _______ _____ _____    ______ ____
ROOT
ATOM      1  C   LIG    1        2.127  -1.393   0.018  0.00  0.00    +0.174 C 
ATOM      2  C   LIG    1        1.734  -2.337   1.167  0.00  0.00    +0.052 C 
ENDROOT
BRANCH   1   3
ATOM      3  C   LIG    1        1.508   0.022   0.153  0.00  0.00    +0.044 C 
BRANCH   3   4
ATOM      4  C   LIG    1       -0.032   0.074   0.078  0.00  0.00    +0.004 C 
BRANCH   4   5
ATOM      5  C   LIG    1       -0.586   1.508   0.128  0.00  0.00    +0.000 C 
BRANCH   5   6
ATOM      6  C   LIG    1       -2.122   1.560   0.043  0.00  0.00    -0.000 C 
BRANCH   6   8
ATOM      7  C   LIG    1       -4.209   3.043  -0.037  0.00  0.00    +0.004 C 
ATOM      8  C   LIG    1       -2.678   2.994   0.059  0.00  0.00    -0.003 C 
ENDBRANCH   6   8
ENDBRANCH   5   6
ENDBRANCH   4   5
ENDBRANCH   3   4
ENDBRANCH   1   3
BRANCH   1   9
ATOM      9  O   LIG    1        1.759  -2.026  -1.210  0.00  0.00    -0.458 OA
BRANCH   9  10
ATOM     10  C   LIG    1        2.321  -1.684  -2.405  0.00  0.00    +0.349 C 
ATOM     11  O   LIG    1        3.205  -0.831  -2.524  0.00  0.00    -0.244 OA
BRANCH  10  12
ATOM     12  C   LIG    1        1.787  -2.424  -3.561  0.00  0.00    +0.128 C 
ATOM     13  C   LIG    1        0.820  -3.357  -3.448  0.00  0.00    +0.036 C 
BRANCH  12  14
ATOM     14  C   LIG    1        2.345  -2.107  -4.838  0.00  0.00    +0.106 C 
ATOM     15  N   LIG    1        2.781  -1.864  -5.882  0.00  0.00    -0.191 NA
ENDBRANCH  12  14
ENDBRANCH  10  12
ENDBRANCH   9  10
ENDBRANCH   1   9
TORSDOF 9
