REMARK  Name = DB12185
REMARK                            x       y       z     vdW  Elec       q    Type
REMARK                         _______ _______ _______ _____ _____    ______ ____
ROOT
ATOM      1  C   LIG    1        1.525  -0.053   0.018  0.00  0.00    +0.188 C 
ATOM      2  C   LIG    1        1.921  -1.557   0.007  0.00  0.00    +0.344 C 
ATOM      3  O   LIG    1        2.156  -2.273   0.981  0.00  0.00    -0.247 OA
ATOM      4  O   LIG    1        2.096  -2.143  -1.220  0.00  0.00    -0.457 OA
ATOM      5  C   LIG    1        1.832  -1.442  -2.446  0.00  0.00    +0.273 C 
ATOM      6  C   LIG    1        2.194   0.044  -2.389  0.00  0.00    +0.061 A 
ATOM      7  C   LIG    1        2.684   0.685  -3.621  0.00  0.00    +0.259 A 
ATOM      8  O   LIG    1        2.815   0.080  -4.687  0.00  0.00    -0.267 OA
ATOM      9  N   LIG    1        2.982   2.020  -3.498  0.00  0.00    -0.302 N 
ATOM     10  C   LIG    1        3.477   2.839  -4.601  0.00  0.00    +0.163 C 
ATOM     11  C   LIG    1        3.621   4.185  -3.942  0.00  0.00    +0.002 A 
ATOM     12  C   LIG    1        4.049   5.415  -4.455  0.00  0.00    -0.045 A 
ATOM     13  C   LIG    1        4.473   5.579  -5.914  0.00  0.00    -0.043 C 
ATOM     14  C   LIG    1        5.513   6.707  -6.046  0.00  0.00    -0.007 C 
ATOM     15  C   LIG    1        5.032   8.026  -5.417  0.00  0.00    +0.035 C 
ATOM     16  C   LIG    1        4.563   7.818  -3.969  0.00  0.00    -0.032 A 
ATOM     17  C   LIG    1        4.563   8.866  -3.026  0.00  0.00    -0.011 A 
ATOM     18  C   LIG    1        5.010  10.267  -3.434  0.00  0.00    +0.047 C 
ATOM     19  C   LIG    1        4.142   8.653  -1.709  0.00  0.00    +0.129 A 
ATOM     20  F   LIG    1        4.154   9.669  -0.814  0.00  0.00    -0.205 F 
ATOM     21  C   LIG    1        3.709   7.404  -1.285  0.00  0.00    +0.067 A 
ATOM     22  C   LIG    1        3.678   6.321  -2.184  0.00  0.00    +0.075 A 
ATOM     23  N   LIG    1        3.254   5.109  -1.733  0.00  0.00    -0.245 NA
ATOM     24  C   LIG    1        4.093   6.526  -3.534  0.00  0.00    +0.006 A 
ATOM     25  C   LIG    1        3.243   4.083  -2.614  0.00  0.00    +0.093 A 
ATOM     26  C   LIG    1        2.836   2.706  -2.316  0.00  0.00    +0.071 A 
ATOM     27  C   LIG    1        2.401   2.130  -1.179  0.00  0.00    +0.035 A 
ATOM     28  C   LIG    1        2.064   0.707  -1.204  0.00  0.00    +0.008 A 
ENDROOT
BRANCH  13  29
ATOM     29  N   LIG    1        3.224   5.921  -6.746  0.00  0.00    +0.383 N 
ATOM     30  H   LIG    1        2.817   6.786  -6.421  0.00  0.00    -0.089 HD
ATOM     31  H   LIG    1        3.475   6.028  -7.719  0.00  0.00    -0.089 HD
ATOM     32  H   LIG    1        2.539   5.182  -6.669  0.00  0.00    -0.089 HD
ENDBRANCH  13  29
BRANCH   1  34
ATOM     33  C   LIG    1       -0.634   1.447   0.170  0.00  0.00    +0.007 C 
ATOM     34  C   LIG    1       -0.033   0.030   0.077  0.00  0.00    +0.048 C 
ENDBRANCH   1  34
BRANCH   1  35
ATOM     35  O   LIG    1        2.012   0.511   1.229  0.00  0.00    -0.373 OA
ATOM     36  H   LIG    1        2.968   0.421   1.245  0.00  0.00    +0.211 HD
ENDBRANCH   1  35
TORSDOF 3
