REMARK  Name = DB12303
REMARK                            x       y       z     vdW  Elec       q    Type
REMARK                         _______ _______ _______ _____ _____    ______ ____
ROOT
ATOM      1  C   LIG    1        1.440   0.086   0.096  0.00  0.00    +0.027 C 
ATOM      2  C   LIG    1        2.303  -0.443  -1.046  0.00  0.00    +0.164 C 
ATOM      3  C   LIG    1        3.318   0.575  -1.517  0.00  0.00    +0.246 C 
ATOM      4  N   LIG    1        4.208   1.134  -0.689  0.00  0.00    -0.245 N 
ATOM      5  H   LIG    1        4.931   1.682  -1.133  0.00  0.00    +0.311 HD
ATOM      6  C   LIG    1        4.408   0.983   0.718  0.00  0.00    +0.134 A 
ATOM      7  C   LIG    1        5.709   1.198   1.192  0.00  0.00    +0.060 A 
ATOM      8  C   LIG    1        6.026   1.102   2.554  0.00  0.00    -0.014 A 
ATOM      9  C   LIG    1        4.992   0.794   3.445  0.00  0.00    +0.009 A 
ATOM     10  C   LIG    1        3.690   0.603   2.993  0.00  0.00    +0.012 A 
ATOM     11  C   LIG    1        3.373   0.699   1.634  0.00  0.00    +0.022 A 
ATOM     12  C   LIG    1        1.955   0.522   1.263  0.00  0.00    +0.021 C 
ENDROOT
BRANCH   8  13
ATOM     13  C   LIG    1        7.421   1.325   3.042  0.00  0.00    -0.018 A 
ATOM     14  C   LIG    1        8.259   2.261   2.421  0.00  0.00    +0.009 A 
ATOM     15  C   LIG    1        9.557   2.473   2.877  0.00  0.00    +0.013 A 
ATOM     16  C   LIG    1       10.048   1.760   3.978  0.00  0.00    +0.037 A 
ATOM     17  C   LIG    1        9.224   0.807   4.587  0.00  0.00    +0.013 A 
ATOM     18  C   LIG    1        7.925   0.600   4.129  0.00  0.00    +0.009 A 
BRANCH  16  19
ATOM     19  C   LIG    1       11.464   1.949   4.480  0.00  0.00    +0.247 C 
ATOM     20  N   LIG    1       11.984   3.203   4.571  0.00  0.00    -0.298 N 
ATOM     21  C   LIG    1       11.219   4.456   4.475  0.00  0.00    +0.108 C 
ATOM     22  C   LIG    1       12.054   5.419   5.316  0.00  0.00    +0.020 C 
ATOM     23  C   LIG    1       13.478   4.945   5.101  0.00  0.00    +0.020 C 
ATOM     24  C   LIG    1       13.350   3.424   5.072  0.00  0.00    +0.108 C 
ATOM     25  O   LIG    1       12.111   0.949   4.803  0.00  0.00    -0.270 OA
ENDBRANCH  16  19
ENDBRANCH   8  13
BRANCH   1  27
ATOM     26  N   LIG    1       -0.685   1.237  -0.054  0.00  0.00    -0.298 N 
ATOM     27  C   LIG    1       -0.002   0.054  -0.078  0.00  0.00    +0.243 C 
ATOM     28  O   LIG    1       -0.563  -1.029  -0.254  0.00  0.00    -0.270 OA
BRANCH  26  29
ATOM     29  C   LIG    1       -0.063   2.568  -0.176  0.00  0.00    +0.108 C 
BRANCH  29  31
ATOM     30  C   LIG    1        0.872   4.361  -1.736  0.00  0.00    +0.005 C 
ATOM     31  C   LIG    1        0.202   2.985  -1.634  0.00  0.00    +0.016 C 
ENDBRANCH  29  31
ENDBRANCH  26  29
BRANCH  26  32
ATOM     32  C   LIG    1       -2.154   1.260  -0.162  0.00  0.00    +0.108 C 
BRANCH  32  33
ATOM     33  C   LIG    1       -2.880   0.835   1.129  0.00  0.00    +0.016 C 
ATOM     34  C   LIG    1       -4.406   0.918   0.997  0.00  0.00    +0.005 C 
ENDBRANCH  32  33
ENDBRANCH  26  32
ENDBRANCH   1  27
BRANCH   3  35
ATOM     35  N   LIG    1        3.421   0.905  -2.801  0.00  0.00    -0.253 N 
ATOM     36  H   LIG    1        2.802   0.484  -3.479  0.00  0.00    +0.288 HD
ATOM     37  H   LIG    1        4.111   1.581  -3.097  0.00  0.00    +0.288 HD
ENDBRANCH   3  35
TORSDOF 8
