REMARK  Name = DB12515
REMARK                            x       y       z     vdW  Elec       q    Type
REMARK                         _______ _______ _______ _____ _____    ______ ____
ROOT
ATOM      1  C   LIG    1        1.538  -0.008  -0.028  0.00  0.00    +0.188 C 
ATOM      2  C   LIG    1        2.032   0.588  -1.375  0.00  0.00    +0.344 C 
ATOM      3  O   LIG    1        2.082   0.015  -2.463  0.00  0.00    -0.247 OA
ATOM      4  O   LIG    1        2.521   1.865  -1.360  0.00  0.00    -0.457 OA
ATOM      5  C   LIG    1        2.489   2.705  -0.195  0.00  0.00    +0.273 C 
ATOM      6  C   LIG    1        2.570   1.956   1.137  0.00  0.00    +0.061 A 
ATOM      7  C   LIG    1        3.131   2.684   2.290  0.00  0.00    +0.259 A 
ATOM      8  O   LIG    1        3.543   3.844   2.213  0.00  0.00    -0.267 OA
ATOM      9  N   LIG    1        3.154   1.978   3.466  0.00  0.00    -0.302 N 
ATOM     10  C   LIG    1        3.666   2.523   4.723  0.00  0.00    +0.162 C 
ATOM     11  C   LIG    1        3.457   1.363   5.654  0.00  0.00    +0.000 A 
ATOM     12  C   LIG    1        3.736   1.212   7.010  0.00  0.00    +0.019 A 
ATOM     13  C   LIG    1        3.432  -0.026   7.652  0.00  0.00    +0.021 A 
ATOM     14  C   LIG    1        3.682  -0.284   9.034  0.00  0.00    +0.034 A 
ATOM     15  C   LIG    1        3.351  -1.528   9.573  0.00  0.00    +0.023 A 
ATOM     16  C   LIG    1        2.780  -2.523   8.788  0.00  0.00    +0.004 A 
ATOM     17  C   LIG    1        2.524  -2.303   7.439  0.00  0.00    +0.028 A 
ATOM     18  C   LIG    1        2.843  -1.058   6.849  0.00  0.00    +0.073 A 
ATOM     19  N   LIG    1        2.576  -0.887   5.522  0.00  0.00    -0.245 NA
ATOM     20  C   LIG    1        2.889   0.308   4.967  0.00  0.00    +0.093 A 
ATOM     21  C   LIG    1        2.691   0.686   3.564  0.00  0.00    +0.071 A 
ATOM     22  C   LIG    1        2.184   0.006   2.518  0.00  0.00    +0.035 A 
ATOM     23  C   LIG    1        2.127   0.669   1.216  0.00  0.00    +0.008 A 
ENDROOT
BRANCH  14  24
ATOM     24  N   LIG    1        4.253   0.669   9.884  0.00  0.00    -0.357 N 
ATOM     25  H   LIG    1        4.410   0.437  10.855  0.00  0.00    +0.142 HD
ATOM     26  H   LIG    1        4.500   1.577   9.520  0.00  0.00    +0.142 HD
ENDBRANCH  14  24
BRANCH   1  28
ATOM     27  C   LIG    1       -0.696   1.402   0.011  0.00  0.00    +0.007 C 
ATOM     28  C   LIG    1       -0.022   0.014   0.024  0.00  0.00    +0.048 C 
ENDBRANCH   1  28
BRANCH   1  29
ATOM     29  O   LIG    1        1.874  -1.389  -0.035  0.00  0.00    -0.373 OA
ATOM     30  H   LIG    1        2.830  -1.470  -0.057  0.00  0.00    +0.211 HD
ENDBRANCH   1  29
TORSDOF 3
