REMARK  Name = DB12238
REMARK                            x       y       z     vdW  Elec       q    Type
REMARK                         _______ _______ _______ _____ _____    ______ ____
ROOT
ATOM      1  C   LIG    1        1.898  -1.305  -0.092  0.00  0.00    +0.237 A 
ATOM      2  N   LIG    1        1.068  -2.389  -0.117  0.00  0.00    -0.125 NA
ATOM      3  N   LIG    1        1.660  -3.579   0.051  0.00  0.00    -0.189 N 
ATOM      4  C   LIG    1        1.083  -4.839   0.081  0.00  0.00    +0.188 A 
ATOM      5  N   LIG    1        2.028  -5.738   0.294  0.00  0.00    -0.127 NA
ATOM      6  N   LIG    1        3.258  -5.113   0.409  0.00  0.00    -0.128 NA
ATOM      7  C   LIG    1        3.025  -3.792   0.259  0.00  0.00    +0.179 A 
ATOM      8  C   LIG    1        3.859  -2.666   0.278  0.00  0.00    +0.059 A 
ATOM      9  C   LIG    1        3.297  -1.387   0.096  0.00  0.00    +0.025 A 
ENDROOT
BRANCH   4  10
ATOM     10  C   LIG    1       -0.369  -5.169  -0.125  0.00  0.00    +0.056 A 
ATOM     11  C   LIG    1       -0.970  -6.260   0.528  0.00  0.00    +0.134 A 
ATOM     12  F   LIG    1       -0.264  -7.029   1.392  0.00  0.00    -0.205 F 
ATOM     13  C   LIG    1       -2.315  -6.563   0.312  0.00  0.00    +0.039 A 
ATOM     14  C   LIG    1       -3.078  -5.789  -0.559  0.00  0.00    +0.003 A 
ATOM     15  C   LIG    1       -2.494  -4.710  -1.219  0.00  0.00    +0.001 A 
ATOM     16  C   LIG    1       -1.151  -4.405  -1.004  0.00  0.00    +0.014 A 
ENDBRANCH   4  10
BRANCH   9  17
ATOM     17  C   LIG    1        4.193  -0.110   0.106  0.00  0.00    -0.007 C 
ATOM     18  C   LIG    1        4.085   0.640  -1.247  0.00  0.00    +0.016 C 
ATOM     19  C   LIG    1        3.779   0.832   1.267  0.00  0.00    +0.016 C 
ATOM     20  C   LIG    1        5.701  -0.426   0.311  0.00  0.00    +0.016 C 
ENDBRANCH   9  17
BRANCH   1  21
ATOM     21  O   LIG    1        1.310  -0.063  -0.262  0.00  0.00    -0.467 OA
BRANCH  21  22
ATOM     22  C   LIG    1       -0.101   0.063  -0.456  0.00  0.00    +0.306 C 
BRANCH  22  27
ATOM     23  N   LIG    1       -1.748   1.986  -0.831  0.00  0.00    -0.246 N 
ATOM     24  N   LIG    1       -1.734   3.320  -0.910  0.00  0.00    -0.158 NA
ATOM     25  C   LIG    1       -0.454   3.576  -0.755  0.00  0.00    +0.245 A 
ATOM     26  N   LIG    1        0.355   2.545  -0.576  0.00  0.00    -0.216 NA
ATOM     27  C   LIG    1       -0.471   1.526  -0.619  0.00  0.00    +0.165 A 
BRANCH  23  29
ATOM     28  C   LIG    1       -3.849   1.425   0.341  0.00  0.00    +0.029 C 
ATOM     29  C   LIG    1       -3.004   1.248  -0.931  0.00  0.00    +0.142 C 
ENDBRANCH  23  29
ENDBRANCH  22  27
ENDBRANCH  21  22
ENDBRANCH   1  21
TORSDOF 6
