REMARK  Name = DB12082
REMARK                            x       y       z     vdW  Elec       q    Type
REMARK                         _______ _______ _______ _____ _____    ______ ____
ROOT
ATOM      1  C   LIG    1        1.364  -0.192  -0.011  0.00  0.00    +0.247 C 
ATOM      2  O   LIG    1        1.944  -0.498   1.035  0.00  0.00    -0.270 OA
ATOM      3  N   LIG    1        2.034   0.214  -1.128  0.00  0.00    -0.295 N 
ATOM      4  C   LIG    1        3.488   0.406  -1.098  0.00  0.00    +0.127 C 
ATOM      5  C   LIG    1        3.824   1.758  -1.767  0.00  0.00    +0.124 C 
ATOM      6  N   LIG    1        3.205   2.020  -3.083  0.00  0.00    -0.327 N 
ATOM      7  C   LIG    1        1.788   1.604  -3.131  0.00  0.00    +0.124 C 
ATOM      8  C   LIG    1        1.458   0.245  -2.477  0.00  0.00    +0.127 C 
ENDROOT
BRANCH   6   9
ATOM      9  C   LIG    1        3.677   3.039  -3.922  0.00  0.00    +0.030 A 
ATOM     10  C   LIG    1        3.193   3.181  -5.235  0.00  0.00    +0.028 A 
ATOM     11  C   LIG    1        3.667   4.174  -6.097  0.00  0.00    -0.024 A 
ATOM     12  C   LIG    1        4.645   5.061  -5.636  0.00  0.00    +0.037 A 
ATOM     13  N   LIG    1        5.091   6.098  -6.459  0.00  0.00    -0.285 N 
ATOM     14  H   LIG    1        5.898   6.624  -6.158  0.00  0.00    +0.155 HD
ATOM     15  C   LIG    1        4.516   6.572  -7.585  0.00  0.00    +0.218 C 
ATOM     16  O   LIG    1        4.966   7.533  -8.205  0.00  0.00    -0.275 OA
ATOM     17  C   LIG    1        3.213   5.825  -7.982  0.00  0.00    +0.101 C 
ATOM     18  C   LIG    1        5.160   4.932  -4.349  0.00  0.00    +0.025 A 
ATOM     19  C   LIG    1        3.189   4.336  -7.534  0.00  0.00    +0.046 C 
ATOM     20  C   LIG    1        4.685   3.928  -3.507  0.00  0.00    +0.025 A 
ENDBRANCH   6   9
BRANCH   1  24
ATOM     21  C   LIG    1       -2.968  -0.351   0.040  0.00  0.00    +0.162 A 
ATOM     22  C   LIG    1       -2.321   0.758  -0.525  0.00  0.00    +0.162 A 
ATOM     23  C   LIG    1       -0.916   0.801  -0.540  0.00  0.00    +0.062 A 
ATOM     24  C   LIG    1       -0.148  -0.250  -0.022  0.00  0.00    +0.041 A 
ATOM     25  C   LIG    1       -0.807  -1.337   0.560  0.00  0.00    +0.017 A 
ATOM     26  C   LIG    1       -2.198  -1.391   0.585  0.00  0.00    +0.050 A 
BRANCH  21  28
ATOM     27  C   LIG    1       -5.061  -1.445   0.592  0.00  0.00    +0.277 C 
ATOM     28  O   LIG    1       -4.352  -0.346   0.029  0.00  0.00    -0.491 OA
ENDBRANCH  21  28
BRANCH  22  29
ATOM     29  O   LIG    1       -3.123   1.761  -1.040  0.00  0.00    -0.491 OA
ATOM     30  C   LIG    1       -2.521   2.906  -1.636  0.00  0.00    +0.277 C 
ENDBRANCH  22  29
ENDBRANCH   1  24
TORSDOF 4
