REMARK  Name = DB12153
REMARK                            x       y       z     vdW  Elec       q    Type
REMARK                         _______ _______ _______ _____ _____    ______ ____
ROOT
ATOM      1  C   LIG    1       -0.602  -3.635   0.507  0.00  0.00    +0.195 C 
ATOM      2  C   LIG    1       -0.600  -2.963  -0.867  0.00  0.00    +0.178 C 
ATOM      3  C   LIG    1        0.762  -3.365  -1.462  0.00  0.00    +0.178 C 
ATOM      4  O   LIG    1        1.111  -4.574  -0.788  0.00  0.00    -0.346 OA
ATOM      5  C   LIG    1        0.134  -4.929   0.146  0.00  0.00    +0.255 C 
ENDROOT
BRANCH   5   6
ATOM      6  N   LIG    1        0.712  -5.727   1.230  0.00  0.00    -0.270 N 
ATOM      7  C   LIG    1        1.607  -5.117   2.079  0.00  0.00    +0.096 A 
ATOM      8  C   LIG    1        2.227  -5.771   3.071  0.00  0.00    +0.061 A 
ATOM      9  C   LIG    1        1.912  -7.161   3.225  0.00  0.00    +0.123 A 
ATOM     10  N   LIG    1        1.088  -7.750   2.428  0.00  0.00    -0.178 NA
ATOM     11  C   LIG    1        0.464  -7.092   1.343  0.00  0.00    +0.352 A 
ATOM     12  O   LIG    1       -0.259  -7.660   0.522  0.00  0.00    -0.244 OA
BRANCH   9  13
ATOM     13  N   LIG    1        2.501  -7.825   4.229  0.00  0.00    -0.343 N 
ATOM     14  H   LIG    1        2.304  -8.805   4.374  0.00  0.00    +0.144 HD
ATOM     15  H   LIG    1        3.144  -7.356   4.850  0.00  0.00    +0.144 HD
ENDBRANCH   9  13
ENDBRANCH   5   6
BRANCH   2  16
ATOM     16  O   LIG    1       -1.680  -3.366  -1.696  0.00  0.00    -0.386 OA
ATOM     17  H   LIG    1       -1.686  -4.325  -1.740  0.00  0.00    +0.210 HD
ENDBRANCH   2  16
BRANCH   1  18
ATOM     18  O   LIG    1       -1.852  -3.914   1.110  0.00  0.00    -0.385 OA
ATOM     19  H   LIG    1       -2.241  -3.086   1.403  0.00  0.00    +0.210 HD
ENDBRANCH   1  18
BRANCH   3  20
ATOM     20  C   LIG    1        1.916  -2.361  -1.258  0.00  0.00    +0.206 C 
BRANCH  20  21
ATOM     21  O   LIG    1        2.141  -2.108   0.122  0.00  0.00    -0.284 OA
BRANCH  21  22
ATOM     22  P   LIG    1        2.101  -0.596   0.731  0.00  0.00    +0.483 P 
ATOM     23  O   LIG    1        2.309  -0.499   2.201  0.00  0.00    -0.227 OA
BRANCH  22  24
ATOM     24  O   LIG    1        3.193   0.205  -0.166  0.00  0.00    -0.302 OA
ATOM     25  H   LIG    1        3.785   0.804   0.327  0.00  0.00    +0.222 HD
ENDBRANCH  22  24
BRANCH  22  26
ATOM     26  O   LIG    1        0.687  -0.015   0.193  0.00  0.00    -0.186 OA
BRANCH  26  27
ATOM     27  P   LIG    1       -0.222   1.428   0.071  0.00  0.00    +0.483 P 
ATOM     28  O   LIG    1        0.308   2.414   1.087  0.00  0.00    -0.227 OA
BRANCH  27  29
ATOM     29  O   LIG    1       -1.682   1.048  -0.036  0.00  0.00    -0.302 OA
ATOM     30  H   LIG    1       -2.012   0.783   0.837  0.00  0.00    +0.222 HD
ENDBRANCH  27  29
BRANCH  27  31
ATOM     31  O   LIG    1        0.362   1.900  -1.490  0.00  0.00    -0.288 OA
BRANCH  31  32
ATOM     32  C   LIG    1       -0.041   1.130  -2.610  0.00  0.00    +0.154 C 
BRANCH  32  33
ATOM     33  C   LIG    1       -1.343   1.714  -3.206  0.00  0.00    -0.047 C 
BRANCH  33  34
ATOM     34  N   LIG    1       -2.052   0.770  -4.220  0.00  0.00    +0.376 N 
ATOM     35  C   LIG    1       -2.553  -0.526  -3.536  0.00  0.00    -0.093 C 
ATOM     36  C   LIG    1       -1.115   0.402  -5.396  0.00  0.00    -0.093 C 
ATOM     37  C   LIG    1       -3.282   1.517  -4.792  0.00  0.00    -0.093 C 
ENDBRANCH  33  34
ENDBRANCH  32  33
ENDBRANCH  31  32
ENDBRANCH  27  31
ENDBRANCH  26  27
ENDBRANCH  22  26
ENDBRANCH  21  22
ENDBRANCH  20  21
ENDBRANCH   3  20
TORSDOF 15
