REMARK  Name = DB12323
REMARK                            x       y       z     vdW  Elec       q    Type
REMARK                         _______ _______ _______ _____ _____    ______ ____
ROOT
ATOM      1  C   LIG    1       -4.627   0.040   0.508  0.00  0.00    +0.045 C 
ATOM      2  C   LIG    1       -3.104   0.077   0.447  0.00  0.00    -0.029 A 
ATOM      3  C   LIG    1       -2.410   1.241   0.073  0.00  0.00    +0.037 A 
ATOM      4  C   LIG    1       -1.009   1.223   0.048  0.00  0.00    +0.036 A 
ATOM      5  C   LIG    1       -0.284   0.059   0.349  0.00  0.00    +0.039 A 
ATOM      6  C   LIG    1       -0.997  -1.093   0.707  0.00  0.00    +0.013 A 
ATOM      7  C   LIG    1       -2.389  -1.082   0.758  0.00  0.00    +0.006 A 
ENDROOT
BRANCH   5   8
ATOM      8  C   LIG    1        1.230   0.032   0.307  0.00  0.00    +0.248 C 
ATOM      9  N   LIG    1        1.810   0.998  -0.445  0.00  0.00    -0.281 N 
ATOM     10  H   LIG    1        1.175   1.622  -0.921  0.00  0.00    +0.155 HD
ATOM     11  O   LIG    1        1.844  -0.849   0.912  0.00  0.00    -0.270 OA
BRANCH   9  12
ATOM     12  C   LIG    1        3.172   1.276  -0.672  0.00  0.00    +0.036 A 
ATOM     13  C   LIG    1        4.243   0.643  -0.019  0.00  0.00    +0.049 A 
ATOM     14  C   LIG    1        5.564   1.005  -0.308  0.00  0.00    +0.050 A 
ATOM     15  C   LIG    1        5.817   2.005  -1.254  0.00  0.00    +0.038 A 
ATOM     16  C   LIG    1        4.761   2.648  -1.910  0.00  0.00    +0.059 A 
ATOM     17  C   LIG    1        3.445   2.277  -1.609  0.00  0.00    +0.035 A 
BRANCH  14  18
ATOM     18  N   LIG    1        6.634   0.369   0.356  0.00  0.00    -0.306 N 
ATOM     19  C   LIG    1        7.897   0.097  -0.118  0.00  0.00    +0.204 A 
ATOM     20  N   LIG    1        8.670  -0.515   0.746  0.00  0.00    -0.241 NA
ATOM     21  C   LIG    1        7.932  -0.668   1.833  0.00  0.00    +0.056 A 
ATOM     22  C   LIG    1        8.501  -1.346   3.057  0.00  0.00    +0.067 C 
ATOM     23  C   LIG    1        6.665  -0.136   1.635  0.00  0.00    +0.115 A 
ENDBRANCH  14  18
BRANCH  16  24
ATOM     24  C   LIG    1        5.039   3.746  -2.936  0.00  0.00    +0.418 C 
ATOM     25  F   LIG    1        4.995   4.929  -2.325  0.00  0.00    -0.166 F 
ATOM     26  F   LIG    1        4.129   3.739  -3.911  0.00  0.00    -0.166 F 
ATOM     27  F   LIG    1        6.242   3.605  -3.497  0.00  0.00    -0.166 F 
ENDBRANCH  16  24
ENDBRANCH   9  12
ENDBRANCH   5   8
BRANCH   3  28
ATOM     28  N   LIG    1       -3.119   2.417  -0.243  0.00  0.00    -0.283 N 
ATOM     29  H   LIG    1       -3.941   2.580   0.320  0.00  0.00    +0.155 HD
BRANCH  28  30
ATOM     30  C   LIG    1       -2.848   3.424  -1.182  0.00  0.00    +0.220 A 
ATOM     31  N   LIG    1       -1.843   3.245  -2.083  0.00  0.00    -0.213 NA
ATOM     32  C   LIG    1       -1.616   4.229  -2.998  0.00  0.00    +0.096 A 
ATOM     33  C   LIG    1       -2.408   5.390  -3.005  0.00  0.00    +0.050 A 
ATOM     34  C   LIG    1       -3.421   5.487  -2.049  0.00  0.00    +0.116 A 
ATOM     35  N   LIG    1       -3.656   4.513  -1.133  0.00  0.00    -0.223 NA
BRANCH  32  36
ATOM     36  C   LIG    1       -0.497   3.990  -3.968  0.00  0.00    +0.107 A 
ATOM     37  N   LIG    1       -0.248   4.971  -4.885  0.00  0.00    -0.250 NA
ATOM     38  C   LIG    1        0.756   4.777  -5.779  0.00  0.00    +0.131 A 
ATOM     39  C   LIG    1        1.518   3.609  -5.771  0.00  0.00    +0.130 A 
ATOM     40  N   LIG    1        1.289   2.622  -4.867  0.00  0.00    -0.260 NA
ATOM     41  C   LIG    1        0.284   2.819  -3.973  0.00  0.00    +0.140 A 
ENDBRANCH  32  36
ENDBRANCH  28  30
ENDBRANCH   3  28
TORSDOF 7
