REMARK  Name = DB12907
REMARK                            x       y       z     vdW  Elec       q    Type
REMARK                         _______ _______ _______ _____ _____    ______ ____
ROOT
ATOM      1  C   LIG    1        1.524   0.043   0.034  0.00  0.00    +0.176 C 
ENDROOT
BRANCH   1   2
ATOM      2  O   LIG    1        2.079   0.540  -1.175  0.00  0.00    -0.386 OA
ATOM      3  H   LIG    1        1.796  -0.028  -1.896  0.00  0.00    +0.210 HD
ENDBRANCH   1   2
BRANCH   1   4
ATOM      4  C   LIG    1       -0.035   0.002  -0.068  0.00  0.00    +0.181 C 
BRANCH   4   5
ATOM      5  O   LIG    1       -0.535   1.333  -0.066  0.00  0.00    -0.386 OA
ATOM      6  H   LIG    1       -0.125   1.813  -0.790  0.00  0.00    +0.210 HD
ENDBRANCH   4   5
BRANCH   4   7
ATOM      7  C   LIG    1       -0.587  -0.775  -1.302  0.00  0.00    +0.208 C 
BRANCH   7   8
ATOM      8  C   LIG    1       -2.129  -0.859  -1.329  0.00  0.00    +0.257 C 
ATOM      9  O   LIG    1       -2.748  -1.925  -1.357  0.00  0.00    -0.298 OA
ENDBRANCH   7   8
BRANCH   7  10
ATOM     10  O   LIG    1       -0.048  -2.090  -1.332  0.00  0.00    -0.382 OA
ATOM     11  H   LIG    1       -0.399  -2.546  -2.101  0.00  0.00    +0.210 HD
ENDBRANCH   7  10
ENDBRANCH   4   7
ENDBRANCH   1   4
BRANCH   1  12
ATOM     12  C   LIG    1        2.096   0.843   1.242  0.00  0.00    +0.171 C 
BRANCH  12  13
ATOM     13  O   LIG    1        1.524   0.356   2.445  0.00  0.00    -0.387 OA
ATOM     14  H   LIG    1        1.768  -0.567   2.547  0.00  0.00    +0.210 HD
ENDBRANCH  12  13
BRANCH  12  15
ATOM     15  C   LIG    1        3.638   0.762   1.368  0.00  0.00    +0.189 C 
BRANCH  15  16
ATOM     16  O   LIG    1        4.122   1.671   2.337  0.00  0.00    -0.392 OA
ATOM     17  H   LIG    1        3.783   1.410   3.196  0.00  0.00    +0.210 HD
ENDBRANCH  15  16
ENDBRANCH  12  15
ENDBRANCH   1  12
TORSDOF 10
