REMARK  Name = DB12129
REMARK                            x       y       z     vdW  Elec       q    Type
REMARK                         _______ _______ _______ _____ _____    ______ ____
ROOT
ATOM      1  N   LIG    1        1.597  -0.089  -0.351  0.00  0.00    -0.249 N 
ATOM      2  C   LIG    1        2.280   0.353  -1.424  0.00  0.00    +0.311 A 
ATOM      3  O   LIG    1        1.854   0.635  -2.545  0.00  0.00    -0.258 OA
ATOM      4  S   LIG    1        4.001   0.447  -0.964  0.00  0.00    +0.060 S 
ATOM      5  N   LIG    1        3.538   0.074   0.657  0.00  0.00    -0.227 N 
ATOM      6  C   LIG    1        2.258  -0.334   0.804  0.00  0.00    +0.344 A 
ATOM      7  O   LIG    1        1.802  -0.923   1.788  0.00  0.00    -0.245 OA
ENDROOT
BRANCH   5   8
ATOM      8  C   LIG    1        4.467   0.095   1.708  0.00  0.00    +0.066 A 
ATOM      9  C   LIG    1        5.426  -0.954   1.888  0.00  0.00    +0.007 A 
ATOM     10  C   LIG    1        5.503  -2.097   1.041  0.00  0.00    +0.010 A 
ATOM     11  C   LIG    1        6.455  -3.087   1.263  0.00  0.00    +0.001 A 
ATOM     12  C   LIG    1        7.351  -2.981   2.320  0.00  0.00    +0.001 A 
ATOM     13  C   LIG    1        7.307  -1.884   3.174  0.00  0.00    +0.008 A 
ATOM     14  C   LIG    1        6.350  -0.856   2.977  0.00  0.00    -0.016 A 
ATOM     15  C   LIG    1        6.292   0.264   3.842  0.00  0.00    +0.008 A 
ATOM     16  C   LIG    1        5.346   1.264   3.639  0.00  0.00    +0.003 A 
ATOM     17  C   LIG    1        4.446   1.182   2.585  0.00  0.00    +0.027 A 
ENDBRANCH   5   8
BRANCH   1  18
ATOM     18  C   LIG    1        0.123   0.003  -0.350  0.00  0.00    +0.165 C 
BRANCH  18  22
ATOM     19  C   LIG    1       -1.468   3.923   0.450  0.00  0.00    +0.000 A 
ATOM     20  C   LIG    1       -0.891   3.190   1.486  0.00  0.00    +0.000 A 
ATOM     21  C   LIG    1       -0.374   1.923   1.229  0.00  0.00    +0.005 A 
ATOM     22  C   LIG    1       -0.429   1.397  -0.065  0.00  0.00    -0.027 A 
ATOM     23  C   LIG    1       -1.018   2.132  -1.097  0.00  0.00    +0.005 A 
ATOM     24  C   LIG    1       -1.535   3.399  -0.839  0.00  0.00    +0.000 A 
ENDBRANCH  18  22
ENDBRANCH   1  18
TORSDOF 3
