REMARK  Name = DB12114
REMARK                            x       y       z     vdW  Elec       q    Type
REMARK                         _______ _______ _______ _____ _____    ______ ____
ROOT
ATOM      1  C   LIG    1       -0.884   1.236   0.394  0.00  0.00    +0.164 A 
ATOM      2  C   LIG    1       -0.258   0.008   0.138  0.00  0.00    +0.163 A 
ATOM      3  C   LIG    1       -1.034  -1.109  -0.207  0.00  0.00    +0.062 A 
ATOM      4  C   LIG    1       -2.448  -1.026  -0.279  0.00  0.00    +0.044 A 
ATOM      5  C   LIG    1       -3.320  -2.113  -0.601  0.00  0.00    +0.134 A 
ATOM      6  N   LIG    1       -4.669  -1.965  -0.635  0.00  0.00    -0.220 NA
ATOM      7  C   LIG    1       -5.154  -0.734  -0.353  0.00  0.00    +0.223 A 
ATOM      8  N   LIG    1       -4.433   0.369  -0.041  0.00  0.00    -0.235 NA
ATOM      9  C   LIG    1       -3.078   0.223  -0.002  0.00  0.00    +0.080 A 
ATOM     10  C   LIG    1       -2.281   1.342   0.325  0.00  0.00    +0.078 A 
ENDROOT
BRANCH   1  12
ATOM     11  C   LIG    1       -0.628   3.572   1.007  0.00  0.00    +0.277 C 
ATOM     12  O   LIG    1       -0.059   2.299   0.721  0.00  0.00    -0.491 OA
ENDBRANCH   1  12
BRANCH   5  13
ATOM     13  N   LIG    1       -2.782  -3.371  -0.937  0.00  0.00    -0.297 N 
ATOM     14  H   LIG    1       -1.785  -3.355  -1.091  0.00  0.00    +0.154 HD
BRANCH  13  15
ATOM     15  C   LIG    1       -3.346  -4.654  -1.069  0.00  0.00    +0.070 A 
ATOM     16  C   LIG    1       -2.668  -5.604  -1.845  0.00  0.00    +0.164 A 
ATOM     17  F   LIG    1       -1.512  -5.269  -2.467  0.00  0.00    -0.202 F 
ATOM     18  C   LIG    1       -3.177  -6.899  -1.994  0.00  0.00    +0.096 A 
ATOM     19 CL   LIG    1       -2.301  -8.050  -2.946  0.00  0.00    -0.079 Cl
ATOM     20  C   LIG    1       -4.382  -7.248  -1.373  0.00  0.00    +0.062 A 
ATOM     21 CL   LIG    1       -5.048  -8.838  -1.525  0.00  0.00    -0.082 Cl
ATOM     22  C   LIG    1       -5.067  -6.303  -0.611  0.00  0.00    +0.023 A 
ATOM     23  C   LIG    1       -4.556  -5.015  -0.461  0.00  0.00    +0.028 A 
ENDBRANCH  13  15
ENDBRANCH   5  13
BRANCH   2  24
ATOM     24  O   LIG    1        1.124  -0.006   0.254  0.00  0.00    -0.485 OA
BRANCH  24  25
ATOM     25  C   LIG    1        1.911  -1.199   0.161  0.00  0.00    +0.177 C 
ATOM     26  C   LIG    1        1.636  -2.256   1.270  0.00  0.00    +0.063 C 
ATOM     27  C   LIG    1        2.533  -3.502   1.094  0.00  0.00    +0.111 C 
ATOM     28  N   LIG    1        2.333  -3.987  -0.285  0.00  0.00    -0.298 N 
ATOM     29  C   LIG    1        1.466  -4.971  -0.666  0.00  0.00    +0.239 C 
ATOM     30  O   LIG    1        1.322  -5.276  -1.854  0.00  0.00    -0.271 OA
ATOM     31  C   LIG    1        2.906  -3.072  -1.289  0.00  0.00    +0.111 C 
ATOM     32  C   LIG    1        2.043  -1.787  -1.273  0.00  0.00    +0.063 C 
BRANCH  29  33
ATOM     33  C   LIG    1        0.715  -5.657   0.371  0.00  0.00    +0.060 C 
ATOM     34  C   LIG    1        0.055  -6.810   0.150  0.00  0.00    +0.013 C 
ENDBRANCH  29  33
ENDBRANCH  24  25
ENDBRANCH   2  24
TORSDOF 6
