REMARK  Name = DB12566
REMARK                            x       y       z     vdW  Elec       q    Type
REMARK                         _______ _______ _______ _____ _____    ______ ____
ROOT
ATOM      1  C   LIG    1       -0.241   2.122  -1.182  0.00  0.00    +0.123 A 
ATOM      2  N   LIG    1        0.565   1.650  -2.175  0.00  0.00    -0.213 NA
ATOM      3  C   LIG    1        0.708   2.422  -3.285  0.00  0.00    +0.164 A 
ATOM      4  N   LIG    1        0.108   3.624  -3.488  0.00  0.00    -0.235 NA
ATOM      5  C   LIG    1       -0.693   4.073  -2.486  0.00  0.00    +0.116 A 
ATOM      6  C   LIG    1       -0.897   3.352  -1.307  0.00  0.00    +0.063 A 
ENDROOT
BRANCH   3   7
ATOM      7  C   LIG    1        1.608   1.894  -4.359  0.00  0.00    +0.046 A 
ATOM      8  C   LIG    1        1.929   2.483  -5.641  0.00  0.00    +0.029 A 
ATOM      9  C   LIG    1        1.577   3.656  -6.338  0.00  0.00    +0.014 A 
ATOM     10  C   LIG    1        2.123   3.867  -7.605  0.00  0.00    +0.020 A 
ATOM     11  C   LIG    1        2.993   2.918  -8.143  0.00  0.00    +0.113 A 
ATOM     12  N   LIG    1        3.366   1.772  -7.516  0.00  0.00    -0.237 NA
ATOM     13  C   LIG    1        2.830   1.595  -6.304  0.00  0.00    +0.139 A 
ATOM     14  N   LIG    1        3.048   0.526  -5.468  0.00  0.00    -0.345 N 
ATOM     15  H   LIG    1        3.635  -0.280  -5.630  0.00  0.00    +0.167 HD
ATOM     16  C   LIG    1        2.325   0.703  -4.317  0.00  0.00    +0.096 A 
ENDBRANCH   3   7
BRANCH   1  17
ATOM     17  N   LIG    1       -0.429   1.387   0.006  0.00  0.00    -0.316 N 
ATOM     18  H   LIG    1       -1.185   1.710   0.593  0.00  0.00    +0.148 HD
BRANCH  17  19
ATOM     19  C   LIG    1        0.008  -0.006   0.245  0.00  0.00    +0.107 C 
ATOM     20  C   LIG    1       -0.677  -0.960  -0.779  0.00  0.00    +0.041 C 
BRANCH  19  21
ATOM     21  C   LIG    1        1.572  -0.114   0.186  0.00  0.00    +0.236 C 
ATOM     22  N   LIG    1        2.099  -1.321  -0.102  0.00  0.00    -0.305 N 
ATOM     23  H   LIG    1        1.467  -2.098  -0.230  0.00  0.00    +0.149 HD
ATOM     24  O   LIG    1        2.283   0.868   0.420  0.00  0.00    -0.273 OA
BRANCH  22  25
ATOM     25  C   LIG    1        3.527  -1.632  -0.199  0.00  0.00    +0.217 C 
BRANCH  25  26
ATOM     26  C   LIG    1        3.842  -2.654  -1.305  0.00  0.00    +0.405 C 
ATOM     27  F   LIG    1        3.474  -2.206  -2.506  0.00  0.00    -0.169 F 
ATOM     28  F   LIG    1        3.204  -3.807  -1.098  0.00  0.00    -0.169 F 
ATOM     29  F   LIG    1        5.147  -2.917  -1.354  0.00  0.00    -0.169 F 
ENDBRANCH  25  26
ENDBRANCH  22  25
ENDBRANCH  19  21
BRANCH  19  31
ATOM     30  C   LIG    1        0.032   0.414   2.862  0.00  0.00    +0.006 C 
ATOM     31  C   LIG    1       -0.465  -0.435   1.671  0.00  0.00    +0.031 C 
ENDBRANCH  19  31
ENDBRANCH  17  19
ENDBRANCH   1  17
TORSDOF 7
