REMARK  Name = DB12402
REMARK                            x       y       z     vdW  Elec       q    Type
REMARK                         _______ _______ _______ _____ _____    ______ ____
ROOT
ATOM      1  C   LIG    1        1.434  -0.078   0.453  0.00  0.00    +0.249 C 
ATOM      2  N   LIG    1        2.009   1.104   0.156  0.00  0.00    -0.310 N 
ATOM      3  H   LIG    1        1.408   1.882  -0.074  0.00  0.00    +0.149 HD
ATOM      4  O   LIG    1        2.080  -1.086   0.745  0.00  0.00    -0.270 OA
ENDROOT
BRANCH   1  10
ATOM      5  C   LIG    1       -4.229   0.042   0.082  0.00  0.00    +0.034 A 
ATOM      6  C   LIG    1       -2.840   0.087   0.243  0.00  0.00    +0.057 A 
ATOM      7  N   LIG    1       -2.120   0.977   1.021  0.00  0.00    -0.359 N 
ATOM      8  H   LIG    1       -2.577   1.698   1.561  0.00  0.00    +0.165 HD
ATOM      9  C   LIG    1       -0.738   0.849   1.032  0.00  0.00    +0.100 A 
ATOM     10  C   LIG    1       -0.013  -0.085   0.350  0.00  0.00    +0.100 A 
ATOM     11  C   LIG    1       -0.715  -1.081  -0.510  0.00  0.00    +0.208 A 
ATOM     12  O   LIG    1       -0.156  -1.955  -1.175  0.00  0.00    -0.286 OA
ATOM     13  C   LIG    1       -2.173  -0.904  -0.493  0.00  0.00    +0.083 A 
ATOM     14  S   LIG    1       -3.285  -1.893  -1.387  0.00  0.00    -0.091 S 
ATOM     15  C   LIG    1       -4.631  -0.979  -0.773  0.00  0.00    +0.048 A 
ENDBRANCH   1  10
BRANCH   2  16
ATOM     16  C   LIG    1        3.453   1.370   0.146  0.00  0.00    +0.060 C 
ATOM     17  C   LIG    1        4.071   1.541   1.576  0.00  0.00    +0.004 C 
ATOM     18  C   LIG    1        3.332   2.733   2.256  0.00  0.00    -0.014 C 
ATOM     19  C   LIG    1        3.387   4.024   1.391  0.00  0.00    -0.078 C 
ATOM     20  N   LIG    1        4.308   3.776   0.169  0.00  0.00    +0.381 N 
ATOM     21  H   LIG    1        4.390   4.623  -0.374  0.00  0.00    -0.082 HD
ATOM     22  C   LIG    1        5.704   3.347   0.667  0.00  0.00    -0.078 C 
ATOM     23  C   LIG    1        5.550   2.018   1.445  0.00  0.00    -0.014 C 
ATOM     24  C   LIG    1        3.736   2.641  -0.719  0.00  0.00    -0.056 C 
ENDBRANCH   2  16
TORSDOF 2
