REMARK  Name = DB12231
REMARK                            x       y       z     vdW  Elec       q    Type
REMARK                         _______ _______ _______ _____ _____    ______ ____
ROOT
ATOM      1  S   LIG    1        1.869  -2.027  -0.239  0.00  0.00    -0.089 S 
ENDROOT
BRANCH   1   5
ATOM      2  C   LIG    1       -2.599  -1.170  -0.335  0.00  0.00    +0.130 A 
ATOM      3  C   LIG    1       -2.120  -2.327   0.281  0.00  0.00    +0.047 A 
ATOM      4  C   LIG    1       -0.754  -2.595   0.311  0.00  0.00    +0.018 A 
ATOM      5  C   LIG    1        0.136  -1.696  -0.274  0.00  0.00    +0.013 A 
ATOM      6  C   LIG    1       -0.330  -0.534  -0.888  0.00  0.00    +0.018 A 
ATOM      7  C   LIG    1       -1.696  -0.270  -0.916  0.00  0.00    +0.047 A 
BRANCH   2   8
ATOM      8  O   LIG    1       -3.959  -0.963  -0.323  0.00  0.00    -0.426 OA
BRANCH   8   9
ATOM      9  P   LIG    1       -4.819   0.108  -1.211  0.00  0.00    +0.361 P 
ATOM     10  S   LIG    1       -4.721  -0.101  -3.163  0.00  0.00    +0.036 S 
BRANCH   9  12
ATOM     11  C   LIG    1       -7.081  -1.201  -0.723  0.00  0.00    +0.205 C 
ATOM     12  O   LIG    1       -6.302  -0.030  -0.543  0.00  0.00    -0.305 OA
ENDBRANCH   9  12
BRANCH   9  13
ATOM     13  O   LIG    1       -4.318   1.535  -0.597  0.00  0.00    -0.305 OA
ATOM     14  C   LIG    1       -4.881   2.761  -1.036  0.00  0.00    +0.205 C 
ENDBRANCH   9  13
ENDBRANCH   8   9
ENDBRANCH   2   8
ENDBRANCH   1   5
BRANCH   1  15
ATOM     15  C   LIG    1        2.279  -1.521   1.401  0.00  0.00    +0.013 A 
ATOM     16  C   LIG    1        2.253  -0.168   1.738  0.00  0.00    +0.018 A 
ATOM     17  C   LIG    1        2.578   0.225   3.034  0.00  0.00    +0.047 A 
ATOM     18  C   LIG    1        2.929  -0.735   3.992  0.00  0.00    +0.130 A 
ATOM     19  C   LIG    1        2.961  -2.084   3.641  0.00  0.00    +0.047 A 
ATOM     20  C   LIG    1        2.633  -2.482   2.347  0.00  0.00    +0.018 A 
BRANCH  18  21
ATOM     21  O   LIG    1        3.274  -0.409   5.284  0.00  0.00    -0.426 OA
BRANCH  21  22
ATOM     22  P   LIG    1        2.949   0.977   6.088  0.00  0.00    +0.361 P 
ATOM     23  S   LIG    1        1.050   1.445   6.283  0.00  0.00    +0.036 S 
BRANCH  22  24
ATOM     24  O   LIG    1        3.897   2.053   5.308  0.00  0.00    -0.305 OA
ATOM     25  C   LIG    1        3.988   3.400   5.742  0.00  0.00    +0.205 C 
ENDBRANCH  22  24
BRANCH  22  26
ATOM     26  O   LIG    1        3.783   0.753   7.472  0.00  0.00    -0.305 OA
ATOM     27  C   LIG    1        3.381  -0.220   8.422  0.00  0.00    +0.205 C 
ENDBRANCH  22  26
ENDBRANCH  21  22
ENDBRANCH  18  21
ENDBRANCH   1  15
TORSDOF 10
