REMARK  Name = DB12575
REMARK                            x       y       z     vdW  Elec       q    Type
REMARK                         _______ _______ _______ _____ _____    ______ ____
ROOT
ATOM      1  C   LIG    1       -2.390   2.867   0.361  0.00  0.00    +0.128 C 
ATOM      2  C   LIG    1       -1.722   1.682   0.740  0.00  0.00    +0.114 C 
ATOM      3  N   LIG    1       -0.375   1.432   0.373  0.00  0.00    -0.297 NA
ATOM      4  H   LIG    1        0.079   2.033  -0.300  0.00  0.00    +0.123 HD
ATOM      5  C   LIG    1        0.039   0.014   0.325  0.00  0.00    +0.099 C 
ATOM      6  C   LIG    1       -0.468  -0.775   1.578  0.00  0.00    +0.104 C 
ATOM      7  N   LIG    1       -1.904  -0.550   1.786  0.00  0.00    -0.293 NA
ATOM      8  H   LIG    1       -2.453  -1.261   2.248  0.00  0.00    +0.124 HD
ATOM      9  C   LIG    1       -2.481   0.684   1.396  0.00  0.00    +0.131 C 
ATOM     10  N   LIG    1       -3.782   0.929   1.653  0.00  0.00    -0.260 NA
ATOM     11  H   LIG    1       -4.332   0.228   2.127  0.00  0.00    +0.127 HD
ATOM     12  C   LIG    1       -4.365   2.086   1.290  0.00  0.00    +0.173 C 
ATOM     13  N   LIG    1       -3.704   3.076   0.642  0.00  0.00    -0.261 NA
ATOM     14  H   LIG    1       -4.185   3.238  -0.243  0.00  0.00    +0.127 HD
ENDROOT
BRANCH   1  15
ATOM     15  N   LIG    1       -1.741   3.897  -0.322  0.00  0.00    -0.309 NA
ATOM     16  H   LIG    1       -2.259   4.729  -0.564  0.00  0.00    +0.120 HD
ATOM     17  H   LIG    1       -0.761   3.808  -0.549  0.00  0.00    +0.120 HD
ENDBRANCH   1  15
BRANCH  12  18
ATOM     18  N   LIG    1       -5.723   2.329   1.565  0.00  0.00    -0.297 NA
ATOM     19  H   LIG    1       -6.280   1.635   2.043  0.00  0.00    +0.121 HD
ATOM     20  H   LIG    1       -6.144   3.203   1.283  0.00  0.00    +0.121 HD
ENDBRANCH  12  18
BRANCH   5  21
ATOM     21  C   LIG    1        1.582  -0.066   0.122  0.00  0.00    +0.161 C 
BRANCH  21  22
ATOM     22  C   LIG    1        2.133  -1.499  -0.124  0.00  0.00    +0.141 C 
ATOM     23  C   LIG    1        3.643  -1.541  -0.426  0.00  0.00    +0.040 C 
BRANCH  22  24
ATOM     24  O   LIG    1        1.460  -2.113  -1.208  0.00  0.00    -0.389 OA
ATOM     25  H   LIG    1        0.523  -2.156  -1.005  0.00  0.00    +0.210 HD
ENDBRANCH  22  24
ENDBRANCH  21  22
BRANCH  21  26
ATOM     26  O   LIG    1        2.259   0.518   1.226  0.00  0.00    -0.388 OA
ATOM     27  H   LIG    1        1.925   1.409   1.353  0.00  0.00    +0.210 HD
ENDBRANCH  21  26
ENDBRANCH   5  21
TORSDOF 6
