REMARK  Name = DB12725
REMARK                            x       y       z     vdW  Elec       q    Type
REMARK                         _______ _______ _______ _____ _____    ______ ____
ROOT
ATOM      1  C   LIG    1        1.372   0.000   0.007  0.00  0.00    +0.108 C 
ENDROOT
BRANCH   1   2
ATOM      2  C   LIG    1        1.996  -0.452   1.351  0.00  0.00    +0.003 C 
ATOM      3  C   LIG    1        3.525  -0.617   1.226  0.00  0.00    -0.014 C 
ATOM      4  C   LIG    1        4.146  -1.174   2.521  0.00  0.00    -0.079 C 
ATOM      5  N   LIG    1        3.812  -0.218   3.695  0.00  0.00    +0.380 N 
ATOM      6  H   LIG    1        4.226   0.679   3.483  0.00  0.00    -0.082 HD
ATOM      7  C   LIG    1        2.285   0.012   3.837  0.00  0.00    -0.079 C 
ATOM      8  C   LIG    1        1.727   0.539   2.503  0.00  0.00    -0.014 C 
BRANCH   5   9
ATOM      9  C   LIG    1        4.378  -0.708   5.054  0.00  0.00    -0.075 C 
BRANCH   9  10
ATOM     10  C   LIG    1        5.929  -0.809   5.063  0.00  0.00    -0.025 C 
ATOM     11  C   LIG    1        6.506  -0.387   6.425  0.00  0.00    +0.021 C 
ATOM     12  C   LIG    1        8.049  -0.351   6.409  0.00  0.00    +0.111 C 
ATOM     13  N   LIG    1        8.562  -1.663   5.943  0.00  0.00    -0.267 N 
ATOM     14  C   LIG    1        9.609  -2.258   6.677  0.00  0.00    +0.403 C 
ATOM     15  O   LIG    1       10.124  -1.780   7.693  0.00  0.00    -0.226 OA
ATOM     16  C   LIG    1        7.967  -2.324   4.749  0.00  0.00    +0.111 C 
ATOM     17  C   LIG    1        6.428  -2.251   4.846  0.00  0.00    +0.021 C 
BRANCH  14  18
ATOM     18  O   LIG    1       10.018  -3.434   6.131  0.00  0.00    -0.454 OA
ATOM     19  C   LIG    1       11.074  -4.185   6.713  0.00  0.00    +0.282 C 
ENDBRANCH  14  18
ENDBRANCH   9  10
ENDBRANCH   5   9
ENDBRANCH   1   2
BRANCH   1  21
ATOM     20  C   LIG    1       -0.950   0.909   0.212  0.00  0.00    +0.246 C 
ATOM     21  N   LIG    1       -0.088  -0.098  -0.034  0.00  0.00    -0.311 N 
ATOM     22  H   LIG    1       -0.466  -0.990  -0.318  0.00  0.00    +0.149 HD
ATOM     23  O   LIG    1       -0.574   2.043   0.514  0.00  0.00    -0.270 OA
BRANCH  20  31
ATOM     24  C   LIG    1       -4.553   3.402  -0.212  0.00  0.00    +0.111 A 
ATOM     25  N   LIG    1       -5.484   2.392  -0.245  0.00  0.00    -0.342 N 
ATOM     26  H   LIG    1       -6.477   2.554  -0.334  0.00  0.00    +0.167 HD
ATOM     27  C   LIG    1       -4.807   1.200  -0.141  0.00  0.00    +0.067 A 
ATOM     28  C   LIG    1       -5.223  -0.130  -0.123  0.00  0.00    +0.028 A 
ATOM     29  C   LIG    1       -4.221  -1.089   0.004  0.00  0.00    +0.003 A 
ATOM     30  C   LIG    1       -2.874  -0.743   0.106  0.00  0.00    +0.015 A 
ATOM     31  C   LIG    1       -2.428   0.594   0.086  0.00  0.00    +0.064 A 
ATOM     32  C   LIG    1       -3.440   1.579  -0.038  0.00  0.00    +0.101 A 
ATOM     33  N   LIG    1       -3.329   2.949  -0.083  0.00  0.00    -0.231 NA
BRANCH  24  35
ATOM     34  C   LIG    1       -3.784   5.805  -0.645  0.00  0.00    +0.015 C 
ATOM     35  C   LIG    1       -4.955   4.872  -0.274  0.00  0.00    +0.049 C 
ATOM     36  C   LIG    1       -5.620   5.316   1.042  0.00  0.00    +0.015 C 
ENDBRANCH  24  35
ENDBRANCH  20  31
ENDBRANCH   1  21
TORSDOF 7
