REMARK  Name = DB12927
REMARK                            x       y       z     vdW  Elec       q    Type
REMARK                         _______ _______ _______ _____ _____    ______ ____
ROOT
ATOM      1  N   LIG    1        1.624  -0.057  -0.114  0.00  0.00    +0.382 N 
ATOM      2  H   LIG    1        1.917   0.486  -0.914  0.00  0.00    -0.086 HD
ATOM      3  H   LIG    1        1.942   0.419   0.719  0.00  0.00    -0.086 HD
ENDROOT
BRANCH   1   4
ATOM      4  C   LIG    1        2.291  -1.442  -0.178  0.00  0.00    -0.061 C 
BRANCH   4   5
ATOM      5  C   LIG    1        3.831  -1.311  -0.159  0.00  0.00    +0.104 C 
BRANCH   5  14
ATOM      6  C   LIG    1        5.659   0.782   5.282  0.00  0.00    +0.155 C 
ATOM      7  N   LIG    1        5.026  -0.276   4.479  0.00  0.00    -0.280 N 
ATOM      8  C   LIG    1        4.551  -1.392   5.130  0.00  0.00    +0.333 A 
ATOM      9  O   LIG    1        4.617  -1.504   6.359  0.00  0.00    -0.246 OA
ATOM     10  N   LIG    1        3.994  -2.361   4.300  0.00  0.00    -0.262 N 
ATOM     11  C   LIG    1        3.852  -2.383   2.920  0.00  0.00    +0.282 A 
ATOM     12  O   LIG    1        3.394  -3.331   2.279  0.00  0.00    -0.265 OA
ATOM     13  C   LIG    1        4.313  -1.128   2.359  0.00  0.00    +0.151 A 
ATOM     14  N   LIG    1        4.331  -0.669   1.058  0.00  0.00    -0.326 N 
ATOM     15  C   LIG    1        4.947   0.560   1.138  0.00  0.00    +0.202 A 
ATOM     16  N   LIG    1        5.283   0.905   2.357  0.00  0.00    -0.218 NA
ATOM     17  C   LIG    1        3.556  -3.596   4.994  0.00  0.00    +0.157 C 
ATOM     18  C   LIG    1        4.902  -0.119   3.104  0.00  0.00    +0.168 A 
ENDBRANCH   5  14
ENDBRANCH   4   5
ENDBRANCH   1   4
BRANCH   1  19
ATOM     19  C   LIG    1        0.085  -0.110  -0.094  0.00  0.00    -0.046 C 
BRANCH  19  20
ATOM     20  C   LIG    1       -0.520   1.312  -0.038  0.00  0.00    +0.128 C 
BRANCH  20  21
ATOM     21  C   LIG    1       -2.044   1.247   0.050  0.00  0.00    -0.017 A 
ATOM     22  C   LIG    1       -2.820   0.986  -1.088  0.00  0.00    +0.055 A 
ATOM     23  C   LIG    1       -4.212   0.919  -0.999  0.00  0.00    +0.159 A 
ATOM     24  C   LIG    1       -4.841   1.110   0.237  0.00  0.00    +0.158 A 
ATOM     25  C   LIG    1       -4.072   1.367   1.374  0.00  0.00    +0.049 A 
ATOM     26  C   LIG    1       -2.682   1.433   1.281  0.00  0.00    +0.010 A 
BRANCH  23  27
ATOM     27  O   LIG    1       -4.944   0.662  -2.131  0.00  0.00    -0.503 OA
ATOM     28  H   LIG    1       -4.402   0.554  -2.916  0.00  0.00    +0.292 HD
ENDBRANCH  23  27
BRANCH  24  29
ATOM     29  O   LIG    1       -6.206   1.048   0.352  0.00  0.00    -0.503 OA
ATOM     30  H   LIG    1       -6.639   0.866  -0.485  0.00  0.00    +0.292 HD
ENDBRANCH  24  29
ENDBRANCH  20  21
BRANCH  20  31
ATOM     31  O   LIG    1       -0.079   2.082  -1.144  0.00  0.00    -0.389 OA
ATOM     32  H   LIG    1       -0.396   2.982  -1.034  0.00  0.00    +0.210 HD
ENDBRANCH  20  31
ENDBRANCH  19  20
ENDBRANCH   1  19
TORSDOF 9
