REMARK  Name = DB12567
REMARK                            x       y       z     vdW  Elec       q    Type
REMARK                         _______ _______ _______ _____ _____    ______ ____
ROOT
ATOM      1  C   LIG    1        1.878  -0.576   0.044  0.00  0.00    +0.131 C 
ENDROOT
BRANCH   1   2
ATOM      2  C   LIG    1        2.421  -0.301   1.467  0.00  0.00    +0.220 C 
ATOM      3  N   LIG    1        3.748  -0.496   1.702  0.00  0.00    -0.301 N 
ATOM      4  C   LIG    1        4.320  -0.226   3.033  0.00  0.00    +0.109 C 
ATOM      5  C   LIG    1        4.838   1.232   3.017  0.00  0.00    +0.041 C 
ATOM      6  C   LIG    1        5.843   1.474   1.864  0.00  0.00    +0.073 C 
ATOM      7  C   LIG    1        5.285   0.960   0.509  0.00  0.00    +0.041 C 
ATOM      8  C   LIG    1        4.751  -0.487   0.622  0.00  0.00    +0.109 C 
ATOM      9  O   LIG    1        1.628  -0.043   2.377  0.00  0.00    -0.275 OA
BRANCH   6  10
ATOM     10  N   LIG    1        6.113   2.909   1.786  0.00  0.00    -0.341 N 
ATOM     11  H   LIG    1        5.353   3.529   2.025  0.00  0.00    +0.146 HD
BRANCH  10  12
ATOM     12  C   LIG    1        7.178   3.453   1.045  0.00  0.00    +0.030 A 
ATOM     13  C   LIG    1        8.210   2.678   0.493  0.00  0.00    +0.061 A 
ATOM     14  C   LIG    1        9.240   3.283  -0.228  0.00  0.00    +0.125 A 
ATOM     15  F   LIG    1       10.227   2.527  -0.758  0.00  0.00    -0.205 F 
ATOM     16  C   LIG    1        9.253   4.666  -0.401  0.00  0.00    +0.038 A 
ATOM     17  C   LIG    1        8.236   5.445   0.148  0.00  0.00    +0.005 A 
ATOM     18  C   LIG    1        7.205   4.840   0.868  0.00  0.00    +0.023 A 
ENDBRANCH  10  12
ENDBRANCH   6  10
ENDBRANCH   1   2
BRANCH   1  22
ATOM     19  C   LIG    1       -2.402  -0.084  -0.302  0.00  0.00    -0.033 A 
ATOM     20  C   LIG    1       -1.863  -1.323   0.065  0.00  0.00    +0.005 A 
ATOM     21  C   LIG    1       -0.484  -1.486   0.161  0.00  0.00    +0.004 A 
ATOM     22  C   LIG    1        0.366  -0.406  -0.091  0.00  0.00    -0.039 A 
ATOM     23  C   LIG    1       -0.172   0.844  -0.410  0.00  0.00    +0.004 A 
ATOM     24  C   LIG    1       -1.551   1.005  -0.506  0.00  0.00    +0.005 A 
BRANCH  19  25
ATOM     25  C   LIG    1       -3.915   0.140  -0.337  0.00  0.00    +0.119 C 
BRANCH  25  33
ATOM     26  C   LIG    1       -5.076  -2.472  -4.451  0.00  0.00    -0.012 C 
ATOM     27  C   LIG    1       -5.186  -2.374  -2.920  0.00  0.00    -0.061 C 
ATOM     28  N   LIG    1       -6.690  -2.280  -2.581  0.00  0.00    +0.382 N 
ATOM     29  H   LIG    1       -7.152  -3.137  -2.848  0.00  0.00    -0.085 HD
ATOM     30  H   LIG    1       -7.106  -1.537  -3.126  0.00  0.00    -0.085 HD
ATOM     31  C   LIG    1       -6.919  -2.011  -1.084  0.00  0.00    -0.067 C 
ATOM     32  C   LIG    1       -6.118  -0.760  -0.666  0.00  0.00    +0.065 C 
ATOM     33  N   LIG    1       -4.685  -0.988  -0.878  0.00  0.00    -0.301 NA
ATOM     34  C   LIG    1       -4.423  -1.164  -2.317  0.00  0.00    +0.068 C 
ENDBRANCH  25  33
ENDBRANCH  19  25
ENDBRANCH   1  22
TORSDOF 6
