REMARK  Name = DB12975
REMARK                            x       y       z     vdW  Elec       q    Type
REMARK                         _______ _______ _______ _____ _____    ______ ____
ROOT
ATOM      1  C   LIG    1        1.260   0.242  -0.040  0.00  0.00    +0.032 A 
ATOM      2  C   LIG    1        2.005   1.077   0.797  0.00  0.00    +0.028 A 
ATOM      3  C   LIG    1        3.399   0.992   0.835  0.00  0.00    -0.021 A 
ATOM      4  C   LIG    1        4.054   0.020   0.061  0.00  0.00    +0.120 A 
ATOM      5  C   LIG    1        3.308  -0.856  -0.746  0.00  0.00    -0.021 A 
ATOM      6  C   LIG    1        1.916  -0.727  -0.797  0.00  0.00    +0.028 A 
ENDROOT
BRANCH   1   7
ATOM      7  N   LIG    1       -0.138   0.337  -0.108  0.00  0.00    -0.312 N 
ATOM      8  H   LIG    1       -0.612  -0.552  -0.029  0.00  0.00    +0.152 HD
BRANCH   7  12
ATOM      9  C   LIG    1       -3.789  -0.189   1.820  0.00  0.00    +0.215 A 
ATOM     10  N   LIG    1       -2.603  -0.023   1.168  0.00  0.00    -0.209 NA
ATOM     11  C   LIG    1       -2.229   1.229   0.759  0.00  0.00    +0.115 A 
ATOM     12  C   LIG    1       -0.988   1.450   0.083  0.00  0.00    +0.069 A 
ATOM     13  C   LIG    1       -0.661   2.773  -0.377  0.00  0.00    +0.024 A 
ATOM     14  C   LIG    1       -1.566   3.829  -0.048  0.00  0.00    +0.075 A 
ATOM     15  N   LIG    1       -2.716   3.608   0.635  0.00  0.00    -0.245 NA
ATOM     16  C   LIG    1       -1.283   5.158  -0.447  0.00  0.00    +0.048 A 
ATOM     17  C   LIG    1       -0.139   5.441  -1.185  0.00  0.00    +0.043 A 
ATOM     18 CL   LIG    1        0.196   7.065  -1.664  0.00  0.00    -0.083 Cl
ATOM     19  C   LIG    1        0.730   4.421  -1.550  0.00  0.00    +0.021 A 
ATOM     20  C   LIG    1        0.481   3.107  -1.166  0.00  0.00    +0.013 A 
ATOM     21  C   LIG    1       -3.062   2.356   1.017  0.00  0.00    +0.092 A 
ATOM     22  C   LIG    1       -4.285   2.158   1.700  0.00  0.00    +0.035 A 
ATOM     23  C   LIG    1       -4.643   0.874   2.099  0.00  0.00    +0.069 A 
BRANCH   9  25
ATOM     24  C   LIG    1       -3.320  -2.568   1.951  0.00  0.00    +0.279 C 
ATOM     25  O   LIG    1       -4.169  -1.455   2.226  0.00  0.00    -0.480 OA
ENDBRANCH   9  25
ENDBRANCH   7  12
ENDBRANCH   1   7
BRANCH   4  26
ATOM     26  O   LIG    1        5.425  -0.066   0.092  0.00  0.00    -0.506 OA
ATOM     27  H   LIG    1        5.831   0.565   0.689  0.00  0.00    +0.292 HD
ENDBRANCH   4  26
BRANCH   3  28
ATOM     28  C   LIG    1        4.167   1.964   1.725  0.00  0.00    -0.039 C 
BRANCH  28  29
ATOM     29  N   LIG    1        4.889   3.080   0.940  0.00  0.00    +0.382 N 
ATOM     30  H   LIG    1        5.497   2.642   0.262  0.00  0.00    -0.081 HD
ATOM     31  C   LIG    1        5.725   4.025   1.823  0.00  0.00    -0.078 C 
ATOM     32  C   LIG    1        5.793   5.349   1.052  0.00  0.00    -0.020 C 
ATOM     33  C   LIG    1        4.801   5.246  -0.109  0.00  0.00    -0.020 C 
ATOM     34  C   LIG    1        3.939   4.022   0.181  0.00  0.00    -0.078 C 
ENDBRANCH  28  29
ENDBRANCH   3  28
BRANCH   5  35
ATOM     35  C   LIG    1        3.977  -1.923  -1.609  0.00  0.00    -0.039 C 
BRANCH  35  36
ATOM     36  N   LIG    1        4.155  -3.283  -0.899  0.00  0.00    +0.382 N 
ATOM     37  H   LIG    1        3.257  -3.542  -0.516  0.00  0.00    -0.081 HD
ATOM     38  C   LIG    1        5.194  -3.295   0.236  0.00  0.00    -0.078 C 
ATOM     39  C   LIG    1        5.564  -4.770   0.410  0.00  0.00    -0.020 C 
ATOM     40  C   LIG    1        5.180  -5.481  -0.891  0.00  0.00    -0.020 C 
ATOM     41  C   LIG    1        4.630  -4.409  -1.833  0.00  0.00    -0.078 C 
ENDBRANCH  35  36
ENDBRANCH   5  35
TORSDOF 8
