REMARK  Name = DB12048
REMARK                            x       y       z     vdW  Elec       q    Type
REMARK                         _______ _______ _______ _____ _____    ______ ____
ROOT
ATOM      1  N   LIG    1        1.500   0.306   0.153  0.00  0.00    -0.218 N 
ATOM      2  N   LIG    1        2.239   1.315  -0.369  0.00  0.00    -0.061 NA
ATOM      3  N   LIG    1        3.581   1.036  -0.193  0.00  0.00    -0.108 NA
ATOM      4  C   LIG    1        3.656  -0.186   0.403  0.00  0.00    +0.221 A 
ATOM      5  N   LIG    1        4.738  -0.892   0.750  0.00  0.00    -0.229 NA
ATOM      6  C   LIG    1        4.483  -2.108   1.311  0.00  0.00    +0.141 A 
ATOM      7  C   LIG    1        3.179  -2.593   1.516  0.00  0.00    +0.094 A 
ATOM      8  N   LIG    1        2.072  -1.871   1.168  0.00  0.00    -0.223 NA
ATOM      9  C   LIG    1        2.350  -0.682   0.621  0.00  0.00    +0.199 A 
ENDROOT
BRANCH   7  10
ATOM     10  C   LIG    1        2.918  -3.930   2.125  0.00  0.00    +0.039 A 
ATOM     11  C   LIG    1        3.841  -4.881   2.543  0.00  0.00    +0.118 A 
ATOM     12  N   LIG    1        3.118  -5.939   3.026  0.00  0.00    -0.274 N 
ATOM     13  C   LIG    1        3.616  -7.189   3.574  0.00  0.00    +0.172 C 
ATOM     14  N   LIG    1        1.799  -5.736   2.951  0.00  0.00    -0.179 NA
ATOM     15  C   LIG    1        1.684  -4.541   2.416  0.00  0.00    +0.144 A 
ENDBRANCH   7  10
BRANCH   1  17
ATOM     16  C   LIG    1       -0.598   1.677  -0.042  0.00  0.00    +0.038 C 
ATOM     17  C   LIG    1        0.036   0.269   0.036  0.00  0.00    +0.139 C 
BRANCH  17  18
ATOM     18  C   LIG    1       -0.420  -0.647  -1.100  0.00  0.00    -0.007 A 
ATOM     19  C   LIG    1       -0.102  -0.341  -2.426  0.00  0.00    +0.098 A 
ATOM     20  N   LIG    1       -0.508  -1.182  -3.428  0.00  0.00    -0.306 N 
ATOM     21  C   LIG    1       -0.340  -1.135  -4.787  0.00  0.00    +0.112 A 
ATOM     22  C   LIG    1       -0.978  -2.273  -5.274  0.00  0.00    +0.131 A 
ATOM     23  N   LIG    1       -1.524  -3.013  -4.331  0.00  0.00    -0.236 NA
ATOM     24  C   LIG    1       -1.242  -2.355  -3.176  0.00  0.00    +0.138 A 
ATOM     25  C   LIG    1       -1.565  -2.668  -1.843  0.00  0.00    +0.047 A 
ATOM     26  C   LIG    1       -1.148  -1.808  -0.824  0.00  0.00    +0.011 A 
ENDBRANCH  17  18
ENDBRANCH   1  17
TORSDOF 3
