REMARK  Name = DB12649
REMARK                            x       y       z     vdW  Elec       q    Type
REMARK                         _______ _______ _______ _____ _____    ______ ____
ROOT
ATOM      1  N   LIG    1        0.194   0.245  -0.329  0.00  0.00    -0.102 N 
ATOM      2  C   LIG    1       -0.616  -0.594  -1.192  0.00  0.00    +0.233 C 
ATOM      3  C   LIG    1       -1.825   0.255  -1.553  0.00  0.00    +0.105 C 
ATOM      4  C   LIG    1       -1.582   1.513  -0.718  0.00  0.00    +0.092 C 
ATOM      5  N   LIG    1       -0.469   1.469  -0.099  0.00  0.00    -0.121 NA
ENDROOT
BRANCH   4   6
ATOM      6  C   LIG    1       -2.527   2.650  -0.688  0.00  0.00    -0.000 A 
ATOM      7  C   LIG    1       -2.123   3.890  -0.171  0.00  0.00    +0.011 A 
ATOM      8  C   LIG    1       -3.006   4.966  -0.146  0.00  0.00    +0.020 A 
ATOM      9  C   LIG    1       -4.301   4.810  -0.634  0.00  0.00    +0.041 A 
ATOM     10 CL   LIG    1       -5.396   6.144  -0.604  0.00  0.00    -0.084 Cl
ATOM     11  C   LIG    1       -4.719   3.583  -1.145  0.00  0.00    +0.020 A 
ATOM     12  C   LIG    1       -3.836   2.507  -1.171  0.00  0.00    +0.011 A 
ENDBRANCH   4   6
BRANCH   3  13
ATOM     13  C   LIG    1       -2.002   0.468  -3.062  0.00  0.00    -0.035 A 
ATOM     14  C   LIG    1       -1.117   1.279  -3.784  0.00  0.00    +0.004 A 
ATOM     15  C   LIG    1       -1.284   1.450  -5.156  0.00  0.00    +0.000 A 
ATOM     16  C   LIG    1       -2.333   0.807  -5.808  0.00  0.00    +0.000 A 
ATOM     17  C   LIG    1       -3.214  -0.009  -5.102  0.00  0.00    +0.000 A 
ATOM     18  C   LIG    1       -3.047  -0.180  -3.730  0.00  0.00    +0.004 A 
ENDBRANCH   3  13
BRANCH   1  19
ATOM     19  C   LIG    1        1.562   0.022   0.071  0.00  0.00    +0.417 C 
ATOM     20  N   LIG    1        2.213   0.948   0.662  0.00  0.00    +0.060 NA
BRANCH  19  21
ATOM     21  N   LIG    1        2.138  -1.248  -0.265  0.00  0.00    -0.238 N 
ATOM     22  H   LIG    1        3.121  -1.345  -0.054  0.00  0.00    +0.244 HD
ATOM     23  C   LIG    1        1.423  -2.497  -0.034  0.00  0.00    +0.225 C 
ENDBRANCH  19  21
BRANCH  20  24
ATOM     24  S   LIG    1        3.917   0.756   1.091  0.00  0.00    +0.155 S 
ATOM     25  O   LIG    1        4.718  -0.243   0.370  0.00  0.00    -0.132 OA
ATOM     26  O   LIG    1        4.246   0.897   2.514  0.00  0.00    -0.132 OA
BRANCH  24  27
ATOM     27  C   LIG    1        4.427   2.317   0.366  0.00  0.00    +0.127 A 
ATOM     28  C   LIG    1        4.841   2.365  -0.968  0.00  0.00    +0.032 A 
ATOM     29  C   LIG    1        5.216   3.581  -1.535  0.00  0.00    +0.022 A 
ATOM     30  C   LIG    1        5.173   4.744  -0.768  0.00  0.00    +0.041 A 
ATOM     31 CL   LIG    1        5.635   6.251  -1.473  0.00  0.00    -0.084 Cl
ATOM     32  C   LIG    1        4.757   4.702   0.562  0.00  0.00    +0.022 A 
ATOM     33  C   LIG    1        4.382   3.487   1.130  0.00  0.00    +0.032 A 
ENDBRANCH  24  27
ENDBRANCH  20  24
ENDBRANCH   1  19
TORSDOF 6
