REMARK  Name = DB12120
REMARK                            x       y       z     vdW  Elec       q    Type
REMARK                         _______ _______ _______ _____ _____    ______ ____
ROOT
ATOM      1  C   LIG    1       -2.098   1.163   0.024  0.00  0.00    +0.128 A 
ATOM      2  C   LIG    1       -2.784  -0.054  -0.113  0.00  0.00    +0.017 A 
ATOM      3  C   LIG    1       -2.057  -1.249  -0.159  0.00  0.00    +0.025 A 
ATOM      4  C   LIG    1       -0.658  -1.268  -0.069  0.00  0.00    +0.046 A 
ATOM      5  C   LIG    1        0.035  -0.044   0.058  0.00  0.00    -0.000 A 
ATOM      6  C   LIG    1       -0.698   1.146   0.111  0.00  0.00    +0.055 A 
ENDROOT
BRANCH   5   7
ATOM      7  C   LIG    1        1.526   0.056   0.123  0.00  0.00    +0.015 A 
ATOM      8  CA  LIG    1        2.380  -0.152  -0.989  0.00  0.00    +0.156 A 
ATOM      9  N   LIG    1        3.736  -0.064  -0.872  0.00  0.00    -0.235 NA
ATOM     10  C   LIG    1        4.295   0.228   0.332  0.00  0.00    +0.126 A 
ATOM     11  C   LIG    1        3.506   0.456   1.466  0.00  0.00    +0.033 A 
ATOM     12  C   LIG    1        2.121   0.370   1.350  0.00  0.00    +0.013 A 
BRANCH  10  13
ATOM     13  C   LIG    1        5.803   0.305   0.377  0.00  0.00    +0.262 C 
ATOM     14  N   LIG    1        6.371   0.070   1.575  0.00  0.00    -0.310 N 
ATOM     15  H   LIG    1        5.776  -0.163   2.357  0.00  0.00    +0.149 HD
ATOM     16  O   LIG    1        6.458   0.558  -0.637  0.00  0.00    -0.269 OA
BRANCH  14  17
ATOM     17  C   LIG    1        7.806   0.112   1.835  0.00  0.00    +0.108 C 
BRANCH  17  18
ATOM     18  C   LIG    1        8.359   1.537   2.020  0.00  0.00    +0.006 C 
ATOM     19  C   LIG    1        8.140   2.280   3.313  0.00  0.00    +0.005 C 
ATOM     20  C   LIG    1        9.528   1.781   2.939  0.00  0.00    +0.005 C 
ENDBRANCH  17  18
ENDBRANCH  14  17
ENDBRANCH  10  13
BRANCH   8  21
ATOM     21  C   LIG    1        1.850  -0.447  -2.358  0.00  0.00    +0.356 C 
ATOM     22  O   LIG    1        2.073  -1.585  -2.832  0.00  0.00    -0.243 OA
BRANCH  21  23
ATOM     23  OXT LIG    1        1.217   0.465  -2.939  0.00  0.00    -0.476 OA
ATOM     24  HXT LIG    1        1.092   1.292  -2.516  0.00  0.00    +0.295 HD
ENDBRANCH  21  23
ENDBRANCH   8  21
ENDBRANCH   5   7
BRANCH   4  25
ATOM     25  C   LIG    1        0.064  -2.596  -0.095  0.00  0.00    +0.249 C 
ATOM     26  N   LIG    1       -0.350  -3.451  -1.054  0.00  0.00    -0.281 N 
ATOM     27  H   LIG    1       -1.157  -3.183  -1.599  0.00  0.00    +0.155 HD
ATOM     28  O   LIG    1        0.971  -2.833   0.707  0.00  0.00    -0.270 OA
BRANCH  26  29
ATOM     29  C   LIG    1        0.214  -4.696  -1.371  0.00  0.00    +0.034 A 
ATOM     30  C   LIG    1        1.594  -4.923  -1.357  0.00  0.00    +0.024 A 
ATOM     31  C   LIG    1        2.096  -6.172  -1.712  0.00  0.00    +0.017 A 
ATOM     32  C   LIG    1        1.237  -7.217  -2.098  0.00  0.00    +0.061 A 
ATOM     33  C   LIG    1       -0.146  -6.960  -2.120  0.00  0.00    +0.017 A 
ATOM     34  C   LIG    1       -0.652  -5.712  -1.768  0.00  0.00    +0.024 A 
BRANCH  32  35
ATOM     35  C   LIG    1        1.772  -8.538  -2.473  0.00  0.00    +0.266 C 
ATOM     36  N   LIG    1        2.708  -9.101  -1.715  0.00  0.00    -0.288 N 
ATOM     37  H   LIG    1        3.039  -8.620  -0.891  0.00  0.00    +0.301 HD
ATOM     38  H   LIG    1        3.083 -10.004  -1.964  0.00  0.00    +0.301 HD
BRANCH  35  39
ATOM     39  N   LIG    1        1.310  -9.145  -3.562  0.00  0.00    -0.250 N 
ATOM     40  H   LIG    1        0.601  -8.694  -4.122  0.00  0.00    +0.288 HD
ATOM     41  H   LIG    1        1.673 -10.048  -3.828  0.00  0.00    +0.288 HD
ENDBRANCH  35  39
ENDBRANCH  32  35
ENDBRANCH  26  29
ENDBRANCH   4  25
BRANCH   1  43
ATOM     42  C   LIG    1       -2.189   3.587   0.163  0.00  0.00    +0.277 C 
ATOM     43  O   LIG    1       -2.846   2.328   0.060  0.00  0.00    -0.495 OA
ENDBRANCH   1  43
BRANCH   2  44
ATOM     44  C   LIG    1       -4.262  -0.069  -0.216  0.00  0.00    +0.004 C 
ATOM     45  C   LIG    1       -5.011  -1.018  -0.804  0.00  0.00    +0.009 C 
ENDBRANCH   2  44
TORSDOF 12
