REMARK  Name = DB12379
REMARK                            x       y       z     vdW  Elec       q    Type
REMARK                         _______ _______ _______ _____ _____    ______ ____
ROOT
ATOM      1  C   LIG    1       -0.031   0.186   0.000  0.00  0.00    +0.073 A 
ATOM      2  C   LIG    1       -0.961   1.244   0.000  0.00  0.00    +0.201 A 
ATOM      3  N   LIG    1       -2.237   0.754   0.000  0.00  0.00    -0.325 N 
ATOM      4  H   LIG    1       -3.040   1.366   0.000  0.00  0.00    +0.169 HD
ATOM      5  C   LIG    1       -2.232  -0.616   0.000  0.00  0.00    +0.050 A 
ATOM      6  C   LIG    1       -3.298  -1.521   0.000  0.00  0.00    +0.026 A 
ATOM      7  C   LIG    1       -2.979  -2.877   0.000  0.00  0.00    +0.002 A 
ATOM      8  C   LIG    1       -1.661  -3.315   0.000  0.00  0.00    +0.001 A 
ATOM      9  C   LIG    1       -0.601  -2.410   0.000  0.00  0.00    +0.011 A 
ATOM     10  C   LIG    1       -0.859  -1.021   0.000  0.00  0.00    +0.013 A 
ENDROOT
BRANCH   1  11
ATOM     11  C   LIG    1        1.465   0.171   0.000  0.00  0.00    +0.124 C 
ATOM     12  C   LIG    1        2.368   1.333   0.000  0.00  0.00    +0.214 C 
ATOM     13  O   LIG    1        2.071   2.524   0.000  0.00  0.00    -0.285 OA
ATOM     14  C   LIG    1        3.693   0.722   0.000  0.00  0.00    +0.049 A 
ATOM     15  C   LIG    1        4.990   1.236   0.000  0.00  0.00    +0.014 A 
ATOM     16  C   LIG    1        6.064   0.340   0.000  0.00  0.00    +0.001 A 
ATOM     17  C   LIG    1        5.832  -1.041   0.000  0.00  0.00    +0.002 A 
ATOM     18  C   LIG    1        4.524  -1.537   0.000  0.00  0.00    +0.028 A 
ATOM     19  C   LIG    1        3.459  -0.635   0.000  0.00  0.00    +0.076 A 
ATOM     20  N   LIG    1        2.107  -0.935   0.000  0.00  0.00    -0.243 NA
ENDBRANCH   1  11
BRANCH   2  21
ATOM     21  O   LIG    1       -0.821   2.505  -0.000  0.00  0.00    -0.493 OA
ATOM     22  H   LIG    1        0.037   2.881  -0.000  0.00  0.00    +0.294 HD
ENDBRANCH   2  21
TORSDOF 2
