REMARK  Name = DB12879
REMARK                            x       y       z     vdW  Elec       q    Type
REMARK                         _______ _______ _______ _____ _____    ______ ____
ROOT
ATOM      1  C   LIG    1        3.480  -1.291   0.107  0.00  0.00    -0.022 C 
ATOM      2  C   LIG    1        4.113  -0.589  -1.045  0.00  0.00    +0.022 A 
ATOM      3  C   LIG    1        5.379   0.021  -0.925  0.00  0.00    +0.136 A 
ATOM      4  O   LIG    1        6.031   0.077   0.283  0.00  0.00    -0.455 OA
ATOM      5  C   LIG    1        6.502  -1.105   0.799  0.00  0.00    +0.136 A 
ATOM      6  C   LIG    1        5.611  -2.101   1.238  0.00  0.00    +0.018 A 
ATOM      7  C   LIG    1        6.121  -3.266   1.822  0.00  0.00    +0.011 A 
ATOM      8  C   LIG    1        7.496  -3.449   1.958  0.00  0.00    +0.001 A 
ATOM      9  C   LIG    1        8.376  -2.465   1.513  0.00  0.00    +0.004 A 
ATOM     10  C   LIG    1        7.879  -1.297   0.939  0.00  0.00    +0.047 A 
ATOM     11  C   LIG    1        5.973   0.625  -2.037  0.00  0.00    +0.047 A 
ATOM     12  C   LIG    1        5.328   0.629  -3.271  0.00  0.00    +0.004 A 
ATOM     13  C   LIG    1        4.080   0.027  -3.402  0.00  0.00    +0.001 A 
ATOM     14  C   LIG    1        3.482  -0.580  -2.299  0.00  0.00    +0.012 A 
ATOM     15  C   LIG    1        4.154  -1.950   1.077  0.00  0.00    +0.017 C 
ENDROOT
BRANCH   1  16
ATOM     16  C   LIG    1        1.955  -1.230   0.261  0.00  0.00    +0.121 C 
BRANCH  16  17
ATOM     17  N   LIG    1        1.368   0.114   0.218  0.00  0.00    -0.290 NA
ATOM     18  C   LIG    1        1.749   0.876   1.414  0.00  0.00    +0.106 C 
BRANCH  17  19
ATOM     19  C   LIG    1       -0.087   0.016   0.027  0.00  0.00    +0.173 C 
BRANCH  19  21
ATOM     20  C   LIG    1       -1.221   2.401  -0.532  0.00  0.00    +0.005 C 
ATOM     21  C   LIG    1       -0.702   1.326  -0.275  0.00  0.00    -0.090 C 
ENDBRANCH  19  21
ENDBRANCH  17  19
ENDBRANCH  16  17
ENDBRANCH   1  16
TORSDOF 4
