REMARK  Name = DB12887
REMARK                            x       y       z     vdW  Elec       q    Type
REMARK                         _______ _______ _______ _____ _____    ______ ____
ROOT
ATOM      1  C   LIG    1       -1.605   1.216   0.218  0.00  0.00    +0.034 A 
ATOM      2  C   LIG    1       -0.212   1.003   0.084  0.00  0.00    -0.017 A 
ATOM      3  C   LIG    1        0.756   2.192   0.198  0.00  0.00    +0.046 C 
ATOM      4  C   LIG    1        0.278  -0.317  -0.073  0.00  0.00    +0.042 A 
ATOM      5  C   LIG    1       -0.619  -1.390  -0.036  0.00  0.00    +0.022 A 
ATOM      6  C   LIG    1       -1.995  -1.202   0.115  0.00  0.00    -0.015 A 
ATOM      7  C   LIG    1       -2.465   0.108   0.231  0.00  0.00    +0.032 A 
ENDROOT
BRANCH   6   8
ATOM      8  C   LIG    1       -2.937  -2.363   0.132  0.00  0.00    -0.018 A 
ATOM      9  C   LIG    1       -4.093  -2.337   0.924  0.00  0.00    +0.009 A 
ATOM     10  C   LIG    1       -4.975  -3.414   0.935  0.00  0.00    +0.005 A 
ATOM     11  C   LIG    1       -4.702  -4.554   0.172  0.00  0.00    -0.033 A 
ATOM     12  C   LIG    1       -3.571  -4.576  -0.644  0.00  0.00    +0.005 A 
ATOM     13  C   LIG    1       -2.691  -3.498  -0.653  0.00  0.00    +0.009 A 
BRANCH  11  14
ATOM     14  C   LIG    1       -5.694  -5.714   0.101  0.00  0.00    +0.119 C 
BRANCH  14  15
ATOM     15  N   LIG    1       -6.322  -6.049   1.384  0.00  0.00    -0.294 NA
ATOM     16  C   LIG    1       -7.505  -6.895   1.180  0.00  0.00    +0.113 C 
ATOM     17  C   LIG    1       -8.136  -7.318   2.524  0.00  0.00    +0.175 C 
ATOM     18  O   LIG    1       -7.160  -7.949   3.345  0.00  0.00    -0.377 OA
ATOM     19  C   LIG    1       -6.055  -7.098   3.626  0.00  0.00    +0.175 C 
ATOM     20  C   LIG    1       -5.367  -6.673   2.311  0.00  0.00    +0.113 C 
ENDBRANCH  14  15
ENDBRANCH  11  14
ENDBRANCH   6   8
BRANCH   4  21
ATOM     21  C   LIG    1        1.738  -0.640  -0.284  0.00  0.00    +0.245 C 
ATOM     22  N   LIG    1        2.348   0.057  -1.262  0.00  0.00    -0.307 N 
ATOM     23  H   LIG    1        1.805   0.746  -1.760  0.00  0.00    +0.149 HD
ATOM     24  O   LIG    1        2.287  -1.527   0.372  0.00  0.00    -0.270 OA
BRANCH  22  25
ATOM     25  C   LIG    1        3.724  -0.131  -1.722  0.00  0.00    +0.145 C 
BRANCH  25  26
ATOM     26  C   LIG    1        3.813  -0.673  -3.157  0.00  0.00    +0.037 A 
ATOM     27  C   LIG    1        4.183   0.092  -4.233  0.00  0.00    -0.039 A 
ATOM     28  C   LIG    1        4.407   1.597  -4.161  0.00  0.00    +0.044 C 
ATOM     29  C   LIG    1        4.240  -0.548  -5.545  0.00  0.00    +0.024 A 
ATOM     30  C   LIG    1        3.937  -1.856  -5.656  0.00  0.00    +0.016 A 
ATOM     31  C   LIG    1        3.963  -2.623  -6.964  0.00  0.00    +0.063 C 
ATOM     32  N   LIG    1        3.585  -2.602  -4.566  0.00  0.00    -0.326 N 
ATOM     33  H   LIG    1        3.371  -3.583  -4.669  0.00  0.00    +0.169 HD
ATOM     34  C   LIG    1        3.513  -2.115  -3.297  0.00  0.00    +0.254 A 
ATOM     35  O   LIG    1        3.215  -2.872  -2.374  0.00  0.00    -0.268 OA
ENDBRANCH  25  26
ENDBRANCH  22  25
ENDBRANCH   4  21
BRANCH   1  36
ATOM     36  N   LIG    1       -2.146   2.527   0.310  0.00  0.00    -0.327 N 
BRANCH  36  37
ATOM     37  C   LIG    1       -3.280   2.786   1.232  0.00  0.00    +0.078 C 
ATOM     38  C   LIG    1       -2.988   2.212   2.648  0.00  0.00    +0.050 C 
ATOM     39  C   LIG    1       -4.070   2.629   3.662  0.00  0.00    +0.161 C 
ATOM     40  O   LIG    1       -4.197   4.048   3.684  0.00  0.00    -0.380 OA
ATOM     41  C   LIG    1       -4.619   4.601   2.440  0.00  0.00    +0.161 C 
ATOM     42  C   LIG    1       -3.571   4.306   1.350  0.00  0.00    +0.050 C 
ENDBRANCH  36  37
BRANCH  36  43
ATOM     43  C   LIG    1       -2.105   3.221  -0.989  0.00  0.00    +0.102 C 
ATOM     44  C   LIG    1       -3.245   2.833  -1.948  0.00  0.00    +0.024 C 
ENDBRANCH  36  43
ENDBRANCH   1  36
TORSDOF 9
