REMARK  Name = DB12954
REMARK                            x       y       z     vdW  Elec       q    Type
REMARK                         _______ _______ _______ _____ _____    ______ ____
ROOT
ATOM      1  C   LIG    1       -0.684   1.224   0.236  0.00  0.00    +0.010 A 
ATOM      2  C   LIG    1       -2.076   1.208   0.238  0.00  0.00    +0.010 A 
ATOM      3  C   LIG    1       -2.778  -0.005   0.207  0.00  0.00    -0.007 A 
ATOM      4  C   LIG    1       -2.051  -1.199   0.172  0.00  0.00    +0.010 A 
ATOM      5  C   LIG    1       -0.658  -1.184   0.169  0.00  0.00    +0.010 A 
ATOM      6  C   LIG    1        0.043   0.029   0.202  0.00  0.00    -0.007 A 
ENDROOT
BRANCH   3   7
ATOM      7  C   LIG    1       -4.246  -0.061   0.210  0.00  0.00    +0.113 C 
ATOM      8  N   LIG    1       -4.997   0.971   0.209  0.00  0.00    -0.276 NA
BRANCH   8   9
ATOM      9  C   LIG    1       -6.444   0.769   0.212  0.00  0.00    +0.220 C 
ATOM     10  C   LIG    1       -7.063   1.371   1.470  0.00  0.00    +0.226 C 
ATOM     11  O   LIG    1       -7.371   2.690   1.060  0.00  0.00    -0.277 OA
ATOM     12  N   LIG    1       -7.719   2.579  -0.286  0.00  0.00    -0.193 N 
ATOM     13  H   LIG    1       -8.233   3.409  -0.541  0.00  0.00    +0.183 HD
ATOM     14  C   LIG    1       -7.033   1.610  -0.912  0.00  0.00    +0.262 C 
ATOM     15  O   LIG    1       -6.915   1.420  -2.122  0.00  0.00    -0.271 OA
ENDBRANCH   8   9
ENDBRANCH   3   7
BRANCH   6  16
ATOM     16  C   LIG    1        1.511   0.086   0.201  0.00  0.00    +0.113 C 
ATOM     17  N   LIG    1        2.264  -0.944   0.178  0.00  0.00    -0.276 NA
BRANCH  17  18
ATOM     18  C   LIG    1        3.708  -0.734   0.179  0.00  0.00    +0.220 C 
ATOM     19  C   LIG    1        4.347  -1.345   1.427  0.00  0.00    +0.226 C 
ATOM     20  O   LIG    1        5.370  -2.167   0.898  0.00  0.00    -0.277 OA
ATOM     21  N   LIG    1        4.899  -2.574  -0.348  0.00  0.00    -0.193 N 
ATOM     22  H   LIG    1        5.532  -3.292  -0.668  0.00  0.00    +0.183 HD
ATOM     23  C   LIG    1        4.301  -1.546  -0.964  0.00  0.00    +0.262 C 
ATOM     24  O   LIG    1        4.210  -1.319  -2.169  0.00  0.00    -0.271 OA
ENDBRANCH  17  18
ENDBRANCH   6  16
TORSDOF 4
