REMARK  Name = DB12854
REMARK                            x       y       z     vdW  Elec       q    Type
REMARK                         _______ _______ _______ _____ _____    ______ ____
ROOT
ATOM      1  N   LIG    1       -0.520  -0.679   1.081  0.00  0.00    -0.230 N 
ATOM      2  C   LIG    1        0.113   0.018  -0.064  0.00  0.00    +0.193 C 
ATOM      3  C   LIG    1       -0.453  -0.747  -1.235  0.00  0.00    +0.019 A 
ATOM      4  C   LIG    1       -0.214  -0.628  -2.608  0.00  0.00    +0.009 A 
ATOM      5  C   LIG    1       -0.901  -1.451  -3.504  0.00  0.00    +0.000 A 
ATOM      6  C   LIG    1       -1.826  -2.385  -3.031  0.00  0.00    +0.001 A 
ATOM      7  C   LIG    1       -2.065  -2.502  -1.660  0.00  0.00    +0.013 A 
ATOM      8  C   LIG    1       -1.366  -1.676  -0.778  0.00  0.00    +0.045 A 
ATOM      9  C   LIG    1       -1.425  -1.626   0.712  0.00  0.00    +0.254 C 
ATOM     10  O   LIG    1       -2.114  -2.330   1.452  0.00  0.00    -0.270 OA
ENDROOT
BRANCH   2  11
ATOM     11  C   LIG    1        1.661   0.003   0.035  0.00  0.00    +0.009 A 
ATOM     12  C   LIG    1        2.384  -1.112  -0.426  0.00  0.00    +0.036 A 
ATOM     13  C   LIG    1        3.775  -1.129  -0.350  0.00  0.00    +0.066 A 
ATOM     14  N   LIG    1        4.723  -2.079  -0.713  0.00  0.00    -0.326 N 
ATOM     15  H   LIG    1        4.507  -2.977  -1.120  0.00  0.00    +0.169 HD
ATOM     16  C   LIG    1        6.050  -1.637  -0.438  0.00  0.00    +0.201 A 
ATOM     17  N   LIG    1        7.194  -2.187  -0.613  0.00  0.00    -0.109 NA
ATOM     18  N   LIG    1        5.821  -0.355   0.118  0.00  0.00    -0.326 N 
ATOM     19  H   LIG    1        6.561   0.254   0.435  0.00  0.00    +0.169 HD
ATOM     20  C   LIG    1        4.465  -0.045   0.172  0.00  0.00    +0.065 A 
ATOM     21  C   LIG    1        3.775   1.075   0.628  0.00  0.00    +0.028 A 
ATOM     22  C   LIG    1        2.381   1.097   0.554  0.00  0.00    +0.010 A 
BRANCH  17  23
ATOM     23  C   LIG    1        7.234  -3.450  -1.179  0.00  0.00    +0.427 C 
ATOM     24  O   LIG    1        7.425  -4.481  -0.529  0.00  0.00    -0.224 OA
BRANCH  23  25
ATOM     25  O   LIG    1        7.096  -3.388  -2.529  0.00  0.00    -0.452 OA
ATOM     26  C   LIG    1        7.133  -4.571  -3.313  0.00  0.00    +0.282 C 
ENDBRANCH  23  25
ENDBRANCH  17  23
ENDBRANCH   2  11
BRANCH   1  29
ATOM     27  C   LIG    1       -2.599   0.868   2.561  0.00  0.00    +0.045 C 
ATOM     28  C   LIG    1       -1.283   0.400   3.173  0.00  0.00    -0.029 A 
ATOM     29  C   LIG    1       -0.320  -0.319   2.431  0.00  0.00    +0.044 A 
ATOM     30  C   LIG    1        0.878  -0.705   3.046  0.00  0.00    +0.044 A 
ATOM     31  C   LIG    1        1.130  -0.374   4.376  0.00  0.00    +0.043 A 
ATOM     32 CL   LIG    1        2.616  -0.849   5.115  0.00  0.00    -0.083 Cl
ATOM     33  C   LIG    1        0.183   0.339   5.107  0.00  0.00    +0.020 A 
ATOM     34  C   LIG    1       -1.016   0.723   4.508  0.00  0.00    +0.006 A 
ENDBRANCH   1  29
BRANCH   2  35
ATOM     35  O   LIG    1       -0.321   1.369  -0.158  0.00  0.00    -0.364 OA
ATOM     36  H   LIG    1        0.030   1.743  -0.969  0.00  0.00    +0.213 HD
ENDBRANCH   2  35
TORSDOF 5
