REMARK  Name = DB12581
REMARK                            x       y       z     vdW  Elec       q    Type
REMARK                         _______ _______ _______ _____ _____    ______ ____
ROOT
ATOM      1  C   LIG    1       -2.049   1.201   0.373  0.00  0.00    +0.166 C 
ENDROOT
BRANCH   1   3
ATOM      2  C   LIG    1       -2.984  -0.139   2.223  0.00  0.00    +0.239 C 
ATOM      3  N   LIG    1       -2.599   1.085   1.751  0.00  0.00    -0.291 N 
ATOM      4  C   LIG    1       -2.591   2.307   2.580  0.00  0.00    +0.133 C 
ATOM      5  O   LIG    1       -2.952  -1.161   1.532  0.00  0.00    -0.273 OA
BRANCH   2   6
ATOM      6  CA  LIG    1       -3.519  -0.284   3.666  0.00  0.00    +0.185 C 
BRANCH   6   8
ATOM      7  C   LIG    1       -5.390   1.066   4.604  0.00  0.00    +0.234 C 
ATOM      8  N   LIG    1       -4.891   0.215   3.693  0.00  0.00    -0.301 N 
ATOM      9  H   LIG    1       -5.477  -0.081   2.926  0.00  0.00    +0.150 HD
ATOM     10  O   LIG    1       -4.762   1.484   5.576  0.00  0.00    -0.274 OA
BRANCH   7  11
ATOM     11  CA  LIG    1       -6.833   1.552   4.333  0.00  0.00    +0.163 C 
BRANCH  11  13
ATOM     12  C   LIG    1       -6.399   3.117   2.412  0.00  0.00    +0.234 C 
ATOM     13  N   LIG    1       -6.990   2.037   2.956  0.00  0.00    -0.302 N 
ATOM     14  H   LIG    1       -7.643   1.513   2.393  0.00  0.00    +0.150 HD
ATOM     15  O   LIG    1       -5.598   3.839   3.006  0.00  0.00    -0.274 OA
BRANCH  12  16
ATOM     16  CA  LIG    1       -6.817   3.433   0.956  0.00  0.00    +0.163 C 
BRANCH  16  17
ATOM     17  N   LIG    1       -5.764   4.114   0.189  0.00  0.00    -0.302 N 
ATOM     18  H   LIG    1       -5.306   3.537  -0.501  0.00  0.00    +0.150 HD
ATOM     19  C   LIG    1       -5.353   5.390   0.309  0.00  0.00    +0.234 C 
ATOM     20  O   LIG    1       -5.835   6.204   1.097  0.00  0.00    -0.274 OA
BRANCH  19  21
ATOM     21  CA  LIG    1       -4.222   5.821  -0.648  0.00  0.00    +0.163 C 
BRANCH  21  22
ATOM     22  N   LIG    1       -3.116   6.460   0.077  0.00  0.00    -0.304 N 
ATOM     23  H   LIG    1       -2.312   5.867   0.225  0.00  0.00    +0.149 HD
ATOM     24  C   LIG    1       -3.073   7.712   0.568  0.00  0.00    +0.211 C 
ATOM     25  C   LIG    1       -1.799   8.105   1.308  0.00  0.00    +0.109 C 
ATOM     26  O   LIG    1       -3.983   8.531   0.449  0.00  0.00    -0.276 OA
ENDBRANCH  21  22
BRANCH  21  27
ATOM     27  C   LIG    1       -4.744   6.652  -1.856  0.00  0.00    +0.067 C 
BRANCH  27  28
ATOM     28  C   LIG    1       -5.278   5.779  -2.990  0.00  0.00    -0.045 A 
ATOM     29  C   LIG    1       -6.546   5.204  -2.903  0.00  0.00    +0.004 A 
ATOM     30  C   LIG    1       -7.034   4.390  -3.921  0.00  0.00    +0.009 A 
ATOM     31  C   LIG    1       -6.256   4.147  -5.079  0.00  0.00    -0.018 A 
ATOM     32  C   LIG    1       -6.721   3.325  -6.136  0.00  0.00    +0.008 A 
ATOM     33  C   LIG    1       -5.932   3.117  -7.264  0.00  0.00    +0.001 A 
ATOM     34  C   LIG    1       -4.681   3.716  -7.373  0.00  0.00    +0.001 A 
ATOM     35  C   LIG    1       -4.196   4.529  -6.353  0.00  0.00    +0.008 A 
ATOM     36  C   LIG    1       -4.966   4.752  -5.186  0.00  0.00    -0.018 A 
ATOM     37  C   LIG    1       -4.492   5.559  -4.123  0.00  0.00    +0.012 A 
ENDBRANCH  27  28
ENDBRANCH  21  27
ENDBRANCH  19  21
ENDBRANCH  16  17
BRANCH  16  38
ATOM     38  C   LIG    1       -8.189   4.172   0.891  0.00  0.00    +0.067 C 
BRANCH  38  43
ATOM     39 CL   LIG    1      -12.810   0.780   2.790  0.00  0.00    -0.084 Cl
ATOM     40  C   LIG    1      -11.499   1.756   2.235  0.00  0.00    +0.041 A 
ATOM     41  C   LIG    1      -11.215   2.961   2.875  0.00  0.00    +0.020 A 
ATOM     42  C   LIG    1      -10.156   3.747   2.430  0.00  0.00    +0.005 A 
ATOM     43  C   LIG    1       -9.375   3.322   1.351  0.00  0.00    -0.045 A 
ATOM     44  C   LIG    1       -9.672   2.118   0.706  0.00  0.00    +0.005 A 
ATOM     45  C   LIG    1      -10.733   1.333   1.150  0.00  0.00    +0.020 A 
ENDBRANCH  38  43
ENDBRANCH  16  38
ENDBRANCH  12  16
ENDBRANCH  11  13
BRANCH  11  46
ATOM     46  C   LIG    1       -7.378   2.567   5.379  0.00  0.00    +0.068 C 
BRANCH  46  47
ATOM     47  C   LIG    1       -7.752   1.912   6.704  0.00  0.00    -0.027 A 
ATOM     48  C   LIG    1       -8.906   1.127   6.813  0.00  0.00    +0.114 A 
ATOM     49  N   LIG    1       -9.284   0.522   7.968  0.00  0.00    -0.263 NA
ATOM     50  C   LIG    1       -8.498   0.698   9.061  0.00  0.00    +0.111 A 
ATOM     51  C   LIG    1       -7.333   1.468   9.042  0.00  0.00    +0.020 A 
ATOM     52  C   LIG    1       -6.960   2.083   7.845  0.00  0.00    +0.006 A 
ENDBRANCH  46  47
ENDBRANCH  11  46
ENDBRANCH   7  11
ENDBRANCH   6   8
BRANCH   6  53
ATOM     53  C   LIG    1       -3.493  -1.742   4.182  0.00  0.00    +0.187 C 
BRANCH  53  54
ATOM     54  O   LIG    1       -3.540  -1.767   5.594  0.00  0.00    -0.393 OA
ATOM     55  H   LIG    1       -3.536  -2.681   5.886  0.00  0.00    +0.209 HD
ENDBRANCH  53  54
ENDBRANCH   6  53
ENDBRANCH   2   6
ENDBRANCH   1   3
BRANCH   1  56
ATOM     56  C   LIG    1       -0.511   1.167   0.433  0.00  0.00    +0.234 C 
ATOM     57  N   LIG    1        0.034  -0.055   0.292  0.00  0.00    -0.302 N 
ATOM     58  H   LIG    1       -0.588  -0.831   0.118  0.00  0.00    +0.150 HD
ATOM     59  O   LIG    1        0.117   2.201   0.660  0.00  0.00    -0.274 OA
BRANCH  57  60
ATOM     60  C   LIG    1        1.442  -0.436   0.474  0.00  0.00    +0.159 C 
BRANCH  60  61
ATOM     61  C   LIG    1        2.347   0.036  -0.679  0.00  0.00    +0.234 C 
ATOM     62  N   LIG    1        3.336  -0.809  -1.021  0.00  0.00    -0.302 N 
ATOM     63  H   LIG    1        3.459  -1.661  -0.494  0.00  0.00    +0.150 HD
ATOM     64  O   LIG    1        2.132   1.108  -1.246  0.00  0.00    -0.274 OA
BRANCH  62  65
ATOM     65  C   LIG    1        4.189  -0.674  -2.205  0.00  0.00    +0.159 C 
BRANCH  65  66
ATOM     66  C   LIG    1        3.420  -1.192  -3.436  0.00  0.00    +0.234 C 
ATOM     67  N   LIG    1        2.543  -0.327  -3.967  0.00  0.00    -0.302 N 
ATOM     68  H   LIG    1        2.487   0.608  -3.587  0.00  0.00    +0.150 HD
ATOM     69  O   LIG    1        3.577  -2.351  -3.821  0.00  0.00    -0.274 OA
BRANCH  67  70
ATOM     70  C   LIG    1        1.532  -0.656  -4.966  0.00  0.00    +0.159 C 
BRANCH  70  71
ATOM     71  C   LIG    1        1.652   0.336  -6.137  0.00  0.00    +0.237 C 
ATOM     72  N   LIG    1        2.215  -0.106  -7.286  0.00  0.00    -0.288 N 
ATOM     73  C   LIG    1        3.025  -1.312  -7.444  0.00  0.00    +0.109 C 
ATOM     74  C   LIG    1        3.890  -1.018  -8.662  0.00  0.00    +0.021 C 
ATOM     75  C   LIG    1        2.973  -0.182  -9.542  0.00  0.00    +0.033 C 
ATOM     76  C   LIG    1        2.103   0.630  -8.561  0.00  0.00    +0.162 C 
ATOM     77  O   LIG    1        1.207   1.474  -5.994  0.00  0.00    -0.274 OA
BRANCH  76  78
ATOM     78  C   LIG    1        0.649   0.774  -9.059  0.00  0.00    +0.234 C 
ATOM     79  N   LIG    1       -0.107  -0.342  -9.016  0.00  0.00    -0.303 N 
ATOM     80  H   LIG    1        0.323  -1.193  -8.684  0.00  0.00    +0.149 HD
ATOM     81  O   LIG    1        0.254   1.876  -9.434  0.00  0.00    -0.274 OA
BRANCH  79  82
ATOM     82  C   LIG    1       -1.528  -0.466  -9.367  0.00  0.00    +0.156 C 
ATOM     83  C   LIG    1       -1.764  -0.064 -10.843  0.00  0.00    +0.038 C 
BRANCH  82  84
ATOM     84  C   LIG    1       -2.469   0.216  -8.340  0.00  0.00    +0.231 C 
ATOM     85  N   LIG    1       -3.639   0.692  -8.777  0.00  0.00    -0.328 N 
ATOM     86  H   LIG    1       -3.880   0.635  -9.755  0.00  0.00    +0.145 HD
ATOM     87  H   LIG    1       -4.284   1.124  -8.131  0.00  0.00    +0.145 HD
ATOM     88  O   LIG    1       -2.158   0.252  -7.150  0.00  0.00    -0.274 OA
ENDBRANCH  82  84
ENDBRANCH  79  82
ENDBRANCH  76  78
ENDBRANCH  70  71
BRANCH  70  89
ATOM     89  C   LIG    1        0.142  -0.537  -4.297  0.00  0.00    +0.033 C 
BRANCH  89  90
ATOM     90  C   LIG    1       -0.145  -1.627  -3.246  0.00  0.00    +0.017 C 
BRANCH  90  91
ATOM     91  C   LIG    1       -1.486  -1.441  -2.513  0.00  0.00    +0.084 C 
BRANCH  91  92
ATOM     92  N   LIG    1       -2.653  -1.655  -3.387  0.00  0.00    -0.283 NA
ATOM     93  H   LIG    1       -2.439  -1.783  -4.366  0.00  0.00    +0.125 HD
BRANCH  92  94
ATOM     94  C   LIG    1       -3.951  -1.657  -3.027  0.00  0.00    +0.167 C 
BRANCH  94  95
ATOM     95  N   LIG    1       -4.346  -1.487  -1.754  0.00  0.00    -0.297 NA
ATOM     96  H   LIG    1       -3.658  -1.360  -1.025  0.00  0.00    +0.121 HD
ATOM     97  H   LIG    1       -5.328  -1.498  -1.518  0.00  0.00    +0.121 HD
ENDBRANCH  94  95
BRANCH  94  98
ATOM     98  N   LIG    1       -4.879  -1.832  -3.977  0.00  0.00    -0.297 NA
ATOM     99  H   LIG    1       -4.599  -1.957  -4.940  0.00  0.00    +0.121 HD
ATOM    100  H   LIG    1       -5.860  -1.846  -3.738  0.00  0.00    +0.121 HD
ENDBRANCH  94  98
ENDBRANCH  92  94
ENDBRANCH  91  92
ENDBRANCH  90  91
ENDBRANCH  89  90
ENDBRANCH  70  89
ENDBRANCH  67  70
ENDBRANCH  65  66
BRANCH  65 101
ATOM    101  C   LIG    1        5.540  -1.401  -2.022  0.00  0.00    +0.032 C 
BRANCH 101 102
ATOM    102  C   LIG    1        6.395  -0.823  -0.877  0.00  0.00    +0.002 C 
BRANCH 102 103
ATOM    103  C   LIG    1        7.756  -1.526  -0.739  0.00  0.00    -0.003 C 
ATOM    104  C   LIG    1        8.612  -0.952   0.398  0.00  0.00    +0.004 C 
ENDBRANCH 102 103
ENDBRANCH 101 102
ENDBRANCH  65 101
ENDBRANCH  62  65
ENDBRANCH  60  61
BRANCH  60 105
ATOM    105  C   LIG    1        2.009  -0.032   1.858  0.00  0.00    +0.032 C 
BRANCH 105 106
ATOM    106  C   LIG    1        1.218  -0.641   3.042  0.00  0.00    +0.004 C 
BRANCH 106 107
ATOM    107  C   LIG    1        1.148   0.275   4.277  0.00  0.00    +0.019 C 
BRANCH 107 108
ATOM    108  C   LIG    1        0.286  -0.325   5.407  0.00  0.00    +0.106 C 
BRANCH 108 109
ATOM    109  N   LIG    1        0.126   0.550   6.566  0.00  0.00    -0.300 N 
ATOM    110  H   LIG    1        0.643   0.296   7.395  0.00  0.00    +0.150 HD
ATOM    111  C   LIG    1       -0.667   1.633   6.609  0.00  0.00    +0.297 C 
ATOM    112  N   LIG    1       -0.655   2.227   7.802  0.00  0.00    -0.313 N 
ATOM    113  H   LIG    1       -0.089   1.860   8.552  0.00  0.00    +0.146 HD
ATOM    114  H   LIG    1       -1.220   3.048   7.961  0.00  0.00    +0.146 HD
ATOM    115  O   LIG    1       -1.342   2.048   5.668  0.00  0.00    -0.253 OA
ENDBRANCH 108 109
ENDBRANCH 107 108
ENDBRANCH 106 107
ENDBRANCH 105 106
ENDBRANCH  60 105
ENDBRANCH  57  60
ENDBRANCH   1  56
BRANCH   1 116
ATOM    116  C   LIG    1       -2.572   2.468  -0.355  0.00  0.00    +0.067 C 
BRANCH 116 117
ATOM    117  C   LIG    1       -2.245   2.567  -1.838  0.00  0.00    -0.045 A 
ATOM    118  C   LIG    1       -3.095   1.968  -2.793  0.00  0.00    +0.007 A 
ATOM    119  C   LIG    1       -2.805   2.071  -4.167  0.00  0.00    +0.045 A 
ATOM    120  C   LIG    1       -1.671   2.788  -4.594  0.00  0.00    +0.117 A 
ATOM    121  C   LIG    1       -0.821   3.389  -3.647  0.00  0.00    +0.045 A 
ATOM    122  C   LIG    1       -1.107   3.279  -2.273  0.00  0.00    +0.007 A 
BRANCH 120 123
ATOM    123  O   LIG    1       -1.395   2.906  -5.924  0.00  0.00    -0.507 OA
ATOM    124  H   LIG    1       -1.988   2.396  -6.482  0.00  0.00    +0.292 HD
ENDBRANCH 120 123
ENDBRANCH 116 117
ENDBRANCH   1 116
TORSDOF 45
