REMARK  Name = DB12024
REMARK                            x       y       z     vdW  Elec       q    Type
REMARK                         _______ _______ _______ _____ _____    ______ ____
ROOT
ATOM      1  C   LIG    1        2.082  -1.427  -0.032  0.00  0.00    +0.132 C 
ATOM      2  C   LIG    1        1.340  -2.334  -1.045  0.00  0.00    +0.131 C 
ATOM      3  N   LIG    1        0.574  -2.851   0.118  0.00  0.00    -0.295 N 
ATOM      4  C   LIG    1       -0.427  -3.754   0.173  0.00  0.00    +0.247 C 
ATOM      5  O   LIG    1       -0.803  -4.357  -0.833  0.00  0.00    -0.270 OA
ATOM      6  C   LIG    1        1.448  -2.214   1.143  0.00  0.00    +0.131 C 
ENDROOT
BRANCH   4   7
ATOM      7  C   LIG    1       -1.084  -4.038   1.505  0.00  0.00    +0.037 A 
ATOM      8  C   LIG    1       -1.340  -3.014   2.429  0.00  0.00    +0.016 A 
ATOM      9  C   LIG    1       -1.963  -3.299   3.642  0.00  0.00    +0.039 A 
ATOM     10  C   LIG    1       -2.345  -4.606   3.933  0.00  0.00    +0.123 A 
ATOM     11  F   LIG    1       -2.951  -4.882   5.110  0.00  0.00    -0.205 F 
ATOM     12  C   LIG    1       -2.118  -5.629   3.017  0.00  0.00    +0.039 A 
ATOM     13  C   LIG    1       -1.496  -5.344   1.804  0.00  0.00    +0.016 A 
ENDBRANCH   4   7
BRANCH   1  14
ATOM     14  C   LIG    1        3.634  -1.502  -0.103  0.00  0.00    +0.317 C 
ATOM     15  O   LIG    1        4.277  -1.454   0.972  0.00  0.00    -0.250 OA
BRANCH  14  16
ATOM     16  O   LIG    1        4.170  -1.560  -1.234  0.00  0.00    -0.480 OA
ATOM     17  H   LIG    1        3.637  -1.593  -2.004  0.00  0.00    +0.295 HD
ENDBRANCH  14  16
ENDBRANCH   1  14
BRANCH   1  18
ATOM     18  C   LIG    1        1.642   0.064  -0.091  0.00  0.00    +0.250 C 
BRANCH  18  19
ATOM     19  O   LIG    1        0.222   0.177   0.014  0.00  0.00    -0.491 OA
BRANCH  19  25
ATOM     20  C   LIG    1       -3.849   5.155   0.046  0.00  0.00    +0.121 A 
ATOM     21  C   LIG    1       -2.452   5.129  -0.080  0.00  0.00    +0.054 A 
ATOM     22  C   LIG    1       -1.743   3.902  -0.061  0.00  0.00    -0.014 A 
ATOM     23  C   LIG    1       -0.334   3.852  -0.186  0.00  0.00    +0.012 A 
ATOM     24  C   LIG    1        0.333   2.630  -0.163  0.00  0.00    +0.046 A 
ATOM     25  C   LIG    1       -0.368   1.426  -0.017  0.00  0.00    +0.121 A 
ATOM     26  C   LIG    1       -1.757   1.457   0.108  0.00  0.00    +0.054 A 
ATOM     27  C   LIG    1       -2.467   2.683   0.089  0.00  0.00    -0.014 A 
ATOM     28  C   LIG    1       -3.875   2.731   0.214  0.00  0.00    +0.012 A 
ATOM     29  C   LIG    1       -4.541   3.954   0.191  0.00  0.00    +0.046 A 
BRANCH  20  31
ATOM     30  C   LIG    1       -3.964   7.568  -0.098  0.00  0.00    +0.277 C 
ATOM     31  O   LIG    1       -4.612   6.308   0.037  0.00  0.00    -0.495 OA
ENDBRANCH  20  31
ENDBRANCH  19  25
ENDBRANCH  18  19
ENDBRANCH   1  18
TORSDOF 7
