REMARK  Name = DB12426
REMARK                            x       y       z     vdW  Elec       q    Type
REMARK                         _______ _______ _______ _____ _____    ______ ____
ROOT
ATOM      1  C   LIG    1        1.555  -2.416  -0.187  0.00  0.00    +0.250 C 
ATOM      2  N   LIG    1        1.130  -2.796  -1.423  0.00  0.00    -0.294 N 
ATOM      3  C   LIG    1        1.386  -2.035  -2.655  0.00  0.00    +0.127 C 
ATOM      4  C   LIG    1        0.031  -1.624  -3.268  0.00  0.00    +0.125 C 
ATOM      5  N   LIG    1       -0.945  -2.715  -3.413  0.00  0.00    -0.310 N 
ATOM      6  C   LIG    1       -1.050  -3.561  -2.215  0.00  0.00    +0.125 C 
ATOM      7  C   LIG    1        0.301  -3.994  -1.598  0.00  0.00    +0.127 C 
ATOM      8  O   LIG    1        1.332  -3.059   0.841  0.00  0.00    -0.270 OA
ENDROOT
BRANCH   5   9
ATOM      9  C   LIG    1       -2.103  -2.451  -4.124  0.00  0.00    +0.157 A 
ATOM     10  N   LIG    1       -3.002  -1.602  -3.553  0.00  0.00    -0.237 NA
ATOM     11  C   LIG    1       -4.145  -1.322  -4.230  0.00  0.00    +0.125 A 
ATOM     12  C   LIG    1       -4.443  -1.864  -5.486  0.00  0.00    +0.076 A 
ATOM     13  C   LIG    1       -3.508  -2.735  -6.058  0.00  0.00    +0.055 A 
ATOM     14  C   LIG    1       -2.327  -3.036  -5.377  0.00  0.00    +0.164 A 
ATOM     15  F   LIG    1       -1.423  -3.879  -5.930  0.00  0.00    -0.202 F 
BRANCH  12  16
ATOM     16  C   LIG    1       -5.735  -1.530  -6.225  0.00  0.00    +0.419 C 
ATOM     17  F   LIG    1       -6.442  -2.645  -6.412  0.00  0.00    -0.166 F 
ATOM     18  F   LIG    1       -5.447  -1.002  -7.415  0.00  0.00    -0.166 F 
ATOM     19  F   LIG    1       -6.493  -0.660  -5.555  0.00  0.00    -0.166 F 
ENDBRANCH  12  16
ENDBRANCH   5   9
BRANCH   1  21
ATOM     20  C   LIG    1        1.616   0.111  -0.006  0.00  0.00    +0.134 A 
ATOM     21  C   LIG    1        2.305  -1.117  -0.064  0.00  0.00    +0.080 A 
ATOM     22  C   LIG    1        3.702  -1.148   0.010  0.00  0.00    +0.043 A 
ATOM     23  C   LIG    1        4.429   0.037   0.128  0.00  0.00    +0.089 A 
ATOM     24  C   LIG    1        3.757   1.258   0.172  0.00  0.00    +0.030 A 
ATOM     25  C   LIG    1        2.366   1.295   0.108  0.00  0.00    +0.048 A 
BRANCH  23  26
ATOM     26  S   LIG    1        6.217  -0.009   0.203  0.00  0.00    -0.006 S 
ATOM     27  C   LIG    1        6.723   0.071  -1.611  0.00  0.00    +0.200 C 
ATOM     28  O   LIG    1        6.603  -1.320   0.737  0.00  0.00    -0.170 OA
ATOM     29  O   LIG    1        6.664   1.222   0.865  0.00  0.00    -0.170 OA
ENDBRANCH  23  26
BRANCH  20  30
ATOM     30  O   LIG    1        0.231   0.076  -0.083  0.00  0.00    -0.479 OA
BRANCH  30  32
ATOM     31  C   LIG    1       -1.891   0.967  -0.661  0.00  0.00    +0.061 C 
ATOM     32  C   LIG    1       -0.572   1.249   0.083  0.00  0.00    +0.274 C 
BRANCH  32  33
ATOM     33  C   LIG    1       -0.796   1.560   1.585  0.00  0.00    +0.426 C 
ATOM     34  F   LIG    1       -1.362   0.532   2.218  0.00  0.00    -0.167 F 
ATOM     35  F   LIG    1       -1.601   2.611   1.741  0.00  0.00    -0.167 F 
ATOM     36  F   LIG    1        0.340   1.845   2.221  0.00  0.00    -0.167 F 
ENDBRANCH  32  33
ENDBRANCH  30  32
ENDBRANCH  20  30
ENDBRANCH   1  21
TORSDOF 7
