REMARK  Name = DB12539
REMARK                            x       y       z     vdW  Elec       q    Type
REMARK                         _______ _______ _______ _____ _____    ______ ____
ROOT
ATOM      1  C   LIG    1       -0.023   0.043  -0.270  0.00  0.00    +0.047 C 
ATOM      2  C   LIG    1        1.478   0.001   0.036  0.00  0.00    -0.013 A 
ATOM      3  C   LIG    1        2.231   1.213   0.204  0.00  0.00    +0.067 A 
ATOM      4  S   LIG    1        3.939   0.916   0.523  0.00  0.00    -0.044 S 
ATOM      5  S   LIG    1        3.912  -1.091   0.485  0.00  0.00    -0.049 S 
ATOM      6  S   LIG    1        1.707   2.792   0.138  0.00  0.00    -0.043 S 
ATOM      7  C   LIG    1        2.184  -1.151   0.142  0.00  0.00    +0.050 A 
ENDROOT
BRANCH   7   8
ATOM      8  C   LIG    1        1.604  -2.502   0.034  0.00  0.00    +0.096 A 
ATOM      9  N   LIG    1        0.762  -2.876   1.037  0.00  0.00    -0.251 NA
ATOM     10  C   LIG    1        0.234  -4.127   0.975  0.00  0.00    +0.131 A 
ATOM     11  C   LIG    1        0.548  -4.998  -0.072  0.00  0.00    +0.130 A 
ATOM     12  N   LIG    1        1.398  -4.632  -1.068  0.00  0.00    -0.260 NA
ATOM     13  C   LIG    1        1.927  -3.382  -1.007  0.00  0.00    +0.139 A 
ENDBRANCH   7   8
TORSDOF 1
