REMARK  Name = DB12867
REMARK                            x       y       z     vdW  Elec       q    Type
REMARK                         _______ _______ _______ _____ _____    ______ ____
ROOT
ATOM      1  C   LIG    1        1.572  -4.652  -0.004  0.00  0.00    +0.095 C 
ATOM      2  C   LIG    1        1.845  -3.839   1.284  0.00  0.00    +0.040 C 
ATOM      3  C   LIG    1        1.252  -2.417   1.218  0.00  0.00    +0.086 C 
ATOM      4  N   LIG    1        1.708  -1.710   0.014  0.00  0.00    -0.302 NA
ATOM      5  C   LIG    1        1.331  -2.406  -1.223  0.00  0.00    +0.086 C 
ATOM      6  C   LIG    1        1.928  -3.828  -1.263  0.00  0.00    +0.040 C 
ENDROOT
BRANCH   1  12
ATOM      7  C   LIG    1        6.357  -6.994   0.126  0.00  0.00    +0.002 A 
ATOM      8  C   LIG    1        5.307  -7.911   0.093  0.00  0.00    +0.030 A 
ATOM      9  C   LIG    1        3.996  -7.416   0.059  0.00  0.00    +0.093 A 
ATOM     10  N   LIG    1        2.822  -8.115   0.026  0.00  0.00    -0.195 NA
ATOM     11  C   LIG    1        1.902  -7.190   0.003  0.00  0.00    +0.297 A 
ATOM     12  N   LIG    1        2.379  -5.888   0.018  0.00  0.00    -0.291 N 
ATOM     13  C   LIG    1        3.764  -6.013   0.057  0.00  0.00    +0.072 A 
ATOM     14  C   LIG    1        4.824  -5.095   0.090  0.00  0.00    +0.028 A 
ATOM     15  C   LIG    1        6.117  -5.621   0.124  0.00  0.00    +0.002 A 
BRANCH  11  16
ATOM     16  O   LIG    1        0.552  -7.422  -0.033  0.00  0.00    -0.480 OA
ATOM     17  H   LIG    1        0.377  -8.365  -0.024  0.00  0.00    +0.295 HD
ENDBRANCH  11  16
ENDBRANCH   1  12
BRANCH   4  18
ATOM     18  C   LIG    1        1.367  -0.283   0.009  0.00  0.00    +0.085 C 
BRANCH  18  19
ATOM     19  C   LIG    1       -0.142   0.050   0.045  0.00  0.00    +0.023 C 
BRANCH  19  20
ATOM     20  C   LIG    1       -0.402   1.552  -0.173  0.00  0.00    +0.081 C 
BRANCH  20  21
ATOM     21  C   LIG    1       -1.897   1.909  -0.156  0.00  0.00    +0.163 C 
ATOM     22  O   LIG    1       -2.392   2.265   0.914  0.00  0.00    -0.292 OA
BRANCH  21  23
ATOM     23  C   LIG    1       -2.659   1.877  -1.448  0.00  0.00    +0.018 A 
ATOM     24  C   LIG    1       -3.959   2.403  -1.489  0.00  0.00    +0.014 A 
ATOM     25  C   LIG    1       -4.692   2.383  -2.673  0.00  0.00    +0.039 A 
ATOM     26  C   LIG    1       -4.135   1.832  -3.823  0.00  0.00    +0.123 A 
ATOM     27  F   LIG    1       -4.847   1.814  -4.972  0.00  0.00    -0.205 F 
ATOM     28  C   LIG    1       -2.850   1.299  -3.797  0.00  0.00    +0.039 A 
ATOM     29  C   LIG    1       -2.114   1.319  -2.615  0.00  0.00    +0.014 A 
ENDBRANCH  21  23
ENDBRANCH  20  21
ENDBRANCH  19  20
ENDBRANCH  18  19
ENDBRANCH   4  18
TORSDOF 7
