REMARK  Name = DB12900
REMARK                            x       y       z     vdW  Elec       q    Type
REMARK                         _______ _______ _______ _____ _____    ______ ____
ROOT
ATOM      1  C   LIG    1        3.566  -1.157  -0.004  0.00  0.00    +0.121 A 
ATOM      2  C   LIG    1        4.484  -0.096   0.009  0.00  0.00    +0.046 A 
ATOM      3  C   LIG    1        5.852  -0.352   0.024  0.00  0.00    +0.013 A 
ATOM      4  C   LIG    1        6.333  -1.669   0.025  0.00  0.00    +0.002 A 
ATOM      5  C   LIG    1        5.410  -2.725   0.010  0.00  0.00    +0.013 A 
ATOM      6  C   LIG    1        4.043  -2.467  -0.002  0.00  0.00    +0.046 A 
ENDROOT
BRANCH   4   7
ATOM      7  C   LIG    1        7.791  -1.921   0.027  0.00  0.00    +0.091 A 
ATOM      8  N   LIG    1        8.654  -1.090   0.524  0.00  0.00    -0.171 NA
ATOM      9  N   LIG    1       10.016  -1.379   0.514  0.00  0.00    -0.243 N 
ATOM     10  H   LIG    1       10.599  -0.667   0.929  0.00  0.00    +0.192 HD
ATOM     11  C   LIG    1       10.627  -2.497   0.025  0.00  0.00    +0.265 A 
ATOM     12  O   LIG    1       11.840  -2.690   0.064  0.00  0.00    -0.266 OA
ATOM     13  C   LIG    1        9.654  -3.419  -0.537  0.00  0.00    +0.073 A 
ATOM     14  C   LIG    1        8.325  -3.155  -0.537  0.00  0.00    +0.035 A 
ENDBRANCH   4   7
BRANCH   1  15
ATOM     15  O   LIG    1        2.193  -1.001  -0.018  0.00  0.00    -0.492 OA
BRANCH  15  16
ATOM     16  C   LIG    1        1.638   0.311  -0.043  0.00  0.00    +0.227 C 
BRANCH  16  17
ATOM     17  C   LIG    1        0.108   0.195  -0.047  0.00  0.00    +0.022 C 
BRANCH  17  18
ATOM     18  C   LIG    1       -0.584   1.566  -0.122  0.00  0.00    -0.075 C 
BRANCH  18  21
ATOM     19  C   LIG    1       -2.825   3.511   1.367  0.00  0.00    -0.013 C 
ATOM     20  C   LIG    1       -2.877   2.746   0.034  0.00  0.00    -0.072 C 
ATOM     21  N   LIG    1       -2.119   1.406  -0.038  0.00  0.00    +0.381 N 
ATOM     22  H   LIG    1       -2.342   0.889   0.801  0.00  0.00    -0.081 HD
ATOM     23  C   LIG    1       -2.738   0.659  -1.240  0.00  0.00    -0.079 C 
ATOM     24  C   LIG    1       -4.155   1.220  -1.399  0.00  0.00    -0.020 C 
ATOM     25  C   LIG    1       -4.296   2.355  -0.389  0.00  0.00    -0.017 C 
ENDBRANCH  18  21
ENDBRANCH  17  18
ENDBRANCH  16  17
ENDBRANCH  15  16
ENDBRANCH   1  15
TORSDOF 6
