REMARK  Name = DB12299
REMARK                            x       y       z     vdW  Elec       q    Type
REMARK                         _______ _______ _______ _____ _____    ______ ____
ROOT
ATOM      1  C   LIG    1       -2.377  -1.027  -0.345  0.00  0.00    +0.005 A 
ATOM      2  C   LIG    1       -2.902   0.210   0.032  0.00  0.00    -0.033 A 
ATOM      3  C   LIG    1       -2.062   1.192   0.557  0.00  0.00    +0.005 A 
ATOM      4  C   LIG    1       -0.705   0.933   0.722  0.00  0.00    +0.013 A 
ATOM      5  C   LIG    1       -0.172  -0.316   0.371  0.00  0.00    +0.037 A 
ATOM      6  C   LIG    1       -1.019  -1.286  -0.182  0.00  0.00    +0.013 A 
ENDROOT
BRANCH   5   7
ATOM      7  C   LIG    1        1.307  -0.615   0.522  0.00  0.00    +0.246 C 
ATOM      8  N   LIG    1        1.986  -0.123   1.598  0.00  0.00    -0.301 N 
ATOM      9  C   LIG    1        3.466  -0.254   1.599  0.00  0.00    +0.089 C 
ATOM     10  C   LIG    1        4.008   0.675   2.708  0.00  0.00    -0.059 C 
ATOM     11  N   LIG    1        3.541   0.153   4.087  0.00  0.00    +0.384 N 
ATOM     12  H   LIG    1        4.168  -0.580   4.386  0.00  0.00    -0.081 HD
ATOM     13  C   LIG    1        2.121  -0.465   4.041  0.00  0.00    -0.059 C 
ATOM     14  C   LIG    1        1.297   0.158   2.888  0.00  0.00    +0.089 C 
ATOM     15  O   LIG    1        1.858  -1.282  -0.358  0.00  0.00    -0.270 OA
BRANCH  11  16
ATOM     16  C   LIG    1        3.623   1.288   5.124  0.00  0.00    -0.069 C 
ATOM     17  C   LIG    1        3.917   0.940   6.566  0.00  0.00    -0.017 C 
ATOM     18  C   LIG    1        4.965   1.633   5.730  0.00  0.00    -0.017 C 
ENDBRANCH  11  16
ENDBRANCH   5   7
BRANCH   2  19
ATOM     19  C   LIG    1       -4.390   0.491  -0.143  0.00  0.00    +0.119 C 
BRANCH  19  20
ATOM     20  N   LIG    1       -5.085   0.665   1.136  0.00  0.00    -0.294 NA
ATOM     21  C   LIG    1       -5.181  -0.594   1.891  0.00  0.00    +0.113 C 
ATOM     22  C   LIG    1       -5.988  -0.409   3.194  0.00  0.00    +0.175 C 
ATOM     23  O   LIG    1       -7.268   0.140   2.902  0.00  0.00    -0.377 OA
ATOM     24  C   LIG    1       -7.181   1.407   2.259  0.00  0.00    +0.175 C 
ATOM     25  C   LIG    1       -6.406   1.272   0.930  0.00  0.00    +0.113 C 
ENDBRANCH  19  20
ENDBRANCH   2  19
TORSDOF 4
