REMARK  Name = DB12484
REMARK                            x       y       z     vdW  Elec       q    Type
REMARK                         _______ _______ _______ _____ _____    ______ ____
ROOT
ATOM      1  C1*   U A  1        1.432  -0.035   0.212  0.00  0.00    +0.241 C 
ATOM      2  O4*   U A  1        1.905  -0.951  -0.732  0.00  0.00    -0.348 OA
ATOM      3  C4*   U A  1        3.296  -1.202  -0.527  0.00  0.00    +0.177 C 
ATOM      4  C3*   U A  1        3.650  -0.449   0.774  0.00  0.00    +0.178 C 
ATOM      5  C2*   U A  1        2.293  -0.246   1.456  0.00  0.00    +0.193 C 
ENDROOT
BRANCH   1  12
ATOM      6  C5    U A  1       -2.056   1.221  -0.027  0.00  0.00    +0.070 C 
ATOM      7  C4    U A  1       -2.734  -0.165  -0.223  0.00  0.00    +0.205 C 
ATOM      8  N3    U A  1       -1.995  -1.193   0.531  0.00  0.00    -0.274 N 
ATOM      9  H3    U A  1       -2.498  -2.027   0.795  0.00  0.00    +0.153 HD
ATOM     10  C2    U A  1       -0.640  -1.247   0.606  0.00  0.00    +0.306 C 
ATOM     11  O2    U A  1       -0.091  -2.335   0.786  0.00  0.00    -0.253 OA
ATOM     12  N1    U A  1       -0.015  -0.052   0.342  0.00  0.00    -0.257 N 
ATOM     13  C6    U A  1       -0.724   1.179   0.750  0.00  0.00    +0.116 C 
BRANCH   7  14
ATOM     14  O4    U A  1       -2.840  -0.515  -1.589  0.00  0.00    -0.374 OA
ATOM     15  H4    U A  1       -3.407   0.125  -2.026  0.00  0.00    +0.212 HD
ENDBRANCH   7  14
ENDBRANCH   1  12
BRANCH   4  16
ATOM     16  O3*   U A  1        4.345   0.761   0.515  0.00  0.00    -0.386 OA
ATOM     17  H3*   U A  1        3.788   1.319  -0.032  0.00  0.00    +0.210 HD
ENDBRANCH   4  16
BRANCH   5  18
ATOM     18  O2*   U A  1        2.162   0.833   2.365  0.00  0.00    -0.385 OA
ATOM     19  H2*   U A  1        2.642   0.616   3.167  0.00  0.00    +0.210 HD
ENDBRANCH   5  18
BRANCH   3  20
ATOM     20  C5*   U A  1        3.522  -2.731  -0.516  0.00  0.00    +0.190 C 
BRANCH  20  21
ATOM     21  O5*   U A  1        2.971  -3.365   0.622  0.00  0.00    -0.392 OA
ATOM     22  H5*   U A  1        3.100  -4.313   0.538  0.00  0.00    +0.210 HD
ENDBRANCH  20  21
ENDBRANCH   3  20
TORSDOF 6
