REMARK  Name = DB12548
REMARK                            x       y       z     vdW  Elec       q    Type
REMARK                         _______ _______ _______ _____ _____    ______ ____
ROOT
ATOM      1  C   LIG    1        1.821   0.154   0.448  0.00  0.00    -0.007 A 
ATOM      2  C   LIG    1        2.573  -0.512   1.417  0.00  0.00    +0.013 A 
ATOM      3  C   LIG    1        3.964  -0.615   1.299  0.00  0.00    -0.014 A 
ATOM      4  C   LIG    1        4.616  -0.040   0.191  0.00  0.00    -0.011 A 
ATOM      5  C   LIG    1        3.853   0.627  -0.774  0.00  0.00    +0.009 A 
ATOM      6  C   LIG    1        2.469   0.720  -0.652  0.00  0.00    +0.008 A 
ENDROOT
BRANCH   4   7
ATOM      7  C   LIG    1        6.093  -0.106   0.028  0.00  0.00    +0.009 A 
ATOM      8  C   LIG    1        6.724  -1.088  -0.761  0.00  0.00    +0.116 A 
ATOM      9  C   LIG    1        8.121  -1.104  -0.861  0.00  0.00    +0.029 A 
ATOM     10  C   LIG    1        8.890  -0.155  -0.189  0.00  0.00    +0.002 A 
ATOM     11  C   LIG    1        8.270   0.817   0.590  0.00  0.00    +0.001 A 
ATOM     12  C   LIG    1        6.882   0.839   0.695  0.00  0.00    +0.010 A 
BRANCH   8  13
ATOM     13  S   LIG    1        5.754  -2.340  -1.625  0.00  0.00    +0.074 S 
ATOM     14  O   LIG    1        4.923  -1.644  -2.614  0.00  0.00    -0.150 OA
ATOM     15  O   LIG    1        5.144  -3.183  -0.591  0.00  0.00    -0.150 OA
BRANCH  13  16
ATOM     16  N   LIG    1        6.886  -3.386  -2.516  0.00  0.00    -0.197 N 
ATOM     17  H   LIG    1        7.121  -4.239  -2.030  0.00  0.00    +0.175 HD
BRANCH  16  18
ATOM     18  C   LIG    1        7.462  -3.100  -3.729  0.00  0.00    +0.184 A 
ATOM     19  N   LIG    1        7.330  -1.922  -4.302  0.00  0.00    -0.061 NA
ATOM     20  O   LIG    1        8.070  -1.968  -5.478  0.00  0.00    -0.358 OA
ATOM     21  C   LIG    1        8.640  -3.192  -5.573  0.00  0.00    +0.139 A 
ATOM     22  C   LIG    1        9.517  -3.426  -6.779  0.00  0.00    +0.089 C 
ATOM     23  C   LIG    1        8.260  -3.966  -4.490  0.00  0.00    +0.034 A 
ATOM     24  C   LIG    1        8.704  -5.374  -4.153  0.00  0.00    +0.051 C 
ENDBRANCH  16  18
ENDBRANCH  13  16
ENDBRANCH   8  13
ENDBRANCH   4   7
BRANCH   1  25
ATOM     25  C   LIG    1        0.306   0.262   0.603  0.00  0.00    +0.270 C 
BRANCH  25  27
ATOM     26  C   LIG    1       -1.202   1.995  -0.521  0.00  0.00    +0.292 C 
ATOM     27  N   LIG    1       -0.264   1.605   0.386  0.00  0.00    -0.153 N 
ATOM     28  C   LIG    1        0.080   2.645   1.171  0.00  0.00    +0.356 C 
ATOM     29  O   LIG    1        0.863   2.682   2.123  0.00  0.00    -0.242 OA
ATOM     30  C   LIG    1       -0.719   3.807   0.592  0.00  0.00    +0.249 C 
ATOM     31  C   LIG    1        0.246   4.933   0.121  0.00  0.00    +0.069 C 
ATOM     32  C   LIG    1        0.292   5.962   1.251  0.00  0.00    +0.005 C 
ATOM     33  C   LIG    1       -1.135   5.960   1.787  0.00  0.00    +0.005 C 
ATOM     34  C   LIG    1       -1.583   4.495   1.697  0.00  0.00    +0.069 C 
ATOM     35  N   LIG    1       -1.483   3.234  -0.468  0.00  0.00    -0.069 NA
BRANCH  26  36
ATOM     36  C   LIG    1       -1.806   0.977  -1.498  0.00  0.00    +0.128 C 
BRANCH  36  37
ATOM     37  C   LIG    1       -3.031   1.485  -2.297  0.00  0.00    +0.012 C 
BRANCH  37  39
ATOM     38  C   LIG    1       -5.511   2.141  -2.293  0.00  0.00    +0.004 C 
ATOM     39  C   LIG    1       -4.308   1.689  -1.455  0.00  0.00    -0.003 C 
ENDBRANCH  37  39
ENDBRANCH  36  37
ENDBRANCH  26  36
ENDBRANCH  25  27
ENDBRANCH   1  25
BRANCH   3  40
ATOM     40  C   LIG    1        4.742  -1.348   2.386  0.00  0.00    +0.195 C 
BRANCH  40  41
ATOM     41  O   LIG    1        5.373  -0.390   3.224  0.00  0.00    -0.375 OA
BRANCH  41  42
ATOM     42  C   LIG    1        6.247  -0.959   4.187  0.00  0.00    +0.157 C 
ATOM     43  C   LIG    1        6.872   0.171   5.010  0.00  0.00    +0.034 C 
ENDBRANCH  41  42
ENDBRANCH  40  41
ENDBRANCH   3  40
TORSDOF 12
