REMARK  Name = DB12744
REMARK                            x       y       z     vdW  Elec       q    Type
REMARK                         _______ _______ _______ _____ _____    ______ ____
ROOT
ATOM      1  C   LIG    1        1.473   0.267   0.160  0.00  0.00    +0.044 A 
ATOM      2  C   LIG    1        2.114  -0.866  -0.379  0.00  0.00    +0.021 A 
ATOM      3  C   LIG    1        1.658  -2.031  -1.081  0.00  0.00    +0.029 A 
ATOM      4  C   LIG    1        2.768  -2.789  -1.376  0.00  0.00    +0.087 A 
ATOM      5  N   LIG    1        3.897  -2.181  -0.879  0.00  0.00    -0.342 N 
ATOM      6  C   LIG    1        3.536  -0.987  -0.271  0.00  0.00    +0.051 A 
ATOM      7  C   LIG    1        4.315  -0.009   0.360  0.00  0.00    +0.026 A 
ATOM      8  C   LIG    1        3.647   1.090   0.895  0.00  0.00    +0.004 A 
ATOM      9  C   LIG    1        2.266   1.228   0.806  0.00  0.00    +0.024 A 
ENDROOT
BRANCH   1  13
ATOM     10  N   LIG    1       -2.014   1.088   0.018  0.00  0.00    -0.266 N 
ATOM     11  H   LIG    1       -2.216   0.101   0.068  0.00  0.00    +0.156 HD
ATOM     12  C   LIG    1       -0.717   1.447   0.117  0.00  0.00    +0.308 C 
ATOM     13  N   LIG    1        0.071   0.354   0.050  0.00  0.00    -0.269 N 
ATOM     14  H   LIG    1       -0.387  -0.517  -0.172  0.00  0.00    +0.156 HD
ATOM     15  O   LIG    1       -0.314   2.605   0.243  0.00  0.00    -0.252 OA
BRANCH  10  17
ATOM     16  C   LIG    1       -4.380   1.375   0.382  0.00  0.00    +0.141 A 
ATOM     17  C   LIG    1       -3.154   1.917  -0.048  0.00  0.00    +0.078 A 
ATOM     18  C   LIG    1       -3.110   3.228  -0.554  0.00  0.00    +0.042 A 
ATOM     19  C   LIG    1       -4.267   4.001  -0.616  0.00  0.00    +0.020 A 
ATOM     20 BR   LIG    1       -4.193   5.774  -1.305  0.00  0.00    -0.050 Br
ATOM     21  C   LIG    1       -5.479   3.474  -0.180  0.00  0.00    +0.019 A 
ATOM     22  C   LIG    1       -5.537   2.173   0.312  0.00  0.00    +0.048 A 
BRANCH  16  24
ATOM     23  C   LIG    1       -5.601  -0.504   1.319  0.00  0.00    +0.277 C 
ATOM     24  O   LIG    1       -4.384   0.074   0.859  0.00  0.00    -0.493 OA
ENDBRANCH  16  24
ENDBRANCH  10  17
ENDBRANCH   1  13
BRANCH   5  25
ATOM     25  C   LIG    1        5.258  -2.686  -1.042  0.00  0.00    +0.157 C 
BRANCH  25  26
ATOM     26  C   LIG    1        6.078  -1.905  -2.061  0.00  0.00    -0.023 A 
ATOM     27  C   LIG    1        7.251  -1.246  -1.672  0.00  0.00    +0.048 A 
ATOM     28  C   LIG    1        7.973  -0.534  -2.633  0.00  0.00    +0.116 A 
ATOM     29  N   LIG    1        7.588  -0.459  -3.932  0.00  0.00    -0.241 NA
ATOM     30  C   LIG    1        6.452  -1.106  -4.298  0.00  0.00    +0.113 A 
ATOM     31  C   LIG    1        5.674  -1.836  -3.399  0.00  0.00    +0.025 A 
BRANCH  28  32
ATOM     32  N   LIG    1        9.138   0.138  -2.271  0.00  0.00    -0.343 N 
ATOM     33  H   LIG    1        9.648   0.652  -2.974  0.00  0.00    +0.144 HD
ATOM     34  H   LIG    1        9.453   0.111  -1.311  0.00  0.00    +0.144 HD
ENDBRANCH  28  32
ENDBRANCH  25  26
ENDBRANCH   5  25
TORSDOF 6
