REMARK  Name = DB12005
REMARK                            x       y       z     vdW  Elec       q    Type
REMARK                         _______ _______ _______ _____ _____    ______ ____
ROOT
ATOM      1  C   LIG    1       -0.635   1.103  -0.107  0.00  0.00    +0.235 C 
ATOM      2  N   LIG    1        0.205   0.054  -0.253  0.00  0.00    -0.268 N 
ATOM      3  H   LIG    1       -0.200  -0.870  -0.262  0.00  0.00    +0.156 HD
ATOM      4  O   LIG    1       -0.297   2.288  -0.031  0.00  0.00    -0.274 OA
ENDROOT
BRANCH   2   5
ATOM      5  C   LIG    1        1.590   0.111  -0.278  0.00  0.00    +0.143 A 
ATOM      6  N   LIG    1        2.320   1.173  -0.595  0.00  0.00    -0.221 NA
ATOM      7  C   LIG    1        3.568   0.791  -0.468  0.00  0.00    +0.202 A 
ATOM      8  N   LIG    1        3.715  -0.522  -0.073  0.00  0.00    -0.328 N 
ATOM      9  C   LIG    1        2.414  -0.960   0.035  0.00  0.00    +0.131 A 
BRANCH   8  10
ATOM     10  C   LIG    1        4.949  -1.300   0.190  0.00  0.00    +0.053 C 
ATOM     11  C   LIG    1        4.961  -2.511  -0.779  0.00  0.00    +0.035 C 
ATOM     12  C   LIG    1        4.892  -1.789   1.661  0.00  0.00    +0.035 C 
BRANCH  10  13
ATOM     13  C   LIG    1        6.209  -0.406  -0.040  0.00  0.00    +0.108 C 
BRANCH  13  14
ATOM     14  N   LIG    1        7.462  -1.104   0.232  0.00  0.00    -0.313 NA
ATOM     15  H   LIG    1        7.532  -1.921  -0.357  0.00  0.00    +0.122 HD
BRANCH  14  16
ATOM     16  C   LIG    1        8.612  -0.235   0.005  0.00  0.00    +0.087 C 
BRANCH  16  17
ATOM     17  C   LIG    1        9.968  -0.925   0.330  0.00  0.00    -0.025 C 
ATOM     18  C   LIG    1       10.182  -2.175  -0.558  0.00  0.00    +0.012 C 
ATOM     19  C   LIG    1       11.104   0.083   0.043  0.00  0.00    +0.012 C 
ATOM     20  C   LIG    1       10.034  -1.332   1.822  0.00  0.00    +0.012 C 
ENDBRANCH  16  17
ENDBRANCH  14  16
ENDBRANCH  13  14
ENDBRANCH  10  13
ENDBRANCH   8  10
ENDBRANCH   2   5
BRANCH   1  21
ATOM     21  C   LIG    1       -2.133   0.732   0.005  0.00  0.00    +0.141 C 
BRANCH  21  22
ATOM     22  N   LIG    1       -2.631   1.242   1.306  0.00  0.00    -0.303 NA
ATOM     23  H   LIG    1       -3.181   2.089   1.337  0.00  0.00    +0.123 HD
BRANCH  22  24
ATOM     24  C   LIG    1       -2.258   0.594   2.562  0.00  0.00    +0.059 C 
ATOM     25  C   LIG    1       -2.753  -0.866   2.677  0.00  0.00    +0.057 C 
ATOM     26  C   LIG    1       -2.471  -1.499   4.044  0.00  0.00    -0.007 A 
ATOM     27  C   LIG    1       -2.472  -2.895   4.187  0.00  0.00    +0.130 A 
ATOM     28  F   LIG    1       -2.678  -3.686   3.108  0.00  0.00    -0.205 F 
ATOM     29  C   LIG    1       -2.282  -3.492   5.430  0.00  0.00    +0.077 A 
ATOM     30  C   LIG    1       -2.091  -2.700   6.556  0.00  0.00    +0.126 A 
ATOM     31  F   LIG    1       -1.910  -3.274   7.767  0.00  0.00    -0.205 F 
ATOM     32  C   LIG    1       -2.075  -1.314   6.430  0.00  0.00    +0.042 A 
ATOM     33  C   LIG    1       -2.248  -0.695   5.187  0.00  0.00    -0.039 A 
ATOM     34  C   LIG    1       -2.134   0.826   5.077  0.00  0.00    +0.037 C 
ATOM     35  C   LIG    1       -2.758   1.379   3.786  0.00  0.00    +0.023 C 
ENDBRANCH  22  24
ENDBRANCH  21  22
BRANCH  21  36
ATOM     36  C   LIG    1       -2.926   1.320  -1.188  0.00  0.00    +0.028 C 
BRANCH  36  38
ATOM     37  C   LIG    1       -5.163   1.429  -2.437  0.00  0.00    +0.004 C 
ATOM     38  C   LIG    1       -4.403   0.878  -1.222  0.00  0.00    -0.001 C 
ENDBRANCH  36  38
ENDBRANCH  21  36
ENDBRANCH   1  21
TORSDOF 11
