REMARK  Name = DB12197
REMARK                            x       y       z     vdW  Elec       q    Type
REMARK                         _______ _______ _______ _____ _____    ______ ____
ROOT
ATOM      1  C   LIG    1       -0.632  -0.688   1.265  0.00  0.00    +0.032 C 
ATOM      2  C   LIG    1       -0.068   0.045   0.020  0.00  0.00    +0.069 C 
ATOM      3  C   LIG    1       -0.514   1.531   0.076  0.00  0.00    +0.032 C 
ENDROOT
BRANCH   2   4
ATOM      4  N   LIG    1       -0.608  -0.597  -1.194  0.00  0.00    -0.124 NA
ATOM      5 CL   LIG    1       -0.051   0.107  -2.750  0.00  0.00    -0.004 Cl
ATOM      6 CL   LIG    1       -2.400  -0.672  -1.302  0.00  0.00    -0.004 Cl
ENDBRANCH   2   4
BRANCH   2   7
ATOM      7  C   LIG    1        1.496   0.002   0.015  0.00  0.00    +0.222 C 
BRANCH   7   8
ATOM      8  S   LIG    1        2.285  -1.736  -0.023  0.00  0.00    +0.082 S 
ATOM      9  O   LIG    1        1.688  -2.400  -1.187  0.00  0.00    -0.147 OA
ATOM     10  O   LIG    1        1.928  -2.330   1.270  0.00  0.00    -0.147 OA
BRANCH   8  11
ATOM     11  O   LIG    1        3.715  -1.443  -0.169  0.00  0.00    -0.254 OA
ATOM     12  H   LIG    1        4.039  -1.007   0.634  0.00  0.00    +0.244 HD
ENDBRANCH   8  11
ENDBRANCH   7   8
ENDBRANCH   2   7
TORSDOF 4
