REMARK  Name = DB12978
REMARK                            x       y       z     vdW  Elec       q    Type
REMARK                         _______ _______ _______ _____ _____    ______ ____
ROOT
ATOM      1  C   LIG    1       -2.350  -0.931   0.065  0.00  0.00    +0.009 A 
ATOM      2  C   LIG    1       -2.878   0.321  -0.271  0.00  0.00    -0.025 A 
ATOM      3  C   LIG    1       -1.984   1.382  -0.443  0.00  0.00    +0.116 A 
ATOM      4  N   LIG    1       -0.640   1.247  -0.307  0.00  0.00    -0.240 NA
ATOM      5  C   LIG    1       -0.139   0.021   0.014  0.00  0.00    +0.119 A 
ATOM      6  C   LIG    1       -0.970  -1.086   0.207  0.00  0.00    +0.044 A 
ENDROOT
BRANCH   5   7
ATOM      7  N   LIG    1        1.249  -0.162   0.149  0.00  0.00    -0.325 N 
ATOM      8  H   LIG    1        1.568  -1.021   0.573  0.00  0.00    +0.148 HD
BRANCH   7   9
ATOM      9  C   LIG    1        2.189   0.958   0.102  0.00  0.00    +0.139 C 
BRANCH   9  10
ATOM     10  C   LIG    1        2.402   1.482  -1.315  0.00  0.00    -0.012 A 
ATOM     11  C   LIG    1        2.727   0.625  -2.373  0.00  0.00    +0.116 A 
ATOM     12  N   LIG    1        2.931   1.059  -3.643  0.00  0.00    -0.251 NA
ATOM     13  C   LIG    1        2.818   2.392  -3.892  0.00  0.00    +0.144 A 
ATOM     14  C   LIG    1        2.504   3.316  -2.887  0.00  0.00    +0.032 A 
ATOM     15  C   LIG    1        2.298   2.849  -1.587  0.00  0.00    +0.009 A 
BRANCH  13  16
ATOM     16  C   LIG    1        3.056   2.818  -5.340  0.00  0.00    +0.434 C 
ATOM     17  F   LIG    1        4.279   2.452  -5.726  0.00  0.00    -0.164 F 
ATOM     18  F   LIG    1        2.950   4.139  -5.499  0.00  0.00    -0.164 F 
ATOM     19  F   LIG    1        2.163   2.232  -6.137  0.00  0.00    -0.164 F 
ENDBRANCH  13  16
ENDBRANCH   9  10
ENDBRANCH   7   9
ENDBRANCH   5   7
BRANCH   2  20
ATOM     20  C   LIG    1       -4.379   0.530  -0.432  0.00  0.00    +0.074 C 
BRANCH  20  21
ATOM     21  C   LIG    1       -4.983  -0.312  -1.538  0.00  0.00    -0.016 A 
ATOM     22  C   LIG    1       -5.515  -1.646  -1.425  0.00  0.00    +0.024 A 
ATOM     23  C   LIG    1       -5.665  -2.582  -0.386  0.00  0.00    +0.033 A 
ATOM     24  C   LIG    1       -6.242  -3.817  -0.687  0.00  0.00    +0.060 A 
ATOM     25 CL   LIG    1       -6.444  -5.006   0.547  0.00  0.00    -0.082 Cl
ATOM     26  C   LIG    1       -6.652  -4.082  -1.995  0.00  0.00    +0.133 A 
ATOM     27  N   LIG    1       -6.535  -3.210  -3.032  0.00  0.00    -0.236 NA
ATOM     28  C   LIG    1       -5.979  -2.036  -2.716  0.00  0.00    +0.138 A 
ATOM     29  N   LIG    1       -5.753  -0.981  -3.567  0.00  0.00    -0.346 N 
ATOM     30  H   LIG    1       -5.966  -0.921  -4.553  0.00  0.00    +0.167 HD
ATOM     31  C   LIG    1       -5.173   0.045  -2.865  0.00  0.00    +0.089 A 
ENDBRANCH  20  21
ENDBRANCH   2  20
TORSDOF 6
