REMARK  Name = DB12313
REMARK                            x       y       z     vdW  Elec       q    Type
REMARK                         _______ _______ _______ _____ _____    ______ ____
ROOT
ATOM      1  C   LIG    1        1.503  -0.074  -0.120  0.00  0.00    +0.015 C 
ENDROOT
BRANCH   1   2
ATOM      2  C   LIG    1       -0.033  -0.009  -0.079  0.00  0.00    +0.001 C 
BRANCH   2   3
ATOM      3  C   LIG    1       -0.572   1.431  -0.150  0.00  0.00    +0.001 C 
BRANCH   3   4
ATOM      4  C   LIG    1       -2.108   1.505  -0.089  0.00  0.00    +0.015 C 
BRANCH   4   5
ATOM      5  C   LIG    1       -2.627   2.952  -0.137  0.00  0.00    +0.081 C 
BRANCH   5   6
ATOM      6  N   LIG    1       -4.080   2.966  -0.054  0.00  0.00    -0.316 NA
ATOM      7  H   LIG    1       -4.469   2.445  -0.827  0.00  0.00    +0.122 HD
BRANCH   6   8
ATOM      8  C   LIG    1       -4.581   4.333  -0.080  0.00  0.00    +0.085 C 
BRANCH   8   9
ATOM      9  C   LIG    1       -6.116   4.345   0.012  0.00  0.00    +0.050 C 
BRANCH   9  10
ATOM     10  C   LIG    1       -6.687   5.755   0.015  0.00  0.00    -0.046 A 
ATOM     11  C   LIG    1       -6.962   6.399  -1.195  0.00  0.00    +0.003 A 
ATOM     12  C   LIG    1       -7.480   7.691  -1.193  0.00  0.00    +0.000 A 
ATOM     13  C   LIG    1       -7.721   8.336   0.019  0.00  0.00    +0.000 A 
ATOM     14  C   LIG    1       -7.447   7.701   1.228  0.00  0.00    +0.000 A 
ATOM     15  C   LIG    1       -6.928   6.408   1.227  0.00  0.00    +0.003 A 
ENDBRANCH   9  10
ENDBRANCH   8   9
ENDBRANCH   6   8
ENDBRANCH   5   6
ENDBRANCH   4   5
ENDBRANCH   3   4
ENDBRANCH   2   3
ENDBRANCH   1   2
BRANCH   1  16
ATOM     16  C   LIG    1        2.038  -1.512  -0.027  0.00  0.00    +0.081 C 
BRANCH  16  17
ATOM     17  N   LIG    1        3.494  -1.496  -0.051  0.00  0.00    -0.316 NA
ATOM     18  H   LIG    1        3.839  -0.920   0.703  0.00  0.00    +0.122 HD
BRANCH  17  19
ATOM     19  C   LIG    1        4.035  -2.843   0.077  0.00  0.00    +0.085 C 
BRANCH  19  20
ATOM     20  C   LIG    1        5.575  -2.810   0.088  0.00  0.00    +0.050 C 
BRANCH  20  21
ATOM     21  C   LIG    1        6.167  -2.157   1.332  0.00  0.00    -0.042 A 
ATOM     22  C   LIG    1        6.581  -0.821   1.300  0.00  0.00    +0.052 A 
ATOM     23  C   LIG    1        7.117  -0.219   2.440  0.00  0.00    +0.158 A 
ATOM     24  C   LIG    1        7.243  -0.959   3.624  0.00  0.00    +0.158 A 
ATOM     25  C   LIG    1        6.830  -2.292   3.657  0.00  0.00    +0.049 A 
ATOM     26  C   LIG    1        6.294  -2.889   2.516  0.00  0.00    +0.007 A 
BRANCH  23  27
ATOM     27  O   LIG    1        7.512   1.094   2.382  0.00  0.00    -0.503 OA
ATOM     28  H   LIG    1        7.370   1.490   1.519  0.00  0.00    +0.292 HD
ENDBRANCH  23  27
BRANCH  24  29
ATOM     29  O   LIG    1        7.767  -0.391   4.758  0.00  0.00    -0.503 OA
ATOM     30  H   LIG    1        8.034   0.521   4.622  0.00  0.00    +0.292 HD
ENDBRANCH  24  29
ENDBRANCH  20  21
ENDBRANCH  19  20
ENDBRANCH  17  19
ENDBRANCH  16  17
ENDBRANCH   1  16
TORSDOF 15
