REMARK  Name = DB12680
REMARK                            x       y       z     vdW  Elec       q    Type
REMARK                         _______ _______ _______ _____ _____    ______ ____
ROOT
ATOM      1  C   LIG    1        1.917  -0.034  -0.254  0.00  0.00    +0.112 A 
ATOM      2  C   LIG    1        2.622   0.091   0.939  0.00  0.00    +0.138 A 
ATOM      3  N   LIG    1        3.973   0.148   1.002  0.00  0.00    -0.251 NA
ATOM      4  C   LIG    1        4.705   0.074  -0.153  0.00  0.00    +0.092 A 
ATOM      5  C   LIG    1        6.143   0.142  -0.105  0.00  0.00    +0.056 A 
ATOM      6  C   LIG    1        6.845   0.101  -1.320  0.00  0.00    +0.025 A 
ATOM      7  C   LIG    1        6.196  -0.007  -2.543  0.00  0.00    +0.003 A 
ATOM      8  C   LIG    1        4.812  -0.081  -2.606  0.00  0.00    +0.010 A 
ATOM      9  C   LIG    1        4.046  -0.038  -1.421  0.00  0.00    +0.004 A 
ATOM     10  C   LIG    1        2.630  -0.097  -1.449  0.00  0.00    +0.039 A 
ENDROOT
BRANCH   5  11
ATOM     11  N   LIG    1        6.845   0.206   1.101  0.00  0.00    -0.332 N 
ATOM     12  C   LIG    1        8.188   0.812   1.191  0.00  0.00    +0.086 C 
ATOM     13  C   LIG    1        8.602   1.237   2.618  0.00  0.00    -0.063 C 
ATOM     14  N   LIG    1        8.511   0.033   3.564  0.00  0.00    +0.381 N 
ATOM     15  H   LIG    1        9.172  -0.676   3.280  0.00  0.00    -0.086 HD
ATOM     16  H   LIG    1        8.742   0.312   4.507  0.00  0.00    -0.086 HD
ATOM     17  C   LIG    1        7.086  -0.534   3.514  0.00  0.00    -0.063 C 
ATOM     18  C   LIG    1        6.734  -0.911   2.059  0.00  0.00    +0.086 C 
ENDBRANCH   5  11
BRANCH   1  19
ATOM     19  S   LIG    1        0.130  -0.091  -0.237  0.00  0.00    +0.027 S 
ATOM     20  O   LIG    1       -0.323  -0.427  -1.593  0.00  0.00    -0.164 OA
ATOM     21  O   LIG    1       -0.267  -0.914   0.911  0.00  0.00    -0.164 OA
BRANCH  19  25
ATOM     22  C   LIG    1       -1.128   4.219   0.605  0.00  0.00    +0.000 A 
ATOM     23  C   LIG    1       -1.015   3.317   1.661  0.00  0.00    +0.002 A 
ATOM     24  C   LIG    1       -0.634   2.002   1.407  0.00  0.00    +0.027 A 
ATOM     25  C   LIG    1       -0.369   1.597   0.096  0.00  0.00    +0.094 A 
ATOM     26  C   LIG    1       -0.481   2.505  -0.960  0.00  0.00    +0.027 A 
ATOM     27  C   LIG    1       -0.862   3.819  -0.704  0.00  0.00    +0.002 A 
ENDBRANCH  19  25
ENDBRANCH   1  19
TORSDOF 3
