REMARK  Name = DB12717
REMARK                            x       y       z     vdW  Elec       q    Type
REMARK                         _______ _______ _______ _____ _____    ______ ____
ROOT
ATOM      1  C   LIG    1        1.162   0.137   0.174  0.00  0.00    -0.043 A 
ATOM      2  C   LIG    1        1.948   0.796   1.123  0.00  0.00    +0.004 A 
ATOM      3  C   LIG    1        3.335   0.783   1.013  0.00  0.00    +0.009 A 
ATOM      4  C   LIG    1        3.967   0.113  -0.044  0.00  0.00    -0.018 A 
ATOM      5  C   LIG    1        3.167  -0.548  -0.987  0.00  0.00    +0.009 A 
ATOM      6  C   LIG    1        1.780  -0.538  -0.879  0.00  0.00    +0.004 A 
ENDROOT
BRANCH   4   7
ATOM      7  C   LIG    1        5.458   0.103  -0.165  0.00  0.00    -0.018 A 
ATOM      8  C   LIG    1        6.076   0.097  -1.423  0.00  0.00    +0.009 A 
ATOM      9  C   LIG    1        7.463   0.079  -1.538  0.00  0.00    +0.004 A 
ATOM     10  C   LIG    1        8.258   0.068  -0.392  0.00  0.00    -0.046 A 
ATOM     11  C   LIG    1        7.658   0.080   0.868  0.00  0.00    +0.004 A 
ATOM     12  C   LIG    1        6.271   0.098   0.978  0.00  0.00    +0.009 A 
BRANCH  10  13
ATOM     13  C   LIG    1        9.777   0.044  -0.510  0.00  0.00    +0.052 C 
BRANCH  13  14
ATOM     14  C   LIG    1       10.429   1.428  -0.345  0.00  0.00    +0.110 C 
BRANCH  14  15
ATOM     15  N   LIG    1       10.054   2.356  -1.431  0.00  0.00    -0.194 NA
ATOM     16  H   LIG    1       10.371   1.982  -2.329  0.00  0.00    +0.148 HD
BRANCH  15  17
ATOM     17  S   LIG    1       10.558   4.029  -1.230  0.00  0.00    +0.027 S 
ATOM     18  C   LIG    1        9.499   4.949  -2.488  0.00  0.00    +0.214 C 
ATOM     19  O   LIG    1       11.959   4.115  -1.652  0.00  0.00    -0.158 OA
ATOM     20  O   LIG    1       10.162   4.461   0.115  0.00  0.00    -0.158 OA
ENDBRANCH  15  17
ENDBRANCH  14  15
ENDBRANCH  13  14
ENDBRANCH  10  13
ENDBRANCH   4   7
BRANCH   1  22
ATOM     21  C   LIG    1       -0.874  -0.618   1.491  0.00  0.00    +0.014 C 
ATOM     22  C   LIG    1       -0.367   0.170   0.269  0.00  0.00    +0.031 C 
BRANCH  22  23
ATOM     23  C   LIG    1       -0.956   1.605   0.244  0.00  0.00    +0.113 C 
BRANCH  23  24
ATOM     24  N   LIG    1       -0.359   2.488  -0.786  0.00  0.00    -0.194 NA
ATOM     25  H   LIG    1       -0.534   3.462  -0.522  0.00  0.00    +0.148 HD
BRANCH  24  26
ATOM     26  S   LIG    1       -0.833   2.252  -2.471  0.00  0.00    +0.032 S 
ATOM     27  O   LIG    1       -2.066   3.017  -2.682  0.00  0.00    -0.158 OA
ATOM     28  O   LIG    1       -0.805   0.818  -2.773  0.00  0.00    -0.158 OA
BRANCH  26  29
ATOM     29  C   LIG    1        0.569   3.089  -3.446  0.00  0.00    +0.142 C 
ATOM     30  C   LIG    1        0.618   4.589  -3.111  0.00  0.00    +0.033 C 
ATOM     31  C   LIG    1        1.899   2.369  -3.163  0.00  0.00    +0.033 C 
ENDBRANCH  26  29
ENDBRANCH  24  26
ENDBRANCH  23  24
ENDBRANCH  22  23
ENDBRANCH   1  22
TORSDOF 10
