REMARK  Name = DB12923
REMARK                            x       y       z     vdW  Elec       q    Type
REMARK                         _______ _______ _______ _____ _____    ______ ____
ROOT
ATOM      1  C   LIG    1        1.717  -0.118   0.060  0.00  0.00    +0.085 C 
ENDROOT
BRANCH   1   2
ATOM      2  C   LIG    1        2.152   0.665  -1.208  0.00  0.00    -0.020 A 
ATOM      3  C   LIG    1        3.109   1.689  -1.164  0.00  0.00    +0.054 A 
ATOM      4  C   LIG    1        3.493   2.384  -2.322  0.00  0.00    +0.165 A 
ATOM      5  C   LIG    1        2.899   2.043  -3.543  0.00  0.00    +0.204 A 
ATOM      6  C   LIG    1        1.948   1.019  -3.622  0.00  0.00    +0.165 A 
ATOM      7  C   LIG    1        1.585   0.342  -2.447  0.00  0.00    +0.054 A 
BRANCH   4   8
ATOM      8  O   LIG    1        4.433   3.398  -2.338  0.00  0.00    -0.491 OA
ATOM      9  C   LIG    1        5.071   3.784  -1.126  0.00  0.00    +0.277 C 
ENDBRANCH   4   8
BRANCH   5  10
ATOM     10  O   LIG    1        3.278   2.704  -4.688  0.00  0.00    -0.488 OA
ATOM     11  C   LIG    1        2.502   3.859  -4.975  0.00  0.00    +0.277 C 
ENDBRANCH   5  10
BRANCH   6  12
ATOM     12  O   LIG    1        1.421   0.739  -4.869  0.00  0.00    -0.491 OA
ATOM     13  C   LIG    1        0.448  -0.292  -5.003  0.00  0.00    +0.277 C 
ENDBRANCH   6  12
ENDBRANCH   1   2
BRANCH   1  15
ATOM     14  C   LIG    1        1.698  -2.515   1.120  0.00  0.00    +0.009 C 
ATOM     15  C   LIG    1        2.120  -1.633  -0.078  0.00  0.00    +0.007 C 
ATOM     16  C   LIG    1        3.631  -1.836  -0.346  0.00  0.00    +0.009 C 
ENDBRANCH   1  15
BRANCH   1  17
ATOM     17  C   LIG    1        2.369   0.427   1.275  0.00  0.00    +0.074 C 
ATOM     18  N   LIG    1        2.875   0.851   2.226  0.00  0.00    -0.196 NA
ENDBRANCH   1  17
BRANCH   1  19
ATOM     19  C   LIG    1        0.176   0.038   0.271  0.00  0.00    +0.025 C 
BRANCH  19  20
ATOM     20  C   LIG    1       -0.343   1.492   0.337  0.00  0.00    -0.017 C 
BRANCH  20  21
ATOM     21  C   LIG    1       -1.853   1.554   0.634  0.00  0.00    -0.079 C 
BRANCH  21  22
ATOM     22  N   LIG    1       -2.417   2.989   0.483  0.00  0.00    +0.378 N 
ATOM     23  H   LIG    1       -2.157   3.307  -0.441  0.00  0.00    -0.082 HD
ATOM     24  C   LIG    1       -1.812   3.978   1.505  0.00  0.00    -0.096 C 
BRANCH  22  25
ATOM     25  C   LIG    1       -3.966   2.965   0.525  0.00  0.00    -0.075 C 
BRANCH  25  26
ATOM     26  C   LIG    1       -4.579   4.314   0.095  0.00  0.00    +0.017 C 
BRANCH  26  27
ATOM     27  C   LIG    1       -6.091   4.226  -0.046  0.00  0.00    -0.045 A 
ATOM     28  C   LIG    1       -6.910   4.348   1.079  0.00  0.00    +0.053 A 
ATOM     29  C   LIG    1       -8.309   4.258   0.968  0.00  0.00    +0.162 A 
ATOM     30  C   LIG    1       -8.887   4.045  -0.293  0.00  0.00    +0.161 A 
ATOM     31  C   LIG    1       -8.056   3.925  -1.420  0.00  0.00    +0.049 A 
ATOM     32  C   LIG    1       -6.672   4.015  -1.296  0.00  0.00    +0.007 A 
BRANCH  29  33
ATOM     33  O   LIG    1       -9.171   4.366   2.046  0.00  0.00    -0.491 OA
ATOM     34  C   LIG    1       -8.641   4.567   3.351  0.00  0.00    +0.277 C 
ENDBRANCH  29  33
BRANCH  30  35
ATOM     35  O   LIG    1      -10.268   3.963  -0.346  0.00  0.00    -0.491 OA
ATOM     36  C   LIG    1      -10.910   3.741  -1.598  0.00  0.00    +0.277 C 
ENDBRANCH  30  35
ENDBRANCH  26  27
ENDBRANCH  25  26
ENDBRANCH  22  25
ENDBRANCH  21  22
ENDBRANCH  20  21
ENDBRANCH  19  20
ENDBRANCH   1  19
TORSDOF 15
