REMARK  Name = DB12395
REMARK                            x       y       z     vdW  Elec       q    Type
REMARK                         _______ _______ _______ _____ _____    ______ ____
ROOT
ATOM      1  C   LIG    1       -0.562   1.337  -0.125  0.00  0.00    +0.230 C 
ENDROOT
BRANCH   1   9
ATOM      2  O   LIG    1       -2.575   0.182  -0.868  0.00  0.00    -0.376 OA
ATOM      3  C   LIG    1       -3.969  -0.089  -0.761  0.00  0.00    +0.141 C 
ATOM      4  C   LIG    1       -4.274  -0.842   0.548  0.00  0.00    -0.054 C 
ATOM      5  N   LIG    1       -3.712  -0.043   1.736  0.00  0.00    +0.382 N 
ATOM      6  H   LIG    1       -4.254   0.803   1.843  0.00  0.00    -0.086 HD
ATOM      7  H   LIG    1       -3.820  -0.574   2.589  0.00  0.00    -0.086 HD
ATOM      8  C   LIG    1       -2.234   0.340   1.544  0.00  0.00    -0.046 C 
ATOM      9  C   LIG    1       -2.048   1.020   0.164  0.00  0.00    +0.146 C 
ENDBRANCH   1   9
BRANCH   1  10
ATOM     10  C   LIG    1       -0.373   2.042  -1.474  0.00  0.00    -0.005 A 
ATOM     11  C   LIG    1       -0.406   3.439  -1.529  0.00  0.00    +0.007 A 
ATOM     12  C   LIG    1       -0.231   4.094  -2.745  0.00  0.00    +0.000 A 
ATOM     13  C   LIG    1       -0.023   3.352  -3.905  0.00  0.00    +0.000 A 
ATOM     14  C   LIG    1        0.012   1.960  -3.861  0.00  0.00    +0.000 A 
ATOM     15  C   LIG    1       -0.163   1.305  -2.645  0.00  0.00    +0.007 A 
ENDBRANCH   1  10
BRANCH   1  16
ATOM     16  O   LIG    1        0.178   0.111  -0.057  0.00  0.00    -0.478 OA
BRANCH  16  17
ATOM     17  C   LIG    1        1.562   0.102   0.020  0.00  0.00    +0.163 A 
ATOM     18  C   LIG    1        2.353   1.263   0.074  0.00  0.00    +0.049 A 
ATOM     19  C   LIG    1        3.740   1.173   0.148  0.00  0.00    +0.004 A 
ATOM     20  C   LIG    1        4.356  -0.074   0.170  0.00  0.00    +0.004 A 
ATOM     21  C   LIG    1        3.585  -1.232   0.121  0.00  0.00    +0.049 A 
ATOM     22  C   LIG    1        2.183  -1.157   0.047  0.00  0.00    +0.162 A 
BRANCH  22  23
ATOM     23  O   LIG    1        1.355  -2.265  -0.003  0.00  0.00    -0.489 OA
BRANCH  23  24
ATOM     24  C   LIG    1        1.923  -3.571   0.013  0.00  0.00    +0.226 C 
ATOM     25  C   LIG    1        0.789  -4.598  -0.064  0.00  0.00    +0.048 C 
ENDBRANCH  23  24
ENDBRANCH  22  23
ENDBRANCH  16  17
ENDBRANCH   1  16
TORSDOF 6
