REMARK  Name = DB12321
REMARK                            x       y       z     vdW  Elec       q    Type
REMARK                         _______ _______ _______ _____ _____    ______ ____
ROOT
ATOM      1  C   LIG    1        4.664   1.508   0.839  0.00  0.00    +0.110 C 
ATOM      2  C   LIG    1        4.636   2.768  -0.066  0.00  0.00    +0.037 C 
ATOM      3  C   LIG    1        4.496   3.893   0.985  0.00  0.00    +0.123 C 
ATOM      4  O   LIG    1        3.688   3.227   1.944  0.00  0.00    -0.372 OA
ATOM      5  C   LIG    1        5.757   4.116   1.836  0.00  0.00    +0.034 C 
ATOM      6  C   LIG    1        5.773   2.876   2.726  0.00  0.00    +0.035 C 
ATOM      7  C   LIG    1        4.524   2.119   2.250  0.00  0.00    +0.131 C 
ENDROOT
BRANCH   1  10
ATOM      8  C   LIG    1        1.853  -0.700   0.403  0.00  0.00    +0.163 A 
ATOM      9  N   LIG    1        2.377   0.377   0.974  0.00  0.00    -0.208 NA
ATOM     10  C   LIG    1        3.614   0.444   0.534  0.00  0.00    +0.202 A 
ATOM     11  O   LIG    1        3.943  -0.532  -0.346  0.00  0.00    -0.447 OA
ATOM     12  C   LIG    1        2.811  -1.264  -0.440  0.00  0.00    +0.230 A 
BRANCH   8  15
ATOM     13  N   LIG    1        0.222  -2.372   0.135  0.00  0.00    -0.310 N 
ATOM     14  H   LIG    1        0.979  -2.918  -0.249  0.00  0.00    +0.149 HD
ATOM     15  C   LIG    1        0.484  -1.125   0.572  0.00  0.00    +0.266 C 
ATOM     16  O   LIG    1       -0.360  -0.387   1.084  0.00  0.00    -0.268 OA
BRANCH  13  17
ATOM     17  C   LIG    1       -1.088  -3.019   0.187  0.00  0.00    +0.104 C 
BRANCH  17  18
ATOM     18  C   LIG    1       -2.055  -2.543  -0.914  0.00  0.00    +0.019 C 
BRANCH  18  19
ATOM     19  C   LIG    1       -3.410  -3.278  -0.880  0.00  0.00    +0.001 C 
BRANCH  19  21
ATOM     20  C   LIG    1       -4.023  -3.030  -3.380  0.00  0.00    +0.004 C 
ATOM     21  C   LIG    1       -4.430  -2.775  -1.920  0.00  0.00    -0.003 C 
ENDBRANCH  19  21
ENDBRANCH  18  19
ENDBRANCH  17  18
ENDBRANCH  13  17
ENDBRANCH   8  15
ENDBRANCH   1  10
BRANCH   2  22
ATOM     22  C   LIG    1        3.543   2.801  -1.171  0.00  0.00    +0.042 C 
BRANCH  22  23
ATOM     23  C   LIG    1        3.595   4.048  -2.057  0.00  0.00    -0.044 A 
ATOM     24  C   LIG    1        2.624   5.073  -1.992  0.00  0.00    -0.044 A 
ATOM     25  C   LIG    1        2.759   6.183  -2.841  0.00  0.00    +0.004 A 
ATOM     26  C   LIG    1        3.826   6.280  -3.733  0.00  0.00    +0.000 A 
ATOM     27  C   LIG    1        4.775   5.266  -3.795  0.00  0.00    +0.000 A 
ATOM     28  C   LIG    1        4.657   4.156  -2.963  0.00  0.00    +0.004 A 
BRANCH  24  29
ATOM     29  C   LIG    1        1.435   4.967  -1.022  0.00  0.00    +0.046 C 
BRANCH  29  30
ATOM     30  C   LIG    1        0.491   6.200  -0.921  0.00  0.00    +0.125 C 
BRANCH  30  31
ATOM     31  C   LIG    1       -0.636   6.084   0.134  0.00  0.00    +0.305 C 
ATOM     32  O   LIG    1       -1.329   7.111   0.311  0.00  0.00    -0.251 OA
BRANCH  31  33
ATOM     33  O   LIG    1       -0.819   5.004   0.744  0.00  0.00    -0.481 OA
ATOM     34  H   LIG    1       -0.266   4.268   0.569  0.00  0.00    +0.295 HD
ENDBRANCH  31  33
ENDBRANCH  30  31
ENDBRANCH  29  30
ENDBRANCH  24  29
ENDBRANCH  22  23
ENDBRANCH   2  22
TORSDOF 12
