REMARK  Name = DB12216
REMARK                            x       y       z     vdW  Elec       q    Type
REMARK                         _______ _______ _______ _____ _____    ______ ____
ROOT
ATOM      1  C   LIG    1        1.945  -1.260   0.077  0.00  0.00    +0.141 A 
ATOM      2  C   LIG    1        2.228  -1.887  -1.152  0.00  0.00    +0.063 A 
ATOM      3  C   LIG    1        2.075  -1.572  -2.541  0.00  0.00    +0.053 A 
ATOM      4  C   LIG    1        2.572  -2.662  -3.238  0.00  0.00    +0.196 A 
ATOM      5  O   LIG    1        3.030  -3.636  -2.402  0.00  0.00    -0.463 OA
ATOM      6  C   LIG    1        2.826  -3.170  -1.135  0.00  0.00    +0.142 A 
ATOM      7  C   LIG    1        3.157  -3.846   0.046  0.00  0.00    +0.094 A 
ATOM      8  C   LIG    1        2.877  -3.191   1.245  0.00  0.00    +0.146 A 
ATOM      9  O   LIG    1        3.213  -3.862   2.417  0.00  0.00    -0.422 OA
ATOM     10  C   LIG    1        2.987  -3.317   3.678  0.00  0.00    +0.337 A 
ATOM     11  O   LIG    1        3.326  -4.006   4.637  0.00  0.00    -0.245 OA
ATOM     12  C   LIG    1        2.370  -1.983   3.722  0.00  0.00    +0.093 A 
ATOM     13  C   LIG    1        2.044  -1.333   2.590  0.00  0.00    +0.022 A 
ATOM     14  C   LIG    1        2.285  -1.918   1.267  0.00  0.00    +0.060 A 
ENDROOT
BRANCH   1  16
ATOM     15  C   LIG    1       -0.015   0.006  -0.213  0.00  0.00    +0.277 C 
ATOM     16  O   LIG    1        1.379  -0.007   0.065  0.00  0.00    -0.494 OA
ENDBRANCH   1  16
TORSDOF 1
