REMARK  Name = DB12133
REMARK                            x       y       z     vdW  Elec       q    Type
REMARK                         _______ _______ _______ _____ _____    ______ ____
ROOT
ATOM      1  C   LIG    1       -1.004   1.153   0.583  0.00  0.00    -0.018 A 
ATOM      2  C   LIG    1       -0.234  -0.033   0.530  0.00  0.00    -0.018 A 
ATOM      3  C   LIG    1       -0.893  -1.270   0.632  0.00  0.00    +0.008 A 
ATOM      4  C   LIG    1       -2.276  -1.341   0.774  0.00  0.00    +0.001 A 
ATOM      5  C   LIG    1       -3.030  -0.174   0.812  0.00  0.00    +0.001 A 
ATOM      6  C   LIG    1       -2.398   1.062   0.714  0.00  0.00    +0.008 A 
ENDROOT
BRANCH   1   8
ATOM      7  C   LIG    1       -0.909   3.559  -0.159  0.00  0.00    +0.004 C 
ATOM      8  C   LIG    1       -0.387   2.495   0.480  0.00  0.00    +0.007 C 
BRANCH   7   9
ATOM      9  C   LIG    1       -0.241   4.921  -0.240  0.00  0.00    +0.137 C 
BRANCH   9  10
ATOM     10  O   LIG    1       -1.204   5.891   0.113  0.00  0.00    -0.388 OA
ATOM     11  H   LIG    1       -1.815   5.996  -0.620  0.00  0.00    +0.210 HD
ENDBRANCH   9  10
BRANCH   9  12
ATOM     12  C   LIG    1        0.327   5.249  -1.637  0.00  0.00    +0.035 C 
BRANCH  12  13
ATOM     13  C   LIG    1        1.492   4.328  -2.054  0.00  0.00    +0.003 C 
BRANCH  13  14
ATOM     14  C   LIG    1        2.084   4.677  -3.431  0.00  0.00    -0.000 C 
BRANCH  14  16
ATOM     15  C   LIG    1        3.791   4.029  -5.235  0.00  0.00    +0.004 C 
ATOM     16  C   LIG    1        3.194   3.702  -3.860  0.00  0.00    -0.003 C 
ENDBRANCH  14  16
ENDBRANCH  13  14
ENDBRANCH  12  13
ENDBRANCH   9  12
ENDBRANCH   7   9
ENDBRANCH   1   8
BRANCH   2  17
ATOM     17  C   LIG    1        1.240   0.005   0.328  0.00  0.00    +0.007 C 
ATOM     18  C   LIG    1        2.041  -1.015  -0.037  0.00  0.00    +0.007 C 
BRANCH  18  19
ATOM     19  C   LIG    1        3.545  -0.892  -0.235  0.00  0.00    +0.166 C 
BRANCH  19  20
ATOM     20  O   LIG    1        4.170  -1.819   0.633  0.00  0.00    -0.385 OA
ATOM     21  H   LIG    1        3.910  -1.615   1.534  0.00  0.00    +0.210 HD
ENDBRANCH  19  20
BRANCH  19  22
ATOM     22  C   LIG    1        4.025  -1.105  -1.697  0.00  0.00    +0.147 C 
BRANCH  22  23
ATOM     23  O   LIG    1        3.696  -2.403  -2.167  0.00  0.00    -0.389 OA
ATOM     24  H   LIG    1        4.022  -2.491  -3.065  0.00  0.00    +0.210 HD
ENDBRANCH  22  23
BRANCH  22  25
ATOM     25  C   LIG    1        3.455  -0.047  -2.676  0.00  0.00    +0.035 C 
BRANCH  25  26
ATOM     26  C   LIG    1        4.036  -0.089  -4.106  0.00  0.00    +0.014 C 
BRANCH  26  27
ATOM     27  C   LIG    1        5.528   0.333  -4.186  0.00  0.00    +0.120 C 
BRANCH  27  28
ATOM     28  C   LIG    1        6.055   0.587  -5.619  0.00  0.00    +0.305 C 
ATOM     29  O   LIG    1        7.109   1.256  -5.710  0.00  0.00    -0.251 OA
BRANCH  28  30
ATOM     30  O   LIG    1        5.444   0.106  -6.602  0.00  0.00    -0.481 OA
ATOM     31  H   LIG    1        4.658  -0.387  -6.469  0.00  0.00    +0.295 HD
ENDBRANCH  28  30
ENDBRANCH  27  28
ENDBRANCH  26  27
ENDBRANCH  25  26
ENDBRANCH  22  25
ENDBRANCH  19  22
ENDBRANCH  18  19
ENDBRANCH   2  17
TORSDOF 17
