REMARK  Name = DB12758
REMARK                            x       y       z     vdW  Elec       q    Type
REMARK                         _______ _______ _______ _____ _____    ______ ____
ROOT
ATOM      1  C   LIG    1        4.157  -0.087   0.060  0.00  0.00    +0.062 A 
ATOM      2  S   LIG    1        5.083   1.019  -0.899  0.00  0.00    -0.084 S 
ATOM      3  C   LIG    1        6.596   0.337  -0.365  0.00  0.00    -0.005 A 
ATOM      4  C   LIG    1        6.338  -0.710   0.524  0.00  0.00    +0.013 A 
ATOM      5  C   LIG    1        4.982  -0.948   0.762  0.00  0.00    +0.025 A 
ENDROOT
BRANCH   1   7
ATOM      6  C   LIG    1        1.486   0.017   0.067  0.00  0.00    -0.072 C 
ATOM      7  C   LIG    1        2.707  -0.030   0.056  0.00  0.00    -0.057 C 
BRANCH   6   9
ATOM      8  C   LIG    1       -0.603  -0.796   1.216  0.00  0.00    +0.045 C 
ATOM      9  C   LIG    1        0.008   0.079   0.099  0.00  0.00    +0.178 C 
BRANCH   9  10
ATOM     10  N   LIG    1       -0.498   1.469   0.073  0.00  0.00    -0.153 N 
ATOM     11  C   LIG    1       -0.446   2.389   1.083  0.00  0.00    +0.324 C 
ATOM     12  N   LIG    1       -0.863   3.634   0.813  0.00  0.00    -0.312 N 
ATOM     13  H   LIG    1       -0.840   4.343   1.530  0.00  0.00    +0.147 HD
ATOM     14  H   LIG    1       -1.189   3.869  -0.113  0.00  0.00    +0.147 HD
ATOM     15  O   LIG    1       -0.040   2.116   2.212  0.00  0.00    -0.251 OA
BRANCH  10  16
ATOM     16  O   LIG    1       -0.825   1.939  -1.217  0.00  0.00    -0.290 OA
ATOM     17  H   LIG    1       -1.670   1.519  -1.394  0.00  0.00    +0.242 HD
ENDBRANCH  10  16
ENDBRANCH   9  10
ENDBRANCH   6   9
ENDBRANCH   1   7
BRANCH   3  18
ATOM     18  C   LIG    1        7.912   0.898  -0.875  0.00  0.00    +0.077 C 
BRANCH  18  19
ATOM     19  C   LIG    1        9.146   0.238  -0.272  0.00  0.00    -0.042 A 
ATOM     20  C   LIG    1        9.703   0.746   0.905  0.00  0.00    +0.007 A 
ATOM     21  C   LIG    1       10.828   0.139   1.459  0.00  0.00    +0.038 A 
ATOM     22  C   LIG    1       11.391  -0.973   0.836  0.00  0.00    +0.123 A 
ATOM     23  F   LIG    1       12.483  -1.561   1.374  0.00  0.00    -0.205 F 
ATOM     24  C   LIG    1       10.839  -1.483  -0.338  0.00  0.00    +0.038 A 
ATOM     25  C   LIG    1        9.715  -0.877  -0.893  0.00  0.00    +0.007 A 
ENDBRANCH  18  19
ENDBRANCH   3  18
TORSDOF 6
