REMARK  Name = DB12020
REMARK                            x       y       z     vdW  Elec       q    Type
REMARK                         _______ _______ _______ _____ _____    ______ ____
ROOT
ATOM      1  C   LIG    1        1.354   0.311   0.867  0.00  0.00    +0.261 C 
ATOM      2  N   LIG    1        2.082   1.128   0.067  0.00  0.00    -0.221 N 
ATOM      3  H   LIG    1        1.719   1.682  -0.695  0.00  0.00    +0.174 HD
ATOM      4  O   LIG    1        1.834  -0.342   1.799  0.00  0.00    -0.269 OA
ENDROOT
BRANCH   2   5
ATOM      5  N   LIG    1        3.450   1.316   0.298  0.00  0.00    -0.155 N 
ATOM      6  C   LIG    1        4.390   0.590  -0.362  0.00  0.00    +0.243 C 
ATOM      7  O   LIG    1        4.217  -0.403  -1.071  0.00  0.00    -0.273 OA
ATOM      8  C   LIG    1        5.756   1.144   0.033  0.00  0.00    +0.097 C 
ATOM      9  C   LIG    1        6.674   1.607  -1.163  0.00  0.00    +0.027 C 
ATOM     10  C   LIG    1        7.984   2.151  -0.477  0.00  0.00    +0.001 C 
ATOM     11  C   LIG    1        8.588   3.525  -0.746  0.00  0.00    +0.009 C 
ATOM     12  C   LIG    1        7.666   3.330   0.454  0.00  0.00    +0.001 C 
ATOM     13  C   LIG    1        6.124   3.651   0.449  0.00  0.00    +0.027 C 
ATOM     14  C   LIG    1        5.683   3.831  -1.014  0.00  0.00    -0.026 C 
ATOM     15  C   LIG    1        5.961   2.797  -1.830  0.00  0.00    -0.026 C 
ATOM     16  C   LIG    1        5.436   2.330   0.968  0.00  0.00    +0.097 C 
ATOM     17  C   LIG    1        3.911   2.362   1.032  0.00  0.00    +0.243 C 
ATOM     18  O   LIG    1        3.258   3.148   1.721  0.00  0.00    -0.273 OA
ENDBRANCH   2   5
BRANCH   1  20
ATOM     19  C   LIG    1       -0.824  -0.955   0.897  0.00  0.00    +0.013 A 
ATOM     20  C   LIG    1       -0.115   0.196   0.528  0.00  0.00    +0.038 A 
ATOM     21  C   LIG    1       -0.793   1.223  -0.146  0.00  0.00    +0.013 A 
ATOM     22  C   LIG    1       -2.146   1.097  -0.447  0.00  0.00    +0.013 A 
ATOM     23  C   LIG    1       -2.847  -0.055  -0.080  0.00  0.00    +0.055 A 
ATOM     24  C   LIG    1       -2.178  -1.081   0.594  0.00  0.00    +0.013 A 
BRANCH  23  25
ATOM     25  C   LIG    1       -4.333  -0.168  -0.417  0.00  0.00    +0.417 C 
ATOM     26  F   LIG    1       -4.883  -1.287   0.058  0.00  0.00    -0.166 F 
ATOM     27  F   LIG    1       -4.491  -0.156  -1.741  0.00  0.00    -0.166 F 
ATOM     28  F   LIG    1       -4.992   0.869   0.100  0.00  0.00    -0.166 F 
ENDBRANCH  23  25
ENDBRANCH   1  20
TORSDOF 3
