REMARK  Name = DB12286
REMARK                            x       y       z     vdW  Elec       q    Type
REMARK                         _______ _______ _______ _____ _____    ______ ____
ROOT
ATOM      1  C   LIG    1       -2.783   0.047   0.028  0.00  0.00    -0.002 A 
ATOM      2  C   LIG    1       -2.026  -1.127   0.068  0.00  0.00    +0.011 A 
ATOM      3  C   LIG    1       -0.635  -1.066   0.044  0.00  0.00    +0.025 A 
ATOM      4  C   LIG    1        0.050   0.154  -0.024  0.00  0.00    +0.048 A 
ATOM      5  C   LIG    1       -0.734   1.327  -0.073  0.00  0.00    +0.025 A 
ATOM      6  C   LIG    1       -2.124   1.277  -0.049  0.00  0.00    +0.011 A 
ENDROOT
BRANCH   1   9
ATOM      7  C   LIG    1       -4.430   1.198   2.314  0.00  0.00    +0.014 C 
ATOM      8  C   LIG    1       -5.061   1.002   0.914  0.00  0.00    +0.046 C 
ATOM      9  C   LIG    1       -4.258  -0.013   0.050  0.00  0.00    +0.070 C 
ATOM     10  N   LIG    1       -4.876  -0.870  -0.677  0.00  0.00    -0.184 NA
ATOM     11  N   LIG    1       -6.239  -0.939  -0.727  0.00  0.00    -0.207 N 
ATOM     12  H   LIG    1       -6.577  -1.551  -1.456  0.00  0.00    +0.177 HD
ATOM     13  C   LIG    1       -7.168  -0.167  -0.123  0.00  0.00    +0.233 C 
ATOM     14  O   LIG    1       -8.354  -0.144  -0.446  0.00  0.00    -0.274 OA
ATOM     15  C   LIG    1       -6.574   0.625   1.059  0.00  0.00    +0.107 C 
ENDBRANCH   1   9
BRANCH   4  16
ATOM     16  N   LIG    1        1.432   0.080  -0.038  0.00  0.00    -0.236 N 
ATOM     17  H   LIG    1        1.927  -0.770  -0.003  0.00  0.00    +0.174 HD
BRANCH  16  18
ATOM     18  N   LIG    1        2.024   1.259  -0.103  0.00  0.00    -0.160 NA
ATOM     19  C   LIG    1        3.302   1.277  -0.088  0.00  0.00    +0.234 C 
BRANCH  19  20
ATOM     20  C   LIG    1        4.164   0.106  -0.002  0.00  0.00    +0.132 C 
ATOM     21  N   LIG    1        4.887  -0.795   0.069  0.00  0.00    -0.188 NA
ENDBRANCH  19  20
BRANCH  19  22
ATOM     22  C   LIG    1        3.967   2.558  -0.159  0.00  0.00    +0.132 C 
ATOM     23  N   LIG    1        4.536   3.565  -0.206  0.00  0.00    -0.188 NA
ENDBRANCH  19  22
ENDBRANCH  16  18
ENDBRANCH   4  16
TORSDOF 5
