REMARK  Name = DB12925
REMARK                            x       y       z     vdW  Elec       q    Type
REMARK                         _______ _______ _______ _____ _____    ______ ____
ROOT
ATOM      1  C   LIG    1        1.511  -0.041   0.035  0.00  0.00    +0.098 C 
ATOM      2  C   LIG    1        2.142   0.544  -1.229  0.00  0.00    +0.098 C 
ATOM      3  C   LIG    1        2.769   1.738  -1.202  0.00  0.00    +0.199 C 
ATOM      4  O   LIG    1        2.932   2.493  -0.088  0.00  0.00    -0.439 OA
ATOM      5  C   LIG    1        2.749   1.901   1.151  0.00  0.00    +0.156 A 
ATOM      6  C   LIG    1        3.276   2.565   2.269  0.00  0.00    +0.089 A 
ATOM      7  C   LIG    1        3.143   1.978   3.541  0.00  0.00    +0.049 A 
ATOM      8  C   LIG    1        2.498   0.747   3.670  0.00  0.00    +0.025 A 
ATOM      9  C   LIG    1        1.979   0.100   2.551  0.00  0.00    +0.010 A 
ATOM     10  C   LIG    1        2.078   0.667   1.278  0.00  0.00    +0.009 A 
ENDROOT
BRANCH   1  16
ATOM     11  C   LIG    1       -2.110   1.249  -0.014  0.00  0.00    +0.163 A 
ATOM     12  C   LIG    1       -2.822   0.041  -0.054  0.00  0.00    +0.175 A 
ATOM     13  C   LIG    1       -2.138  -1.180  -0.073  0.00  0.00    +0.063 A 
ATOM     14 BR   LIG    1       -3.094  -2.827  -0.141  0.00  0.00    -0.046 Br
ATOM     15  C   LIG    1       -0.746  -1.203  -0.042  0.00  0.00    +0.023 A 
ATOM     16  C   LIG    1       -0.018  -0.012   0.005  0.00  0.00    -0.030 A 
ATOM     17  C   LIG    1       -0.706   1.207   0.017  0.00  0.00    +0.054 A 
BRANCH  11  19
ATOM     18  C   LIG    1       -2.169   3.671   0.041  0.00  0.00    +0.277 C 
ATOM     19  O   LIG    1       -2.846   2.421  -0.013  0.00  0.00    -0.491 OA
ENDBRANCH  11  19
BRANCH  12  20
ATOM     20  O   LIG    1       -4.195   0.046  -0.091  0.00  0.00    -0.490 OA
ATOM     21  C   LIG    1       -4.813   0.198   1.180  0.00  0.00    +0.277 C 
ENDBRANCH  12  20
ENDBRANCH   1  16
BRANCH   3  22
ATOM     22  N   LIG    1        3.313   2.413  -2.263  0.00  0.00    -0.328 N 
ATOM     23  H   LIG    1        3.477   3.408  -2.208  0.00  0.00    +0.145 HD
ATOM     24  H   LIG    1        3.362   1.982  -3.175  0.00  0.00    +0.145 HD
ENDBRANCH   3  22
BRANCH   6  25
ATOM     25  N   LIG    1        3.929   3.793   2.101  0.00  0.00    -0.354 N 
ATOM     26  H   LIG    1        4.323   4.263   2.902  0.00  0.00    +0.142 HD
ATOM     27  H   LIG    1        4.013   4.186   1.174  0.00  0.00    +0.142 HD
ENDBRANCH   6  25
BRANCH   7  28
ATOM     28  N   LIG    1        3.643   2.587   4.698  0.00  0.00    -0.356 N 
ATOM     29  H   LIG    1        3.528   2.129   5.591  0.00  0.00    +0.142 HD
ATOM     30  H   LIG    1        4.113   3.477   4.627  0.00  0.00    +0.142 HD
ENDBRANCH   7  28
BRANCH   2  31
ATOM     31  C   LIG    1        2.010  -0.181  -2.453  0.00  0.00    +0.101 C 
ATOM     32  N   LIG    1        1.884  -0.771  -3.441  0.00  0.00    -0.191 NA
ENDBRANCH   2  31
TORSDOF 7
