REMARK  Name = DB12776
REMARK                            x       y       z     vdW  Elec       q    Type
REMARK                         _______ _______ _______ _____ _____    ______ ____
ROOT
ATOM      1  C   LIG    1        1.504  -0.036  -0.026  0.00  0.00    +0.003 A 
ATOM      2  C   LIG    1        2.212   0.793  -0.908  0.00  0.00    +0.033 A 
ATOM      3  C   LIG    1        3.617   0.811  -0.932  0.00  0.00    +0.034 A 
ATOM      4  C   LIG    1        4.320  -0.044  -0.081  0.00  0.00    +0.023 A 
ATOM      5  C   LIG    1        3.635  -0.881   0.796  0.00  0.00    +0.002 A 
ATOM      6  C   LIG    1        2.242  -0.873   0.825  0.00  0.00    +0.010 A 
ENDROOT
BRANCH   1   9
ATOM      7  C   LIG    1       -1.901  -1.354   0.103  0.00  0.00    +0.216 A 
ATOM      8  N   LIG    1       -0.547  -1.264   0.116  0.00  0.00    -0.214 NA
ATOM      9  C   LIG    1        0.006  -0.026   0.016  0.00  0.00    +0.084 A 
ATOM     10  C   LIG    1       -0.803   1.157  -0.046  0.00  0.00    +0.030 A 
ATOM     11  C   LIG    1       -0.325   2.494  -0.059  0.00  0.00    +0.061 A 
ATOM     12  C   LIG    1       -1.209   3.583  -0.126  0.00  0.00    +0.162 A 
ATOM     13  C   LIG    1       -2.590   3.360  -0.173  0.00  0.00    +0.164 A 
ATOM     14  C   LIG    1       -3.087   2.049  -0.136  0.00  0.00    +0.078 A 
ATOM     15  C   LIG    1       -2.214   0.943  -0.061  0.00  0.00    +0.080 A 
ATOM     16  N   LIG    1       -2.754  -0.306   0.005  0.00  0.00    -0.214 NA
BRANCH   7  18
ATOM     17  C   LIG    1       -1.734  -3.838   0.332  0.00  0.00    +0.128 C 
ATOM     18  N   LIG    1       -2.511  -2.614   0.195  0.00  0.00    -0.317 N 
ATOM     19  H   LIG    1       -3.519  -2.674   0.190  0.00  0.00    +0.149 HD
ENDBRANCH   7  18
BRANCH  12  20
ATOM     20  O   LIG    1       -0.791   4.903  -0.145  0.00  0.00    -0.491 OA
ATOM     21  C   LIG    1        0.600   5.204  -0.109  0.00  0.00    +0.277 C 
ENDBRANCH  12  20
BRANCH  13  22
ATOM     22  O   LIG    1       -3.401   4.479  -0.246  0.00  0.00    -0.491 OA
ATOM     23  C   LIG    1       -4.815   4.322  -0.299  0.00  0.00    +0.277 C 
ENDBRANCH  13  22
ENDBRANCH   1   9
BRANCH   3  24
ATOM     24  N   LIG    1        4.386   1.617  -1.791  0.00  0.00    -0.281 N 
ATOM     25  H   LIG    1        5.345   1.320  -1.902  0.00  0.00    +0.155 HD
ATOM     26  C   LIG    1        4.029   2.750  -2.439  0.00  0.00    +0.248 C 
ATOM     27  O   LIG    1        2.933   3.303  -2.320  0.00  0.00    -0.270 OA
BRANCH  26  28
ATOM     28  C   LIG    1        5.096   3.369  -3.315  0.00  0.00    +0.037 A 
ATOM     29  C   LIG    1        5.044   4.737  -3.612  0.00  0.00    +0.014 A 
ATOM     30  C   LIG    1        6.011   5.325  -4.422  0.00  0.00    +0.016 A 
ATOM     31  C   LIG    1        7.053   4.559  -4.960  0.00  0.00    +0.059 A 
ATOM     32  C   LIG    1        7.106   3.188  -4.665  0.00  0.00    +0.016 A 
ATOM     33  C   LIG    1        6.138   2.601  -3.854  0.00  0.00    +0.014 A 
BRANCH  31  34
ATOM     34  C   LIG    1        8.077   5.225  -5.834  0.00  0.00    +0.339 C 
ATOM     35  O   LIG    1        8.058   6.430  -6.103  0.00  0.00    -0.245 OA
BRANCH  34  36
ATOM     36  O   LIG    1        9.022   4.369  -6.302  0.00  0.00    -0.464 OA
ATOM     37  C   LIG    1       10.066   4.825  -7.150  0.00  0.00    +0.280 C 
ENDBRANCH  34  36
ENDBRANCH  31  34
ENDBRANCH  26  28
ENDBRANCH   3  24
TORSDOF 8
