REMARK  Name = DB12406
REMARK                            x       y       z     vdW  Elec       q    Type
REMARK                         _______ _______ _______ _____ _____    ______ ____
ROOT
ATOM      1  N   LIG    1        3.520  -1.405   0.007  0.00  0.00    -0.259 N 
ATOM      2  C   LIG    1        4.095  -1.392   1.277  0.00  0.00    +0.333 A 
ATOM      3  O   LIG    1        3.434  -1.307   2.318  0.00  0.00    -0.246 OA
ATOM      4  N   LIG    1        5.469  -1.469   1.291  0.00  0.00    -0.280 N 
ATOM      5  C   LIG    1        6.188  -1.504   2.575  0.00  0.00    +0.155 C 
ATOM      6  C   LIG    1        6.215  -1.493   0.120  0.00  0.00    +0.168 A 
ATOM      7  N   LIG    1        7.532  -1.540  -0.014  0.00  0.00    -0.218 NA
ATOM      8  C   LIG    1        7.724  -1.542  -1.312  0.00  0.00    +0.202 A 
ATOM      9  N   LIG    1        6.559  -1.499  -2.043  0.00  0.00    -0.328 N 
ATOM     10  C   LIG    1        6.433  -1.487  -3.492  0.00  0.00    +0.150 C 
ATOM     11  C   LIG    1        5.559  -1.466  -1.098  0.00  0.00    +0.151 A 
ATOM     12  C   LIG    1        4.121  -1.414  -1.245  0.00  0.00    +0.282 A 
ATOM     13  O   LIG    1        3.509  -1.387  -2.316  0.00  0.00    -0.265 OA
ENDROOT
BRANCH   1  14
ATOM     14  C   LIG    1        2.032  -1.373  -0.015  0.00  0.00    +0.130 C 
BRANCH  14  15
ATOM     15  C   LIG    1        1.440   0.051  -0.018  0.00  0.00    +0.022 C 
BRANCH  15  16
ATOM     16  C   LIG    1       -0.098   0.045  -0.024  0.00  0.00    +0.004 C 
BRANCH  16  17
ATOM     17  C   LIG    1       -0.704   1.463  -0.048  0.00  0.00    +0.031 C 
BRANCH  17  19
ATOM     18  C   LIG    1       -2.807   2.923   0.072  0.00  0.00    +0.037 C 
ATOM     19  C   LIG    1       -2.247   1.493   0.011  0.00  0.00    +0.111 C 
BRANCH  19  20
ATOM     20  O   LIG    1       -2.797   0.847  -1.121  0.00  0.00    -0.392 OA
ATOM     21  H   LIG    1       -2.443  -0.045  -1.164  0.00  0.00    +0.210 HD
ENDBRANCH  19  20
ENDBRANCH  17  19
ENDBRANCH  16  17
ENDBRANCH  15  16
ENDBRANCH  14  15
ENDBRANCH   1  14
TORSDOF 6
