REMARK  Name = DB12143
REMARK                            x       y       z     vdW  Elec       q    Type
REMARK                         _______ _______ _______ _____ _____    ______ ____
ROOT
ATOM      1  C   LIG    1        1.496  -0.262  -0.151  0.00  0.00    +0.064 C 
ATOM      2  C   LIG    1        2.141   1.013   0.439  0.00  0.00    +0.019 C 
ENDROOT
BRANCH   1   7
ATOM      3  C   LIG    1       -3.181  -2.321   0.553  0.00  0.00    +0.044 C 
ATOM      4  C   LIG    1       -2.256  -1.185   0.135  0.00  0.00    -0.047 A 
ATOM      5  C   LIG    1       -0.851  -1.308   0.172  0.00  0.00    -0.044 A 
ATOM      6  C   LIG    1       -0.206  -2.637   0.576  0.00  0.00    +0.044 C 
ATOM      7  C   LIG    1       -0.044  -0.205  -0.195  0.00  0.00    -0.036 A 
ATOM      8  C   LIG    1       -0.662   0.978  -0.625  0.00  0.00    +0.004 A 
ATOM      9  C   LIG    1       -2.046   1.089  -0.668  0.00  0.00    +0.001 A 
ATOM     10  C   LIG    1       -2.839   0.015  -0.283  0.00  0.00    +0.003 A 
ENDBRANCH   1   7
BRANCH   1  11
ATOM     11  C   LIG    1        2.098  -0.675  -1.491  0.00  0.00    +0.041 A 
ATOM     12  N   LIG    1        3.415  -0.947  -1.551  0.00  0.00    -0.337 N 
ATOM     13  H   LIG    1        4.061  -0.897  -0.777  0.00  0.00    +0.168 HD
ATOM     14  C   LIG    1        3.823  -1.310  -2.795  0.00  0.00    +0.155 A 
ATOM     15  S   LIG    1        5.338  -1.726  -3.321  0.00  0.00    -0.013 S 
ATOM     16  N   LIG    1        2.660  -1.243  -3.491  0.00  0.00    -0.340 N 
ATOM     17  H   LIG    1        2.616  -1.460  -4.477  0.00  0.00    +0.167 HD
ATOM     18  C   LIG    1        1.626  -0.868  -2.723  0.00  0.00    +0.106 A 
ENDBRANCH   1  11
TORSDOF 2
