REMARK  Name = DB12570
REMARK                            x       y       z     vdW  Elec       q    Type
REMARK                         _______ _______ _______ _____ _____    ______ ____
ROOT
ATOM      1  C   LIG    1        5.763   0.063   0.070  0.00  0.00    +0.093 A 
ATOM      2  C   LIG    1        6.584   1.139  -0.303  0.00  0.00    +0.141 A 
ATOM      3  N   LIG    1        7.938   1.079  -0.210  0.00  0.00    -0.235 NA
ATOM      4  C   LIG    1        8.474  -0.080   0.249  0.00  0.00    +0.160 A 
ATOM      5  N   LIG    1        9.866  -0.161   0.401  0.00  0.00    -0.318 N 
ATOM      6  H   LIG    1       10.428   0.565  -0.020  0.00  0.00    +0.148 HD
ATOM      7  C   LIG    1       10.416  -1.519   0.271  0.00  0.00    +0.199 C 
ATOM      8  C   LIG    1        9.643  -2.570   1.123  0.00  0.00    +0.238 C 
ATOM      9  N   LIG    1        8.287  -2.375   1.106  0.00  0.00    -0.249 N 
ATOM     10  O   LIG    1       10.239  -3.440   1.762  0.00  0.00    -0.273 OA
ATOM     11  C   LIG    1        7.683  -1.170   0.642  0.00  0.00    +0.169 A 
ATOM     12  N   LIG    1        6.326  -1.090   0.530  0.00  0.00    -0.227 NA
ENDROOT
BRANCH   1  16
ATOM     13  C   LIG    1        1.482   0.092  -0.153  0.00  0.00    +0.072 A 
ATOM     14  C   LIG    1        2.167   1.315  -0.116  0.00  0.00    +0.027 A 
ATOM     15  C   LIG    1        3.560   1.307  -0.047  0.00  0.00    +0.013 A 
ATOM     16  C   LIG    1        4.269   0.097  -0.017  0.00  0.00    +0.020 A 
ATOM     17  C   LIG    1        3.501  -1.078  -0.058  0.00  0.00    +0.121 A 
ATOM     18  N   LIG    1        2.146  -1.095  -0.125  0.00  0.00    -0.256 NA
BRANCH  13  20
ATOM     19  C   LIG    1       -0.620  -0.705   1.035  0.00  0.00    +0.048 C 
ATOM     20  C   LIG    1       -0.057  -0.000  -0.220  0.00  0.00    +0.102 C 
ATOM     21  C   LIG    1       -0.513  -0.720  -1.509  0.00  0.00    +0.048 C 
BRANCH  20  22
ATOM     22  O   LIG    1       -0.686   1.271  -0.254  0.00  0.00    -0.383 OA
ATOM     23  H   LIG    1       -1.636   1.138  -0.293  0.00  0.00    +0.211 HD
ENDBRANCH  20  22
ENDBRANCH  13  20
ENDBRANCH   1  16
BRANCH   9  24
ATOM     24  C   LIG    1        7.428  -3.433   1.716  0.00  0.00    +0.083 C 
ATOM     25  C   LIG    1        6.559  -4.243   0.709  0.00  0.00    +0.025 C 
ATOM     26  C   LIG    1        5.633  -5.278   1.376  0.00  0.00    +0.033 C 
ATOM     27  C   LIG    1        4.801  -4.642   2.502  0.00  0.00    +0.118 C 
ATOM     28  C   LIG    1        5.762  -4.119   3.591  0.00  0.00    +0.033 C 
ATOM     29  C   LIG    1        6.699  -3.029   3.033  0.00  0.00    +0.025 C 
BRANCH  27  30
ATOM     30  O   LIG    1        3.890  -5.620   2.999  0.00  0.00    -0.380 OA
ATOM     31  C   LIG    1        2.825  -5.114   3.794  0.00  0.00    +0.194 C 
ENDBRANCH  27  30
ENDBRANCH   9  24
TORSDOF 5
