REMARK  Name = DB12543
REMARK                            x       y       z     vdW  Elec       q    Type
REMARK                         _______ _______ _______ _____ _____    ______ ____
ROOT
ATOM      1  C   LIG    1       -2.755   1.276   3.627  0.00  0.00    +0.133 A 
ATOM      2  C   LIG    1       -2.107   1.549   2.393  0.00  0.00    +0.007 A 
ATOM      3  C   LIG    1       -2.556   0.892   1.033  0.00  0.00    +0.037 C 
ATOM      4  C   LIG    1       -1.991   1.728  -0.180  0.00  0.00    +0.092 C 
ATOM      5  C   LIG    1       -2.715   3.115  -0.262  0.00  0.00    +0.045 C 
ATOM      6  C   LIG    1       -4.253   3.026  -0.388  0.00  0.00    +0.077 C 
ATOM      7  C   LIG    1       -4.826   2.111   0.701  0.00  0.00    +0.134 C 
ATOM      8  O   LIG    1       -5.753   2.439   1.438  0.00  0.00    -0.297 OA
ATOM      9  C   LIG    1       -0.444   1.828  -0.034  0.00  0.00    +0.093 C 
ATOM     10  N   LIG    1        0.179   0.481  -0.020  0.00  0.00    -0.296 NA
ATOM     11  C   LIG    1       -0.367  -0.479   0.953  0.00  0.00    +0.086 C 
ATOM     12  C   LIG    1       -0.120   2.715   1.190  0.00  0.00    +0.057 C 
ATOM     13  C   LIG    1       -4.108   0.757   0.805  0.00  0.00    +0.089 C 
ATOM     14  C   LIG    1       -1.910  -0.518   0.941  0.00  0.00    +0.030 C 
ATOM     15  C   LIG    1       -0.956   2.387   2.433  0.00  0.00    -0.038 A 
ATOM     16  C   LIG    1       -0.556   2.962   3.638  0.00  0.00    +0.005 A 
ATOM     17  C   LIG    1       -1.241   2.729   4.816  0.00  0.00    +0.017 A 
ATOM     18  C   LIG    1       -2.345   1.876   4.838  0.00  0.00    +0.078 A 
ENDROOT
BRANCH  18  19
ATOM     19  C   LIG    1       -3.063   1.627   6.152  0.00  0.00    +0.245 C 
ATOM     20  O   LIG    1       -4.277   1.435   6.203  0.00  0.00    -0.270 OA
ATOM     21  N   LIG    1       -2.308   1.605   7.256  0.00  0.00    -0.325 N 
ATOM     22  H   LIG    1       -1.311   1.750   7.195  0.00  0.00    +0.145 HD
ATOM     23  H   LIG    1       -2.734   1.436   8.156  0.00  0.00    +0.145 HD
ENDBRANCH  18  19
BRANCH   1  24
ATOM     24  O   LIG    1       -3.776   0.357   3.663  0.00  0.00    -0.506 OA
ATOM     25  H   LIG    1       -4.167   0.275   4.537  0.00  0.00    +0.292 HD
ENDBRANCH   1  24
BRANCH   4  26
ATOM     26  O   LIG    1       -2.272   1.103  -1.434  0.00  0.00    -0.386 OA
ATOM     27  H   LIG    1       -1.800   0.267  -1.461  0.00  0.00    +0.210 HD
ENDBRANCH   4  26
BRANCH  10  28
ATOM     28  C   LIG    1        1.645   0.495  -0.074  0.00  0.00    +0.088 C 
BRANCH  28  29
ATOM     29  C   LIG    1        2.240  -0.838  -0.577  0.00  0.00    +0.003 C 
ATOM     30  C   LIG    1        1.700  -1.520  -1.814  0.00  0.00    +0.005 C 
ATOM     31  C   LIG    1        3.060  -0.851  -1.845  0.00  0.00    +0.005 C 
ENDBRANCH  28  29
ENDBRANCH  10  28
TORSDOF 5
