REMARK  Name = DB12407
REMARK                            x       y       z     vdW  Elec       q    Type
REMARK                         _______ _______ _______ _____ _____    ______ ____
ROOT
ATOM      1  C   LIG    1        1.455   0.085  -0.028  0.00  0.00    +0.066 A 
ATOM      2  C   LIG    1        2.161   0.088  -1.245  0.00  0.00    +0.049 A 
ATOM      3  C   LIG    1        3.564   0.079  -1.232  0.00  0.00    +0.061 A 
ATOM      4  C   LIG    1        4.271   0.091  -0.020  0.00  0.00    +0.049 A 
ATOM      5  I   LIG    1        6.386   0.134  -0.050  0.00  0.00    -0.041 I 
ATOM      6  C   LIG    1        3.564   0.084   1.197  0.00  0.00    +0.066 A 
ATOM      7  I   LIG    1        1.140   0.118  -3.098  0.00  0.00    -0.041 I 
ATOM      8  C   LIG    1        2.154   0.075   1.195  0.00  0.00    +0.040 A 
ATOM      9  I   LIG    1        1.090   0.069   3.028  0.00  0.00    -0.042 I 
ENDROOT
BRANCH   1  10
ATOM     10  C   LIG    1       -0.054   0.090  -0.039  0.00  0.00    +0.249 C 
ATOM     11  O   LIG    1       -0.645  -0.991  -0.056  0.00  0.00    -0.270 OA
ATOM     12  N   LIG    1       -0.692   1.293  -0.043  0.00  0.00    -0.298 N 
ATOM     13  C   LIG    1       -0.017   2.595   0.033  0.00  0.00    +0.132 C 
BRANCH  12  14
ATOM     14  C   LIG    1       -2.155   1.385  -0.171  0.00  0.00    +0.141 C 
BRANCH  14  15
ATOM     15  C   LIG    1       -2.692   1.102  -1.596  0.00  0.00    +0.157 C 
BRANCH  15  16
ATOM     16  O   LIG    1       -4.095   0.939  -1.530  0.00  0.00    -0.388 OA
ATOM     17  H   LIG    1       -4.484   1.777  -1.270  0.00  0.00    +0.210 HD
ENDBRANCH  15  16
BRANCH  15  18
ATOM     18  C   LIG    1       -2.346   2.185  -2.644  0.00  0.00    +0.188 C 
BRANCH  18  19
ATOM     19  O   LIG    1       -2.779   3.474  -2.248  0.00  0.00    -0.392 OA
ATOM     20  H   LIG    1       -2.558   4.099  -2.942  0.00  0.00    +0.210 HD
ENDBRANCH  18  19
ENDBRANCH  15  18
ENDBRANCH  14  15
ENDBRANCH  12  14
ENDBRANCH   1  10
BRANCH   3  21
ATOM     21  N   LIG    1        4.266   0.086  -2.445  0.00  0.00    -0.283 N 
ATOM     22  H   LIG    1        4.490   0.987  -2.841  0.00  0.00    +0.155 HD
ATOM     23  C   LIG    1        4.642  -1.031  -3.101  0.00  0.00    +0.225 C 
ATOM     24  O   LIG    1        4.416  -2.173  -2.691  0.00  0.00    -0.275 OA
BRANCH  23  25
ATOM     25  C   LIG    1        5.386  -0.826  -4.437  0.00  0.00    +0.126 C 
BRANCH  25  26
ATOM     26  C   LIG    1        6.830  -1.393  -4.378  0.00  0.00    +0.170 C 
BRANCH  26  27
ATOM     27  O   LIG    1        7.646  -0.672  -3.473  0.00  0.00    -0.394 OA
ATOM     28  H   LIG    1        8.519  -1.071  -3.464  0.00  0.00    +0.209 HD
ENDBRANCH  26  27
ENDBRANCH  25  26
BRANCH  25  29
ATOM     29  C   LIG    1        4.563  -1.436  -5.598  0.00  0.00    +0.170 C 
BRANCH  29  30
ATOM     30  O   LIG    1        5.104  -1.085  -6.856  0.00  0.00    -0.394 OA
ATOM     31  H   LIG    1        4.558  -1.476  -7.543  0.00  0.00    +0.209 HD
ENDBRANCH  29  30
ENDBRANCH  25  29
ENDBRANCH  23  25
ENDBRANCH   3  21
BRANCH   6  32
ATOM     32  C   LIG    1        4.320   0.083   2.503  0.00  0.00    +0.249 C 
ATOM     33  O   LIG    1        4.605  -1.001   3.014  0.00  0.00    -0.270 OA
ATOM     34  N   LIG    1        4.662   1.282   3.048  0.00  0.00    -0.298 N 
ATOM     35  C   LIG    1        4.348   2.586   2.450  0.00  0.00    +0.132 C 
BRANCH  34  36
ATOM     36  C   LIG    1        5.530   1.372   4.234  0.00  0.00    +0.141 C 
BRANCH  36  37
ATOM     37  C   LIG    1        7.045   1.442   3.915  0.00  0.00    +0.157 C 
BRANCH  37  38
ATOM     38  O   LIG    1        7.500   0.170   3.494  0.00  0.00    -0.388 OA
ATOM     39  H   LIG    1        6.926  -0.142   2.790  0.00  0.00    +0.210 HD
ENDBRANCH  37  38
BRANCH  37  40
ATOM     40  C   LIG    1        7.893   1.898   5.119  0.00  0.00    +0.188 C 
BRANCH  40  41
ATOM     41  O   LIG    1        7.655   3.256   5.432  0.00  0.00    -0.392 OA
ATOM     42  H   LIG    1        8.210   3.499   6.176  0.00  0.00    +0.210 HD
ENDBRANCH  40  41
ENDBRANCH  37  40
ENDBRANCH  36  37
ENDBRANCH  34  36
ENDBRANCH   6  32
TORSDOF 18
