REMARK  Name = DB12771
REMARK                            x       y       z     vdW  Elec       q    Type
REMARK                         _______ _______ _______ _____ _____    ______ ____
ROOT
ATOM      1  C   LIG    1        3.622   0.029   1.207  0.00  0.00    +0.158 A 
ATOM      2  C   LIG    1        4.349  -0.047   0.011  0.00  0.00    +0.158 A 
ATOM      3  C   LIG    1        3.672  -0.099  -1.209  0.00  0.00    +0.049 A 
ATOM      4  C   LIG    1        2.278  -0.076  -1.240  0.00  0.00    +0.007 A 
ATOM      5  C   LIG    1        1.548  -0.000  -0.051  0.00  0.00    -0.042 A 
ATOM      6  C   LIG    1        2.226   0.052   1.171  0.00  0.00    +0.053 A 
ENDROOT
BRANCH   1   7
ATOM      7  O   LIG    1        4.260   0.081   2.421  0.00  0.00    -0.503 OA
ATOM      8  H   LIG    1        3.653   0.128   3.163  0.00  0.00    +0.292 HD
ENDBRANCH   1   7
BRANCH   2   9
ATOM      9  O   LIG    1        5.721  -0.071   0.015  0.00  0.00    -0.503 OA
ATOM     10  H   LIG    1        6.097  -0.126  -0.866  0.00  0.00    +0.292 HD
ENDBRANCH   2   9
BRANCH   5  11
ATOM     11  C   LIG    1        0.024   0.026  -0.083  0.00  0.00    +0.063 C 
BRANCH  11  12
ATOM     12  C   LIG    1       -0.578   1.439   0.033  0.00  0.00    +0.160 C 
BRANCH  12  13
ATOM     13  O   LIG    1       -0.201   2.250  -1.061  0.00  0.00    -0.395 OA
ATOM     14  H   LIG    1       -0.576   3.125  -0.937  0.00  0.00    +0.209 HD
ENDBRANCH  12  13
ENDBRANCH  11  12
ENDBRANCH   5  11
TORSDOF 5
