REMARK  Name = DB12042
REMARK                            x       y       z     vdW  Elec       q    Type
REMARK                         _______ _______ _______ _____ _____    ______ ____
ROOT
ATOM      1  C   LIG    1        0.989  -0.811   0.030  0.00  0.00    +0.163 C 
ENDROOT
BRANCH   1   3
ATOM      2  C   LIG    1       -0.682   1.076  -0.190  0.00  0.00    +0.237 C 
ATOM      3  N   LIG    1       -0.351  -0.227  -0.075  0.00  0.00    -0.302 N 
ATOM      4  H   LIG    1       -1.097  -0.903  -0.140  0.00  0.00    +0.150 HD
ATOM      5  O   LIG    1        0.150   1.982  -0.111  0.00  0.00    -0.273 OA
BRANCH   2   6
ATOM      6  C   LIG    1       -2.198   1.394  -0.440  0.00  0.00    +0.111 C 
ATOM      7  C   LIG    1       -2.994   1.244   0.876  0.00  0.00    +0.035 C 
ATOM      8  C   LIG    1       -2.811   2.560   1.649  0.00  0.00    +0.003 C 
ATOM      9  C   LIG    1       -2.516   3.633   0.589  0.00  0.00    +0.003 C 
ATOM     10  C   LIG    1       -2.446   2.893  -0.758  0.00  0.00    +0.035 C 
BRANCH   6  12
ATOM     11  C   LIG    1       -2.305   0.336  -2.763  0.00  0.00    +0.252 C 
ATOM     12  N   LIG    1       -2.753   0.516  -1.498  0.00  0.00    -0.297 N 
ATOM     13  H   LIG    1       -3.705   0.223  -1.333  0.00  0.00    +0.150 HD
ATOM     14  O   LIG    1       -1.331   0.928  -3.232  0.00  0.00    -0.270 OA
BRANCH  11  20
ATOM     15  C   LIG    1       -6.395  -5.170  -6.316  0.00  0.00    +0.044 C 
ATOM     16  C   LIG    1       -5.473  -4.008  -5.992  0.00  0.00    -0.049 A 
ATOM     17  C   LIG    1       -5.352  -3.569  -4.673  0.00  0.00    +0.019 A 
ATOM     18  C   LIG    1       -4.483  -2.502  -4.399  0.00  0.00    +0.020 A 
ATOM     19  S   LIG    1       -4.158  -1.774  -2.834  0.00  0.00    -0.084 S 
ATOM     20  C   LIG    1       -3.040  -0.624  -3.559  0.00  0.00    +0.075 A 
ATOM     21  C   LIG    1       -2.914  -0.817  -4.926  0.00  0.00    +0.029 A 
ATOM     22  C   LIG    1       -3.729  -1.869  -5.430  0.00  0.00    -0.010 A 
ATOM     23  C   LIG    1       -3.871  -2.342  -6.746  0.00  0.00    +0.009 A 
ATOM     24  C   LIG    1       -4.737  -3.402  -7.010  0.00  0.00    +0.004 A 
ENDBRANCH  11  20
ENDBRANCH   6  12
ENDBRANCH   2   6
ENDBRANCH   1   3
BRANCH   1  25
ATOM     25  C   LIG    1        1.841  -0.542  -1.225  0.00  0.00    +0.234 C 
ATOM     26  N   LIG    1        1.777  -1.478  -2.187  0.00  0.00    -0.314 N 
ATOM     27  H   LIG    1        1.155  -2.263  -2.061  0.00  0.00    +0.149 HD
ATOM     28  O   LIG    1        2.530   0.475  -1.295  0.00  0.00    -0.274 OA
BRANCH  26  29
ATOM     29  C   LIG    1        2.562  -1.457  -3.423  0.00  0.00    +0.107 C 
BRANCH  29  30
ATOM     30  C   LIG    1        3.866  -2.298  -3.373  0.00  0.00    +0.003 C 
ATOM     31  C   LIG    1        4.790  -1.921  -2.190  0.00  0.00    -0.014 C 
ATOM     32  C   LIG    1        6.122  -2.689  -2.243  0.00  0.00    -0.079 C 
ATOM     33  N   LIG    1        5.823  -4.210  -2.216  0.00  0.00    +0.380 N 
ATOM     34  H   LIG    1        5.350  -4.416  -1.347  0.00  0.00    -0.082 HD
ATOM     35  C   LIG    1        4.869  -4.635  -3.360  0.00  0.00    -0.079 C 
ATOM     36  C   LIG    1        3.574  -3.809  -3.259  0.00  0.00    -0.014 C 
BRANCH  33  37
ATOM     37  C   LIG    1        7.125  -5.049  -2.277  0.00  0.00    -0.075 C 
BRANCH  37  38
ATOM     38  C   LIG    1        7.946  -4.965  -0.966  0.00  0.00    -0.023 C 
ATOM     39  C   LIG    1        7.148  -5.362   0.299  0.00  0.00    +0.030 C 
ATOM     40  C   LIG    1        8.040  -5.314   1.556  0.00  0.00    +0.160 C 
ATOM     41  O   LIG    1        9.179  -6.156   1.371  0.00  0.00    -0.380 OA
ATOM     42  C   LIG    1       10.014  -5.777   0.276  0.00  0.00    +0.160 C 
ATOM     43  C   LIG    1        9.212  -5.845  -1.040  0.00  0.00    +0.030 C 
ENDBRANCH  37  38
ENDBRANCH  33  37
ENDBRANCH  29  30
ENDBRANCH  26  29
ENDBRANCH   1  25
BRANCH   1  44
ATOM     44  C   LIG    1        1.681  -0.432   1.365  0.00  0.00    +0.067 C 
BRANCH  44  45
ATOM     45  C   LIG    1        3.080  -1.000   1.562  0.00  0.00    -0.045 A 
ATOM     46  C   LIG    1        3.250  -2.367   1.870  0.00  0.00    +0.004 A 
ATOM     47  C   LIG    1        4.527  -2.905   1.959  0.00  0.00    +0.000 A 
ATOM     48  C   LIG    1        5.641  -2.109   1.720  0.00  0.00    +0.000 A 
ATOM     49  C   LIG    1        5.489  -0.771   1.383  0.00  0.00    +0.000 A 
ATOM     50  C   LIG    1        4.220  -0.213   1.293  0.00  0.00    +0.004 A 
ENDBRANCH  44  45
ENDBRANCH   1  44
TORSDOF 11
