REMARK  Name = DB12989
REMARK                            x       y       z     vdW  Elec       q    Type
REMARK                         _______ _______ _______ _____ _____    ______ ____
ROOT
ATOM      1  C   LIG    1       -1.566  -1.274   1.864  0.00  0.00    +0.364 C 
ATOM      2  N   LIG    1       -1.648  -0.084   2.626  0.00  0.00    -0.212 N 
ATOM      3  H   LIG    1       -2.321   0.143   3.344  0.00  0.00    +0.247 HD
ATOM      4  C   LIG    1       -0.284   0.363   2.867  0.00  0.00    +0.230 C 
ATOM      5  C   LIG    1        0.265   0.022   4.292  0.00  0.00    +0.220 C 
ATOM      6  C   LIG    1       -0.439   1.086   5.121  0.00  0.00    +0.085 C 
ATOM      7  C   LIG    1       -0.434   2.331   4.230  0.00  0.00    +0.097 C 
ATOM      8  N   LIG    1       -0.127   1.848   2.854  0.00  0.00    -0.226 NA
ATOM      9  C   LIG    1        0.180   2.565   1.748  0.00  0.00    +0.202 C 
ATOM     10  N   LIG    1        0.471   1.920   0.585  0.00  0.00    -0.142 NA
ATOM     11  C   LIG    1        0.549   0.457   0.326  0.00  0.00    +0.171 C 
ATOM     12  C   LIG    1        0.388  -0.343   1.664  0.00  0.00    +0.269 C 
ATOM     13  N   LIG    1       -0.396  -1.538   1.449  0.00  0.00    -0.107 NA
ENDROOT
BRANCH   9  14
ATOM     14  N   LIG    1        0.185   3.906   1.829  0.00  0.00    -0.295 NA
ATOM     15  H   LIG    1        0.428   4.457   1.018  0.00  0.00    +0.121 HD
ATOM     16  H   LIG    1       -0.031   4.359   2.705  0.00  0.00    +0.121 HD
ENDBRANCH   9  14
BRANCH   1  17
ATOM     17  N   LIG    1       -2.754  -2.008   1.667  0.00  0.00    -0.252 N 
ATOM     18  H   LIG    1       -3.613  -1.488   1.555  0.00  0.00    +0.241 HD
ATOM     19  H   LIG    1       -2.719  -2.785   1.022  0.00  0.00    +0.241 HD
ENDBRANCH   1  17
BRANCH   5  20
ATOM     20  O   LIG    1        1.677   0.131   4.416  0.00  0.00    -0.361 OA
ATOM     21  H   LIG    1        2.076  -0.635   3.998  0.00  0.00    +0.213 HD
ENDBRANCH   5  20
BRANCH   5  22
ATOM     22  O   LIG    1       -0.039  -1.285   4.744  0.00  0.00    -0.361 OA
ATOM     23  H   LIG    1       -0.990  -1.409   4.705  0.00  0.00    +0.213 HD
ENDBRANCH   5  22
BRANCH  10  24
ATOM     24  O   LIG    1        0.613   2.655  -0.596  0.00  0.00    -0.309 OA
ATOM     25  H   LIG    1       -0.294   2.833  -0.859  0.00  0.00    +0.237 HD
ENDBRANCH  10  24
BRANCH  11  26
ATOM     26  C   LIG    1        1.811   0.066  -0.490  0.00  0.00    +0.259 C 
BRANCH  26  27
ATOM     27  O   LIG    1        1.624   0.284  -1.886  0.00  0.00    -0.449 OA
BRANCH  27  28
ATOM     28  C   LIG    1        2.625   0.060  -2.758  0.00  0.00    +0.398 C 
ATOM     29  O   LIG    1        3.754  -0.333  -2.463  0.00  0.00    -0.227 OA
ATOM     30  N   LIG    1        2.192   0.341  -4.033  0.00  0.00    -0.295 N 
ATOM     31  H   LIG    1        2.829   0.225  -4.808  0.00  0.00    +0.148 HD
ATOM     32  H   LIG    1        1.244   0.656  -4.178  0.00  0.00    +0.148 HD
ENDBRANCH  27  28
ENDBRANCH  26  27
ENDBRANCH  11  26
TORSDOF 8
