REMARK  Name = DB12487
REMARK                            x       y       z     vdW  Elec       q    Type
REMARK                         _______ _______ _______ _____ _____    ______ ____
ROOT
ATOM      1  C   LIG    1       -0.862  -1.351  -0.098  0.00  0.00    +0.046 A 
ATOM      2  C   LIG    1       -2.253  -1.276  -0.120  0.00  0.00    +0.008 A 
ATOM      3  C   LIG    1       -2.915  -0.043  -0.061  0.00  0.00    -0.041 A 
ATOM      4  C   LIG    1       -2.144   1.134   0.005  0.00  0.00    -0.040 A 
ATOM      5  C   LIG    1       -2.861   2.480   0.018  0.00  0.00    +0.036 C 
ATOM      6  C   LIG    1       -4.062   2.489   0.995  0.00  0.00    +0.009 C 
ATOM      7  C   LIG    1       -4.841   1.146   1.060  0.00  0.00    +0.000 C 
ATOM      8  C   LIG    1       -6.377   1.285   1.201  0.00  0.00    +0.001 C 
ATOM      9  C   LIG    1       -6.970   2.268   2.214  0.00  0.00    +0.007 C 
ATOM     10  C   LIG    1       -8.421   1.784   2.392  0.00  0.00    +0.032 C 
ATOM     11  C   LIG    1       -8.534   0.440   1.633  0.00  0.00    +0.124 C 
ATOM     12  C   LIG    1       -7.072  -0.071   1.484  0.00  0.00    -0.003 C 
ATOM     13  C   LIG    1       -6.617  -0.762   2.808  0.00  0.00    +0.014 C 
ATOM     14  C   LIG    1       -6.787  -0.967   0.246  0.00  0.00    +0.010 C 
ATOM     15  C   LIG    1       -5.268  -1.221   0.052  0.00  0.00    +0.009 C 
ATOM     16  C   LIG    1       -0.749   1.045   0.036  0.00  0.00    +0.049 A 
ATOM     17  C   LIG    1       -4.445   0.102  -0.034  0.00  0.00    +0.023 C 
ATOM     18  C   LIG    1       -0.091  -0.184  -0.014  0.00  0.00    +0.121 A 
ENDROOT
BRANCH  11  19
ATOM     19  O   LIG    1       -9.420  -0.414   2.360  0.00  0.00    -0.379 OA
ATOM     20  C   LIG    1       -9.915  -1.544   1.656  0.00  0.00    +0.194 C 
ENDBRANCH  11  19
BRANCH  18  21
ATOM     21  O   LIG    1        1.290  -0.156   0.018  0.00  0.00    -0.492 OA
BRANCH  21  22
ATOM     22  C   LIG    1        2.014  -1.382  -0.025  0.00  0.00    +0.229 C 
BRANCH  22  23
ATOM     23  C   LIG    1        3.516  -1.069   0.026  0.00  0.00    +0.038 C 
ATOM     24  C   LIG    1        4.392  -2.329  -0.004  0.00  0.00    +0.007 C 
ENDBRANCH  22  23
ENDBRANCH  21  22
ENDBRANCH  18  21
TORSDOF 4
