REMARK  Name = DB12569
REMARK                            x       y       z     vdW  Elec       q    Type
REMARK                         _______ _______ _______ _____ _____    ______ ____
ROOT
ATOM      1  N   LIG    1       -3.345  -1.228  -0.159  0.00  0.00    -0.276 N 
ATOM      2  C   LIG    1       -4.550  -0.560  -0.135  0.00  0.00    +0.334 A 
ATOM      3  O   LIG    1       -5.628  -1.163  -0.194  0.00  0.00    -0.246 OA
ATOM      4  N   LIG    1       -4.454   0.829  -0.051  0.00  0.00    -0.259 N 
ATOM      5  C   LIG    1       -3.330   1.645  -0.020  0.00  0.00    +0.282 A 
ATOM      6  O   LIG    1       -3.350   2.878   0.032  0.00  0.00    -0.265 OA
ATOM      7  C   LIG    1       -2.144   0.831  -0.054  0.00  0.00    +0.149 A 
ATOM      8  N   LIG    1       -0.823   1.182  -0.032  0.00  0.00    -0.336 N 
ATOM      9  H   LIG    1       -0.447   2.119   0.018  0.00  0.00    +0.167 HD
ATOM     10  C   LIG    1       -0.104   0.011  -0.093  0.00  0.00    +0.116 A 
ATOM     11  N   LIG    1       -0.901  -1.039  -0.133  0.00  0.00    -0.214 NA
ATOM     12  C   LIG    1       -2.133  -0.547  -0.122  0.00  0.00    +0.168 A 
ENDROOT
BRANCH  10  13
ATOM     13  C   LIG    1        1.427  -0.046  -0.053  0.00  0.00    +0.029 C 
ATOM     14  C   LIG    1        2.080   1.189  -0.744  0.00  0.00    +0.015 C 
ATOM     15  C   LIG    1        3.631   1.123  -0.676  0.00  0.00    +0.008 C 
ATOM     16  C   LIG    1        4.130  -0.156   0.064  0.00  0.00    -0.029 C 
ATOM     17  C   LIG    1        3.487  -0.138   1.486  0.00  0.00    +0.008 C 
ATOM     18  C   LIG    1        3.537  -1.379  -0.700  0.00  0.00    +0.008 C 
ATOM     19  C   LIG    1        1.934  -0.078   1.418  0.00  0.00    +0.015 C 
ATOM     20  C   LIG    1        1.985  -1.317  -0.767  0.00  0.00    +0.015 C 
BRANCH  16  21
ATOM     21  C   LIG    1        5.685  -0.172   0.106  0.00  0.00    +0.018 C 
BRANCH  21  22
ATOM     22  C   LIG    1        6.345  -1.392   0.812  0.00  0.00    +0.121 C 
BRANCH  22  23
ATOM     23  C   LIG    1        7.894  -1.385   0.825  0.00  0.00    +0.305 C 
ATOM     24  O   LIG    1        8.441  -2.362   1.385  0.00  0.00    -0.251 OA
BRANCH  23  25
ATOM     25  O   LIG    1        8.526  -0.441   0.296  0.00  0.00    -0.481 OA
ATOM     26  H   LIG    1        8.061   0.265  -0.109  0.00  0.00    +0.295 HD
ENDBRANCH  23  25
ENDBRANCH  22  23
ENDBRANCH  21  22
ENDBRANCH  16  21
ENDBRANCH  10  13
BRANCH   1  27
ATOM     27  C   LIG    1       -3.345  -2.704  -0.239  0.00  0.00    +0.128 C 
BRANCH  27  29
ATOM     28  C   LIG    1       -2.489  -3.114   2.170  0.00  0.00    +0.005 C 
ATOM     29  C   LIG    1       -3.565  -3.414   1.115  0.00  0.00    +0.018 C 
ENDBRANCH  27  29
ENDBRANCH   1  27
BRANCH   4  30
ATOM     30  C   LIG    1       -5.753   1.552  -0.008  0.00  0.00    +0.130 C 
BRANCH  30  31
ATOM     31  C   LIG    1       -6.341   1.856  -1.401  0.00  0.00    +0.018 C 
ATOM     32  C   LIG    1       -7.677   2.606  -1.323  0.00  0.00    +0.005 C 
ENDBRANCH  30  31
ENDBRANCH   4  30
TORSDOF 9
