REMARK  Name = DB12161
REMARK                            x       y       z     vdW  Elec       q    Type
REMARK                         _______ _______ _______ _____ _____    ______ ____
ROOT
ATOM      1  C   LIG    1       -6.816   1.026  -1.917  0.00  0.00    +0.162 A 
ATOM      2  C   LIG    1       -5.976   0.747  -3.001  0.00  0.00    +0.162 A 
ATOM      3  C   LIG    1       -4.587   0.731  -2.801  0.00  0.00    +0.054 A 
ATOM      4  C   LIG    1       -4.016   0.998  -1.554  0.00  0.00    -0.023 A 
ATOM      5  C   LIG    1       -2.501   0.870  -1.347  0.00  0.00    +0.094 C 
ATOM      6  N   LIG    1       -2.032   1.545  -0.121  0.00  0.00    -0.294 NA
ATOM      7  C   LIG    1       -2.804   1.101   1.042  0.00  0.00    +0.089 C 
ATOM      8  C   LIG    1       -4.268   1.571   0.910  0.00  0.00    +0.051 C 
ATOM      9  C   LIG    1       -0.580   1.447   0.063  0.00  0.00    +0.096 C 
ATOM     10  C   LIG    1        0.009   0.009   0.012  0.00  0.00    +0.070 C 
ATOM     11  C   LIG    1       -0.522  -0.771  -1.213  0.00  0.00    +0.139 C 
ATOM     12  O   LIG    1        0.184  -1.453  -1.957  0.00  0.00    -0.297 OA
ATOM     13  C   LIG    1       -2.023  -0.602  -1.461  0.00  0.00    +0.098 C 
ATOM     14  C   LIG    1       -4.863   1.271  -0.464  0.00  0.00    -0.038 A 
ATOM     15  C   LIG    1       -6.246   1.281  -0.660  0.00  0.00    +0.053 A 
ENDROOT
BRANCH   1  17
ATOM     16  C   LIG    1       -9.079   1.317  -1.094  0.00  0.00    +0.277 C 
ATOM     17  O   LIG    1       -8.179   1.030  -2.159  0.00  0.00    -0.491 OA
ENDBRANCH   1  17
BRANCH   2  18
ATOM     18  O   LIG    1       -6.581   0.493  -4.219  0.00  0.00    -0.491 OA
ATOM     19  C   LIG    1       -5.776   0.199  -5.355  0.00  0.00    +0.277 C 
ENDBRANCH   2  18
BRANCH  10  20
ATOM     20  C   LIG    1        1.565  -0.000   0.054  0.00  0.00    +0.015 C 
BRANCH  20  21
ATOM     21  C   LIG    1        2.213   0.644   1.306  0.00  0.00    -0.016 C 
ATOM     22  C   LIG    1        1.737   0.006   2.626  0.00  0.00    +0.007 C 
ATOM     23  C   LIG    1        3.749   0.607   1.206  0.00  0.00    +0.007 C 
ENDBRANCH  20  21
ENDBRANCH  10  20
TORSDOF 4
