REMARK  Name = DB12874
REMARK                            x       y       z     vdW  Elec       q    Type
REMARK                         _______ _______ _______ _____ _____    ______ ____
ROOT
ATOM      1  C   LIG    1       -2.651  -0.732  -0.194  0.00  0.00    +0.035 A 
ATOM      2  C   LIG    1       -1.859  -1.883  -0.335  0.00  0.00    +0.024 A 
ATOM      3  C   LIG    1       -0.471  -1.781  -0.313  0.00  0.00    +0.012 A 
ATOM      4  C   LIG    1        0.153  -0.539  -0.146  0.00  0.00    +0.002 A 
ATOM      5  C   LIG    1       -0.642   0.602   0.010  0.00  0.00    +0.012 A 
ATOM      6  C   LIG    1       -2.031   0.505  -0.011  0.00  0.00    +0.024 A 
ENDROOT
BRANCH   4   7
ATOM      7  C   LIG    1        1.651  -0.415  -0.138  0.00  0.00    +0.090 A 
ATOM      8  N   LIG    1        2.436  -1.475  -0.300  0.00  0.00    -0.221 NA
ATOM      9  C   LIG    1        3.664  -1.015  -0.266  0.00  0.00    +0.179 A 
ATOM     10  S   LIG    1        5.290  -1.637  -0.400  0.00  0.00    -0.049 S 
ATOM     11  C   LIG    1        5.963  -0.017  -0.199  0.00  0.00    +0.043 A 
ATOM     12  C   LIG    1        7.299   0.404  -0.195  0.00  0.00    +0.062 A 
ATOM     13  C   LIG    1        7.569   1.773  -0.019  0.00  0.00    +0.122 A 
ATOM     14  C   LIG    1        6.515   2.675   0.154  0.00  0.00    +0.048 A 
ATOM     15  C   LIG    1        5.173   2.284   0.155  0.00  0.00    +0.031 A 
ATOM     16  C   LIG    1        4.918   0.921  -0.029  0.00  0.00    +0.063 A 
ATOM     17  N   LIG    1        3.720   0.340  -0.074  0.00  0.00    -0.293 N 
ATOM     18  C   LIG    1        2.407   0.755   0.020  0.00  0.00    +0.122 A 
BRANCH  13  19
ATOM     19  O   LIG    1        8.839   2.315  -0.008  0.00  0.00    -0.491 OA
BRANCH  19  20
ATOM     20  C   LIG    1        9.970   1.464  -0.187  0.00  0.00    +0.244 C 
BRANCH  20  21
ATOM     21  C   LIG    1       11.266   2.300  -0.170  0.00  0.00    +0.125 C 
BRANCH  21  22
ATOM     22  N   LIG    1       11.434   3.120   1.036  0.00  0.00    -0.295 NA
ATOM     23  C   LIG    1       12.571   4.037   0.875  0.00  0.00    +0.112 C 
ATOM     24  C   LIG    1       12.810   4.879   2.147  0.00  0.00    +0.175 C 
ATOM     25  O   LIG    1       12.960   4.025   3.275  0.00  0.00    -0.377 OA
ATOM     26  C   LIG    1       11.807   3.222   3.500  0.00  0.00    +0.175 C 
ATOM     27  C   LIG    1       11.533   2.329   2.271  0.00  0.00    +0.112 C 
ENDBRANCH  21  22
ENDBRANCH  20  21
ENDBRANCH  19  20
ENDBRANCH  13  19
ENDBRANCH   4   7
BRANCH   1  31
ATOM     28  N   LIG    1       -6.195  -1.267  -0.391  0.00  0.00    -0.251 N 
ATOM     29  H   LIG    1       -6.327  -0.327  -0.048  0.00  0.00    +0.158 HD
ATOM     30  C   LIG    1       -4.925  -1.696  -0.555  0.00  0.00    +0.309 C 
ATOM     31  N   LIG    1       -4.060  -0.720  -0.205  0.00  0.00    -0.269 N 
ATOM     32  H   LIG    1       -4.467   0.169   0.045  0.00  0.00    +0.156 HD
ATOM     33  O   LIG    1       -4.608  -2.811  -0.971  0.00  0.00    -0.252 OA
BRANCH  28  37
ATOM     34  C   LIG    1       -9.517  -2.439  -0.852  0.00  0.00    +0.144 A 
ATOM     35  O   LIG    1       -8.785  -3.525  -1.214  0.00  0.00    -0.357 OA
ATOM     36  N   LIG    1       -7.430  -3.223  -1.085  0.00  0.00    -0.063 NA
ATOM     37  C   LIG    1       -7.361  -1.976  -0.655  0.00  0.00    +0.169 A 
ATOM     38  C   LIG    1       -8.636  -1.439  -0.491  0.00  0.00    +0.092 A 
BRANCH  34  40
ATOM     39  C   LIG    1      -11.711  -1.250  -0.481  0.00  0.00    +0.019 C 
ATOM     40  C   LIG    1      -11.037  -2.569  -0.926  0.00  0.00    +0.023 C 
ATOM     41  C   LIG    1      -11.458  -2.884  -2.379  0.00  0.00    +0.019 C 
ATOM     42  C   LIG    1      -11.503  -3.711   0.004  0.00  0.00    +0.019 C 
ENDBRANCH  34  40
ENDBRANCH  28  37
ENDBRANCH   1  31
TORSDOF 8
