REMARK  Name = DB12666
REMARK                            x       y       z     vdW  Elec       q    Type
REMARK                         _______ _______ _______ _____ _____    ______ ____
ROOT
ATOM      1  N   LIG    1        2.093   1.393  -0.383  0.00  0.00    -0.268 N 
ATOM      2  C   LIG    1        2.546   2.171  -1.407  0.00  0.00    +0.332 A 
ATOM      3  O   LIG    1        2.555   1.899  -2.610  0.00  0.00    -0.246 OA
ATOM      4  N   LIG    1        2.985   3.315  -0.812  0.00  0.00    -0.292 N 
ATOM      5  C   LIG    1        3.553   4.432  -1.561  0.00  0.00    +0.154 C 
ATOM      6  C   LIG    1        2.808   3.256   0.551  0.00  0.00    +0.107 A 
ATOM      7  C   LIG    1        3.063   4.117   1.617  0.00  0.00    +0.142 A 
ATOM      8  N   LIG    1        2.761   3.747   2.895  0.00  0.00    -0.233 NA
ATOM      9  C   LIG    1        2.205   2.506   3.081  0.00  0.00    +0.162 A 
ATOM     10  N   LIG    1        1.934   1.619   2.074  0.00  0.00    -0.208 NA
ATOM     11  C   LIG    1        2.251   2.044   0.824  0.00  0.00    +0.165 A 
ENDROOT
BRANCH   9  12
ATOM     12  C   LIG    1        1.868   2.086   4.487  0.00  0.00    +0.019 A 
ATOM     13  C   LIG    1        2.104   2.942   5.578  0.00  0.00    +0.011 A 
ATOM     14  C   LIG    1        1.794   2.555   6.879  0.00  0.00    +0.001 A 
ATOM     15  C   LIG    1        1.241   1.301   7.112  0.00  0.00    +0.000 A 
ATOM     16  C   LIG    1        0.997   0.433   6.054  0.00  0.00    +0.001 A 
ATOM     17  C   LIG    1        1.308   0.824   4.755  0.00  0.00    +0.011 A 
ENDBRANCH   9  12
BRANCH   1  18
ATOM     18  C   LIG    1        1.506   0.058  -0.593  0.00  0.00    +0.224 C 
BRANCH  18  20
ATOM     19  N   LIG    1       -0.595  -1.166   0.012  0.00  0.00    -0.296 N 
ATOM     20  C   LIG    1       -0.001   0.035  -0.224  0.00  0.00    +0.236 C 
ATOM     21  O   LIG    1       -0.628   1.097  -0.160  0.00  0.00    -0.274 OA
BRANCH  19  23
ATOM     22  C   LIG    1        0.819  -2.740   1.399  0.00  0.00    +0.024 C 
ATOM     23  C   LIG    1        0.144  -2.440   0.047  0.00  0.00    +0.105 C 
ENDBRANCH  19  23
BRANCH  19  24
ATOM     24  C   LIG    1       -2.008  -1.256   0.427  0.00  0.00    +0.142 C 
BRANCH  24  25
ATOM     25  C   LIG    1       -2.227  -1.394   1.930  0.00  0.00    -0.030 A 
ATOM     26  C   LIG    1       -1.832  -0.372   2.799  0.00  0.00    +0.005 A 
ATOM     27  C   LIG    1       -2.041  -0.505   4.169  0.00  0.00    +0.000 A 
ATOM     28  C   LIG    1       -2.643  -1.658   4.667  0.00  0.00    +0.000 A 
ATOM     29  C   LIG    1       -3.045  -2.677   3.806  0.00  0.00    +0.000 A 
ATOM     30  C   LIG    1       -2.842  -2.543   2.435  0.00  0.00    +0.005 A 
ENDBRANCH  24  25
ENDBRANCH  19  24
ENDBRANCH  18  20
ENDBRANCH   1  18
TORSDOF 6
