REMARK  Name = DB12527
REMARK                            x       y       z     vdW  Elec       q    Type
REMARK                         _______ _______ _______ _____ _____    ______ ____
ROOT
ATOM      1  N   LIG    1        1.325  -0.606  -0.196  0.00  0.00    -0.330 N 
ATOM      2  C   LIG    1        2.212  -0.328  -1.328  0.00  0.00    +0.090 C 
ATOM      3  C   LIG    1        3.656  -0.622  -0.902  0.00  0.00    -0.051 C 
ATOM      4  N   LIG    1        4.419   0.493  -0.187  0.00  0.00    +0.382 N 
ATOM      5  H   LIG    1        5.388   0.544  -0.469  0.00  0.00    -0.085 HD
ATOM      6  H   LIG    1        3.944   1.384  -0.227  0.00  0.00    -0.085 HD
ATOM      7  C   LIG    1        4.219  -0.240   1.136  0.00  0.00    -0.079 C 
ATOM      8  C   LIG    1        3.548  -1.411   0.394  0.00  0.00    -0.023 C 
ATOM      9  C   LIG    1        2.043  -1.596   0.608  0.00  0.00    +0.105 C 
ENDROOT
BRANCH   1  17
ATOM     10  C   LIG    1       -0.878  -0.909   0.836  0.00  0.00    +0.047 A 
ATOM     11  C   LIG    1       -2.249  -0.643   0.853  0.00  0.00    +0.079 A 
ATOM     12 CL   LIG    1       -3.235  -1.335   2.095  0.00  0.00    -0.080 Cl
ATOM     13  C   LIG    1       -2.784   0.183  -0.144  0.00  0.00    +0.148 A 
ATOM     14 CL   LIG    1       -4.474   0.548  -0.176  0.00  0.00    -0.060 Cl
ATOM     15  N   LIG    1       -2.012   0.728  -1.117  0.00  0.00    -0.240 NA
ATOM     16  C   LIG    1       -0.683   0.456  -1.115  0.00  0.00    +0.135 A 
ATOM     17  C   LIG    1       -0.058  -0.362  -0.162  0.00  0.00    +0.049 A 
ENDBRANCH   1  17
TORSDOF 1
