REMARK  Name = DB12850
REMARK                            x       y       z     vdW  Elec       q    Type
REMARK                         _______ _______ _______ _____ _____    ______ ____
ROOT
ATOM      1  O   LIG    1        0.141  -0.192   0.297  0.00  0.00    -0.491 OA
ENDROOT
BRANCH   1   7
ATOM      2  C   LIG    1       -1.947   0.950   0.510  0.00  0.00    +0.036 A 
ATOM      3  C   LIG    1       -2.694   2.118   0.740  0.00  0.00    +0.135 A 
ATOM      4  C   LIG    1       -2.026   3.325   0.984  0.00  0.00    +0.047 A 
ATOM      5  C   LIG    1       -0.637   3.369   1.024  0.00  0.00    +0.007 A 
ATOM      6  C   LIG    1        0.102   2.210   0.806  0.00  0.00    +0.046 A 
ATOM      7  C   LIG    1       -0.540   0.988   0.541  0.00  0.00    +0.127 A 
BRANCH   2   8
ATOM      8  C   LIG    1       -2.677  -0.365   0.218  0.00  0.00    +0.042 C 
BRANCH   8  10
ATOM      9  C   LIG    1       -1.905  -0.641  -2.234  0.00  0.00    +0.004 C 
ATOM     10  C   LIG    1       -3.088  -0.528  -1.260  0.00  0.00    +0.001 C 
ENDBRANCH   8  10
ENDBRANCH   2   8
BRANCH   3  11
ATOM     11  O   LIG    1       -4.072   2.053   0.661  0.00  0.00    -0.455 OA
BRANCH  11  12
ATOM     12  C   LIG    1       -4.874   2.870   1.432  0.00  0.00    +0.142 A 
ATOM     13  C   LIG    1       -5.883   3.653   0.833  0.00  0.00    +0.101 A 
ATOM     14  C   LIG    1       -6.712   4.434   1.655  0.00  0.00    +0.018 A 
ATOM     15  C   LIG    1       -6.546   4.441   3.039  0.00  0.00    +0.001 A 
ATOM     16  C   LIG    1       -5.551   3.663   3.625  0.00  0.00    +0.004 A 
ATOM     17  C   LIG    1       -4.723   2.878   2.826  0.00  0.00    +0.047 A 
BRANCH  13  18
ATOM     18  C   LIG    1       -6.082   3.675  -0.652  0.00  0.00    +0.340 C 
ATOM     19  O   LIG    1       -7.217   3.371  -1.089  0.00  0.00    -0.245 OA
BRANCH  18  20
ATOM     20  O   LIG    1       -5.108   4.013  -1.365  0.00  0.00    -0.477 OA
ATOM     21  H   LIG    1       -4.287   4.226  -0.965  0.00  0.00    +0.295 HD
ENDBRANCH  18  20
ENDBRANCH  13  18
ENDBRANCH  11  12
ENDBRANCH   3  11
ENDBRANCH   1   7
BRANCH   1  22
ATOM     22  C   LIG    1        1.565  -0.196   0.260  0.00  0.00    +0.232 C 
BRANCH  22  23
ATOM     23  C   LIG    1        2.031  -1.611  -0.114  0.00  0.00    +0.082 C 
BRANCH  23  24
ATOM     24  C   LIG    1        3.559  -1.771  -0.125  0.00  0.00    +0.232 C 
BRANCH  24  25
ATOM     25  O   LIG    1        4.122  -0.884  -1.087  0.00  0.00    -0.491 OA
BRANCH  25  26
ATOM     26  C   LIG    1        5.494  -0.835  -1.257  0.00  0.00    +0.127 A 
ATOM     27  C   LIG    1        6.003   0.089  -2.182  0.00  0.00    -0.005 A 
ATOM     28  C   LIG    1        7.381   0.174  -2.399  0.00  0.00    +0.019 A 
ATOM     29  C   LIG    1        8.284  -0.643  -1.707  0.00  0.00    +0.024 A 
ATOM     30  C   LIG    1        7.769  -1.569  -0.784  0.00  0.00    +0.128 A 
ATOM     31  C   LIG    1        6.395  -1.659  -0.564  0.00  0.00    +0.092 A 
BRANCH  29  32
ATOM     32  C   LIG    1        9.746  -0.506  -1.972  0.00  0.00    -0.014 A 
ATOM     33  C   LIG    1       10.649  -0.323  -0.917  0.00  0.00    +0.011 A 
ATOM     34  C   LIG    1       12.013  -0.191  -1.168  0.00  0.00    +0.039 A 
ATOM     35  C   LIG    1       12.481  -0.240  -2.478  0.00  0.00    +0.123 A 
ATOM     36  F   LIG    1       13.805  -0.113  -2.723  0.00  0.00    -0.205 F 
ATOM     37  C   LIG    1       11.596  -0.418  -3.538  0.00  0.00    +0.039 A 
ATOM     38  C   LIG    1       10.233  -0.548  -3.284  0.00  0.00    +0.011 A 
ENDBRANCH  29  32
BRANCH  27  39
ATOM     39  C   LIG    1        5.068   1.014  -2.958  0.00  0.00    +0.035 C 
ATOM     40  C   LIG    1        4.535   2.175  -2.105  0.00  0.00    +0.009 C 
ENDBRANCH  27  39
BRANCH  30  41
ATOM     41  O   LIG    1        8.590  -2.421  -0.090  0.00  0.00    -0.506 OA
ATOM     42  H   LIG    1        8.109  -3.008   0.497  0.00  0.00    +0.292 HD
ENDBRANCH  30  41
ENDBRANCH  25  26
ENDBRANCH  24  25
ENDBRANCH  23  24
ENDBRANCH  22  23
ENDBRANCH   1  22
TORSDOF 15
