REMARK  Name = DB12542
REMARK                            x       y       z     vdW  Elec       q    Type
REMARK                         _______ _______ _______ _____ _____    ______ ____
ROOT
ATOM      1  N   LIG    1       -3.983  -0.027   0.006  0.00  0.00    -0.247 N 
ATOM      2  N   LIG    1       -4.329   1.276  -0.049  0.00  0.00    -0.177 NA
ATOM      3  C   LIG    1       -3.220   1.970   0.001  0.00  0.00    +0.146 A 
ATOM      4  C   LIG    1       -2.066   1.123   0.046  0.00  0.00    +0.060 A 
ATOM      5  C   LIG    1       -0.660   1.261   0.090  0.00  0.00    +0.054 A 
ATOM      6  C   LIG    1        0.108   0.076   0.169  0.00  0.00    +0.078 A 
ATOM      7  C   LIG    1       -0.568  -1.155   0.168  0.00  0.00    +0.128 A 
ATOM      8  N   LIG    1       -1.913  -1.317   0.105  0.00  0.00    -0.235 NA
ATOM      9  C   LIG    1       -2.609  -0.181   0.055  0.00  0.00    +0.160 A 
ENDROOT
BRANCH   6  10
ATOM     10  C   LIG    1        1.613   0.038   0.226  0.00  0.00    +0.252 A 
ATOM     11  O   LIG    1        2.244  -1.162   0.130  0.00  0.00    -0.420 OA
ATOM     12  C   LIG    1        3.555  -0.822   0.191  0.00  0.00    +0.223 A 
ATOM     13  N   LIG    1        3.740   0.466   0.322  0.00  0.00    -0.112 NA
ATOM     14  N   LIG    1        2.467   1.029   0.344  0.00  0.00    -0.107 NA
BRANCH  12  15
ATOM     15  C   LIG    1        4.596  -1.918   0.110  0.00  0.00    +0.142 C 
BRANCH  15  16
ATOM     16  C   LIG    1        4.398  -2.764  -1.131  0.00  0.00    +0.021 A 
ATOM     17  S   LIG    1        5.163  -2.381  -2.651  0.00  0.00    -0.077 S 
ATOM     18  C   LIG    1        4.408  -3.758  -3.378  0.00  0.00    +0.076 A 
ATOM     19  C   LIG    1        4.601  -4.151  -4.824  0.00  0.00    +0.073 C 
ATOM     20  N   LIG    1        3.650  -4.429  -2.552  0.00  0.00    -0.249 NA
ATOM     21  C   LIG    1        3.625  -3.913  -1.337  0.00  0.00    +0.049 A 
ATOM     22  C   LIG    1        2.747  -4.636  -0.338  0.00  0.00    +0.066 C 
ENDBRANCH  15  16
ENDBRANCH  12  15
ENDBRANCH   6  10
BRANCH   1  24
ATOM     23  C   LIG    1       -5.353  -1.363  -1.544  0.00  0.00    +0.029 C 
ATOM     24  C   LIG    1       -5.020  -1.050  -0.077  0.00  0.00    +0.142 C 
ENDBRANCH   1  24
BRANCH   5  25
ATOM     25  N   LIG    1       -0.047   2.527   0.082  0.00  0.00    -0.340 N 
ATOM     26  H   LIG    1        0.939   2.495   0.300  0.00  0.00    +0.146 HD
BRANCH  25  27
ATOM     27  C   LIG    1       -0.355   3.441  -1.017  0.00  0.00    +0.075 C 
ATOM     28  C   LIG    1        0.099   4.860  -0.621  0.00  0.00    +0.050 C 
ATOM     29  C   LIG    1        0.003   5.818  -1.824  0.00  0.00    +0.161 C 
ATOM     30  O   LIG    1        0.746   5.295  -2.925  0.00  0.00    -0.380 OA
ATOM     31  C   LIG    1        0.261   4.041  -3.405  0.00  0.00    +0.161 C 
ATOM     32  C   LIG    1        0.372   2.974  -2.298  0.00  0.00    +0.050 C 
ENDBRANCH  25  27
ENDBRANCH   5  25
TORSDOF 6
