REMARK  Name = DB12297
REMARK                            x       y       z     vdW  Elec       q    Type
REMARK                         _______ _______ _______ _____ _____    ______ ____
ROOT
ATOM      1  C   LIG    1       -1.831   4.175   0.553  0.00  0.00    +0.051 C 
ATOM      2  C   LIG    1       -2.596   2.932   1.022  0.00  0.00    +0.029 A 
ATOM      3  C   LIG    1       -3.933   2.998   1.488  0.00  0.00    +0.129 A 
ATOM      4  N   LIG    1       -4.552   1.894   1.998  0.00  0.00    -0.217 NA
ATOM      5  C   LIG    1       -3.851   0.737   2.008  0.00  0.00    +0.130 A 
ATOM      6  C   LIG    1       -4.545  -0.492   2.563  0.00  0.00    +0.088 C 
ATOM      7  N   LIG    1       -2.587   0.569   1.559  0.00  0.00    -0.217 NA
ATOM      8  C   LIG    1       -1.956   1.673   1.071  0.00  0.00    +0.127 A 
ENDROOT
BRANCH   3   9
ATOM      9  N   LIG    1       -4.701   4.164   1.421  0.00  0.00    -0.315 N 
ATOM     10  C   LIG    1       -4.955   4.739   0.087  0.00  0.00    +0.107 C 
ATOM     11  C   LIG    1       -5.277   6.245   0.147  0.00  0.00    +0.024 C 
ATOM     12  C   LIG    1       -6.502   6.538   1.040  0.00  0.00    +0.014 C 
ATOM     13  C   LIG    1       -6.351   5.805   2.390  0.00  0.00    +0.024 C 
ATOM     14  C   LIG    1       -5.933   4.327   2.220  0.00  0.00    +0.107 C 
BRANCH  12  15
ATOM     15  C   LIG    1       -6.854   8.023   1.198  0.00  0.00    +0.046 C 
ATOM     16  N   LIG    1       -7.930   8.333   1.953  0.00  0.00    -0.288 NA
ATOM     17  H   LIG    1       -8.438   7.574   2.383  0.00  0.00    +0.124 HD
ATOM     18  C   LIG    1       -8.365   9.589   2.181  0.00  0.00    +0.110 C 
ATOM     19  N   LIG    1       -9.484   9.793   3.034  0.00  0.00    -0.296 NA
ATOM     20  H   LIG    1       -9.951   8.999   3.448  0.00  0.00    +0.124 HD
ATOM     21  C   LIG    1      -10.006  11.133   3.352  0.00  0.00    +0.083 C 
ATOM     22  C   LIG    1       -8.895  12.204   3.186  0.00  0.00    +0.016 C 
ATOM     23  C   LIG    1       -8.169  12.102   1.823  0.00  0.00    +0.012 C 
ATOM     24  C   LIG    1       -7.674  10.672   1.598  0.00  0.00    +0.018 C 
ATOM     25  C   LIG    1       -6.546  10.393   0.816  0.00  0.00    +0.008 C 
ATOM     26  C   LIG    1       -6.135   9.074   0.612  0.00  0.00    +0.020 C 
ENDBRANCH  12  15
ENDBRANCH   3   9
BRANCH   8  27
ATOM     27  N   LIG    1       -0.631   1.541   0.614  0.00  0.00    -0.327 N 
ATOM     28  H   LIG    1       -0.180   2.338   0.189  0.00  0.00    +0.148 HD
BRANCH  27  29
ATOM     29  C   LIG    1        0.056   0.253   0.551  0.00  0.00    +0.134 C 
BRANCH  29  30
ATOM     30  C   LIG    1        1.519   0.350   0.059  0.00  0.00    +0.201 C 
BRANCH  30  31
ATOM     31  N   LIG    1        2.082  -1.013  -0.129  0.00  0.00    -0.175 NA
ATOM     32  H   LIG    1        2.316  -1.533   0.721  0.00  0.00    +0.149 HD
BRANCH  31  33
ATOM     33  S   LIG    1        2.993  -1.396  -1.587  0.00  0.00    +0.059 S 
ATOM     34  O   LIG    1        2.231  -0.911  -2.744  0.00  0.00    -0.153 OA
ATOM     35  O   LIG    1        3.406  -2.800  -1.492  0.00  0.00    -0.153 OA
BRANCH  33  36
ATOM     36  C   LIG    1        4.485  -0.416  -1.456  0.00  0.00    +0.105 A 
ATOM     37  C   LIG    1        5.326  -0.608  -0.360  0.00  0.00    +0.032 A 
ATOM     38  C   LIG    1        6.478   0.161  -0.227  0.00  0.00    +0.047 A 
ATOM     39  C   LIG    1        6.798   1.128  -1.193  0.00  0.00    +0.120 A 
ATOM     40  C   LIG    1        5.950   1.307  -2.287  0.00  0.00    +0.047 A 
ATOM     41  C   LIG    1        4.796   0.541  -2.422  0.00  0.00    +0.032 A 
BRANCH  39  42
ATOM     42  O   LIG    1        7.917   1.938  -1.142  0.00  0.00    -0.495 OA
ATOM     43  C   LIG    1        8.814   1.813  -0.043  0.00  0.00    +0.277 C 
ENDBRANCH  39  42
ENDBRANCH  33  36
ENDBRANCH  31  33
ENDBRANCH  30  31
BRANCH  30  44
ATOM     44  C   LIG    1        2.418   1.116   1.073  0.00  0.00    +0.325 C 
ATOM     45  O   LIG    1        2.666   2.313   0.800  0.00  0.00    -0.249 OA
BRANCH  44  46
ATOM     46  O   LIG    1        2.829   0.537   2.108  0.00  0.00    -0.479 OA
ATOM     47  H   LIG    1        2.612  -0.361   2.260  0.00  0.00    +0.295 HD
ENDBRANCH  44  46
ENDBRANCH  30  44
ENDBRANCH  29  30
ENDBRANCH  27  29
ENDBRANCH   8  27
TORSDOF 11
