REMARK  Name = DB12855
REMARK                            x       y       z     vdW  Elec       q    Type
REMARK                         _______ _______ _______ _____ _____    ______ ____
ROOT
ATOM      1  C   LIG    1       -1.889   1.236   0.031  0.00  0.00    +0.061 A 
ATOM      2  C   LIG    1       -2.515   0.013   0.421  0.00  0.00    +0.123 A 
ATOM      3  N   LIG    1       -1.831  -1.068   0.562  0.00  0.00    -0.178 NA
ATOM      4  C   LIG    1       -0.439  -1.127   0.325  0.00  0.00    +0.351 A 
ATOM      5  O   LIG    1        0.227  -2.161   0.421  0.00  0.00    -0.244 OA
ATOM      6  N   LIG    1        0.201   0.055  -0.045  0.00  0.00    -0.284 N 
ATOM      7  C   LIG    1       -0.566   1.194  -0.183  0.00  0.00    +0.095 A 
ENDROOT
BRANCH   6   8
ATOM      8  C   LIG    1        1.671  -0.002  -0.301  0.00  0.00    +0.177 C 
ATOM      9  S   LIG    1        2.708  -0.209   1.160  0.00  0.00    -0.100 S 
ATOM     10  C   LIG    1        2.828   1.581   1.407  0.00  0.00    +0.203 C 
ATOM     11  O   LIG    1        2.491   2.227   0.180  0.00  0.00    -0.361 OA
ATOM     12  C   LIG    1        2.324   1.276  -0.865  0.00  0.00    +0.197 C 
BRANCH  10  13
ATOM     13  C   LIG    1        1.893   2.062   2.531  0.00  0.00    +0.198 C 
BRANCH  13  14
ATOM     14  O   LIG    1        2.129   3.423   2.825  0.00  0.00    -0.392 OA
ATOM     15  H   LIG    1        1.540   3.690   3.535  0.00  0.00    +0.210 HD
ENDBRANCH  13  14
ENDBRANCH  10  13
ENDBRANCH   6   8
BRANCH   2  16
ATOM     16  N   LIG    1       -3.838   0.031   0.641  0.00  0.00    -0.343 N 
ATOM     17  H   LIG    1       -4.319  -0.812   0.918  0.00  0.00    +0.144 HD
ATOM     18  H   LIG    1       -4.365   0.885   0.532  0.00  0.00    +0.144 HD
ENDBRANCH   2  16
TORSDOF 4
