REMARK  Name = DB12944
REMARK                            x       y       z     vdW  Elec       q    Type
REMARK                         _______ _______ _______ _____ _____    ______ ____
ROOT
ATOM      1  C   LIG    1        1.377   0.002   0.000  0.00  0.00    +0.124 A 
ATOM      2  C   LIG    1        2.075   1.210   0.000  0.00  0.00    +0.091 A 
ATOM      3  C   LIG    1        3.470   1.210   0.000  0.00  0.00    +0.124 A 
ATOM      4  C   LIG    1        4.169   0.001   0.000  0.00  0.00    +0.091 A 
ATOM      5  C   LIG    1        3.470  -1.208   0.000  0.00  0.00    +0.124 A 
ATOM      6  C   LIG    1        2.074  -1.207   0.000  0.00  0.00    +0.091 A 
ENDROOT
BRANCH   1   7
ATOM      7  O   LIG    1        0.008   0.002   0.000  0.00  0.00    -0.507 OA
ATOM      8  H   LIG    1       -0.364   0.887   0.000  0.00  0.00    +0.292 HD
ENDBRANCH   1   7
BRANCH   3   9
ATOM      9  O   LIG    1        4.154   2.396   0.000  0.00  0.00    -0.507 OA
ATOM     10  H   LIG    1        5.107   2.278   0.000  0.00  0.00    +0.292 HD
ENDBRANCH   3   9
BRANCH   5  11
ATOM     11  O   LIG    1        4.153  -2.394   0.000  0.00  0.00    -0.507 OA
ATOM     12  H   LIG    1        5.106  -2.277   0.000  0.00  0.00    +0.292 HD
ENDBRANCH   5  11
TORSDOF 3
