REMARK  Name = DB12423
REMARK                            x       y       z     vdW  Elec       q    Type
REMARK                         _______ _______ _______ _____ _____    ______ ____
ROOT
ATOM      1  C   LIG    1        3.171   1.359  -2.229  0.00  0.00    +0.204 C 
ENDROOT
BRANCH   1   2
ATOM      2  O   LIG    1        2.701   0.703  -3.395  0.00  0.00    -0.284 OA
BRANCH   2   3
ATOM      3  P   LIG    1        2.688   1.609  -4.862  0.00  0.00    +0.475 P 
ATOM      4  O   LIG    1        2.197   0.708  -5.972  0.00  0.00    -0.227 OA
BRANCH   3   5
ATOM      5  O   LIG    1        3.981   2.394  -4.953  0.00  0.00    -0.302 OA
ATOM      6  H   LIG    1        4.707   1.795  -5.186  0.00  0.00    +0.222 HD
ENDBRANCH   3   5
BRANCH   3   7
ATOM      7  O   LIG    1        1.400   2.683  -4.447  0.00  0.00    -0.284 OA
BRANCH   7   8
ATOM      8  C   LIG    1        1.483   4.009  -4.936  0.00  0.00    +0.206 C 
BRANCH   8   9
ATOM      9  C   LIG    1        0.318   4.847  -4.378  0.00  0.00    +0.174 C 
ATOM     10  O   LIG    1        0.402   4.766  -2.958  0.00  0.00    -0.349 OA
ATOM     11  C   LIG    1        0.513   6.022  -2.358  0.00  0.00    +0.226 C 
ATOM     12  C   LIG    1        1.097   6.932  -3.430  0.00  0.00    +0.087 C 
ATOM     13  C   LIG    1        0.431   6.352  -4.674  0.00  0.00    +0.177 C 
BRANCH  11  14
ATOM     14  N   LIG    1        1.256   5.914  -1.109  0.00  0.00    -0.274 N 
ATOM     15  C   LIG    1        0.721   6.430   0.056  0.00  0.00    +0.331 A 
ATOM     16  O   LIG    1       -0.313   7.092   0.155  0.00  0.00    -0.246 OA
ATOM     17  N   LIG    1        1.456   6.140   1.176  0.00  0.00    -0.275 N 
ATOM     18  H   LIG    1        1.074   6.494   2.041  0.00  0.00    +0.173 HD
ATOM     19  C   LIG    1        2.627   5.447   1.306  0.00  0.00    +0.257 A 
ATOM     20  O   LIG    1        3.150   5.268   2.405  0.00  0.00    -0.267 OA
ATOM     21  C   LIG    1        3.160   4.969   0.031  0.00  0.00    +0.030 A 
ATOM     22  C   LIG    1        4.469   4.190   0.042  0.00  0.00    +0.051 C 
ATOM     23  C   LIG    1        2.456   5.236  -1.090  0.00  0.00    +0.101 A 
ENDBRANCH  11  14
BRANCH  13  24
ATOM     24  N   LIG    1       -0.892   6.930  -4.855  0.00  0.00    -0.106 NA
ATOM     25  N   LIG    1       -1.123   7.415  -5.962  0.00  0.00    -0.197 NA
ATOM     26  N   LIG    1       -1.469   7.831  -6.965  0.00  0.00    -0.128 NA
ATOM     27  H   LIG    1       -1.788   8.760  -7.028  0.00  0.00    +0.228 HD
ENDBRANCH  13  24
ENDBRANCH   8   9
ENDBRANCH   7   8
ENDBRANCH   3   7
ENDBRANCH   2   3
ENDBRANCH   1   2
BRANCH   1  28
ATOM     28  C   LIG    1        2.598   0.674  -0.967  0.00  0.00    +0.154 C 
BRANCH  28  29
ATOM     29  C   LIG    1        1.061   0.745  -0.897  0.00  0.00    +0.103 C 
BRANCH  29  30
ATOM     30  S   LIG    1        0.392   2.407  -0.606  0.00  0.00    -0.158 S 
BRANCH  30  31
ATOM     31  C   LIG    1       -1.341   2.170  -1.095  0.00  0.00    +0.069 C 
BRANCH  31  32
ATOM     32  C   LIG    1       -2.231   3.421  -1.002  0.00  0.00    +0.011 C 
BRANCH  32  33
ATOM     33  C   LIG    1       -2.310   4.034   0.409  0.00  0.00    +0.001 C 
BRANCH  33  34
ATOM     34  C   LIG    1       -3.200   5.288   0.472  0.00  0.00    +0.000 C 
BRANCH  34  35
ATOM     35  C   LIG    1       -3.215   5.932   1.870  0.00  0.00    +0.000 C 
BRANCH  35  36
ATOM     36  C   LIG    1       -4.082   7.200   1.940  0.00  0.00    +0.000 C 
BRANCH  36  37
ATOM     37  C   LIG    1       -4.111   7.825   3.346  0.00  0.00    -0.000 C 
BRANCH  37  38
ATOM     38  C   LIG    1       -5.005   9.074   3.433  0.00  0.00    -0.000 C 
BRANCH  38  39
ATOM     39  C   LIG    1       -5.037   9.689   4.844  0.00  0.00    -0.000 C 
BRANCH  39  40
ATOM     40  C   LIG    1       -5.954  10.921   4.943  0.00  0.00    -0.000 C 
BRANCH  40  42
ATOM     41  C   LIG    1       -6.915  12.748   6.464  0.00  0.00    +0.004 C 
ATOM     42  C   LIG    1       -5.987  11.530   6.356  0.00  0.00    -0.003 C 
ENDBRANCH  40  42
ENDBRANCH  39  40
ENDBRANCH  38  39
ENDBRANCH  37  38
ENDBRANCH  36  37
ENDBRANCH  35  36
ENDBRANCH  34  35
ENDBRANCH  33  34
ENDBRANCH  32  33
ENDBRANCH  31  32
ENDBRANCH  30  31
ENDBRANCH  29  30
ENDBRANCH  28  29
BRANCH  28  43
ATOM     43  O   LIG    1        2.955  -0.706  -0.891  0.00  0.00    -0.373 OA
BRANCH  43  44
ATOM     44  C   LIG    1        4.335  -0.987  -0.685  0.00  0.00    +0.160 C 
BRANCH  44  45
ATOM     45  C   LIG    1        4.490  -2.489  -0.405  0.00  0.00    +0.028 C 
BRANCH  45  46
ATOM     46  C   LIG    1        5.954  -2.908  -0.165  0.00  0.00    +0.002 C 
BRANCH  46  47
ATOM     47  C   LIG    1        6.135  -4.380   0.255  0.00  0.00    +0.000 C 
BRANCH  47  48
ATOM     48  C   LIG    1        5.763  -5.405  -0.838  0.00  0.00    +0.000 C 
BRANCH  48  49
ATOM     49  C   LIG    1        5.938  -6.877  -0.413  0.00  0.00    -0.000 C 
BRANCH  49  50
ATOM     50  C   LIG    1        7.399  -7.302  -0.172  0.00  0.00    -0.000 C 
BRANCH  50  51
ATOM     51  C   LIG    1        7.542  -8.803   0.149  0.00  0.00    -0.000 C 
BRANCH  51  52
ATOM     52  C   LIG    1        8.982  -9.249   0.468  0.00  0.00    -0.003 C 
ATOM     53  C   LIG    1        9.957  -9.134  -0.715  0.00  0.00    +0.004 C 
ENDBRANCH  51  52
ENDBRANCH  50  51
ENDBRANCH  49  50
ENDBRANCH  48  49
ENDBRANCH  47  48
ENDBRANCH  46  47
ENDBRANCH  45  46
ENDBRANCH  44  45
ENDBRANCH  43  44
ENDBRANCH  28  43
ENDBRANCH   1  28
TORSDOF 32
