REMARK  Name = DB12694
REMARK                            x       y       z     vdW  Elec       q    Type
REMARK                         _______ _______ _______ _____ _____    ______ ____
ROOT
ATOM      1  N   LIG    1        2.442   1.231  -1.442  0.00  0.00    -0.260 N 
ATOM      2  C   LIG    1        2.370   1.440  -2.802  0.00  0.00    +0.231 C 
ATOM      3  O   LIG    1        1.863   0.651  -3.604  0.00  0.00    -0.274 OA
ATOM      4  C   LIG    1        2.929   2.807  -3.283  0.00  0.00    +0.148 C 
ATOM      5  C   LIG    1        2.022   3.891  -2.717  0.00  0.00    +0.151 A 
ATOM      6  N   LIG    1        1.156   4.653  -3.341  0.00  0.00    -0.133 NA
ATOM      7  N   LIG    1        0.498   5.404  -2.375  0.00  0.00    -0.129 NA
ATOM      8  C   LIG    1        0.964   5.038  -1.203  0.00  0.00    +0.169 A 
ATOM      9  N   LIG    1        1.977   4.105  -1.357  0.00  0.00    -0.277 N 
ATOM     10  C   LIG    1        2.808   3.465  -0.408  0.00  0.00    +0.071 A 
ATOM     11  C   LIG    1        3.384   4.257   0.594  0.00  0.00    +0.028 A 
ATOM     12  C   LIG    1        4.213   3.692   1.556  0.00  0.00    +0.002 A 
ATOM     13  C   LIG    1        4.476   2.329   1.522  0.00  0.00    +0.002 A 
ATOM     14  C   LIG    1        3.916   1.537   0.523  0.00  0.00    +0.025 A 
ATOM     15  C   LIG    1        3.095   2.073  -0.485  0.00  0.00    +0.061 A 
ENDROOT
BRANCH   8  16
ATOM     16  C   LIG    1        0.424   5.554   0.092  0.00  0.00    +0.020 A 
ATOM     17  C   LIG    1        0.183   4.677   1.156  0.00  0.00    +0.011 A 
ATOM     18  C   LIG    1       -0.333   5.158   2.356  0.00  0.00    +0.001 A 
ATOM     19  C   LIG    1       -0.615   6.515   2.491  0.00  0.00    +0.000 A 
ATOM     20  C   LIG    1       -0.390   7.395   1.435  0.00  0.00    +0.001 A 
ATOM     21  C   LIG    1        0.127   6.914   0.234  0.00  0.00    +0.011 A 
ENDBRANCH   8  16
BRANCH   1  22
ATOM     22  C   LIG    1        1.840  -0.036  -0.948  0.00  0.00    +0.209 C 
BRANCH  22  24
ATOM     23  N   LIG    1       -0.222  -0.815   0.254  0.00  0.00    -0.293 N 
ATOM     24  C   LIG    1        0.401   0.201  -0.410  0.00  0.00    +0.234 C 
ATOM     25  O   LIG    1       -0.141   1.297  -0.585  0.00  0.00    -0.274 OA
BRANCH  23  27
ATOM     26  C   LIG    1       -2.704  -0.667  -0.155  0.00  0.00    +0.028 C 
ATOM     27  C   LIG    1       -1.561  -0.674   0.880  0.00  0.00    +0.070 C 
ATOM     28  C   LIG    1       -1.685   0.461   1.923  0.00  0.00    +0.028 C 
ENDBRANCH  23  27
BRANCH  23  29
ATOM     29  C   LIG    1        0.393  -2.148   0.411  0.00  0.00    +0.143 C 
BRANCH  29  30
ATOM     30  C   LIG    1        1.324  -2.292   1.613  0.00  0.00    -0.030 A 
ATOM     31  C   LIG    1        0.848  -2.100   2.914  0.00  0.00    +0.005 A 
ATOM     32  C   LIG    1        1.711  -2.231   3.998  0.00  0.00    +0.000 A 
ATOM     33  C   LIG    1        3.046  -2.563   3.782  0.00  0.00    +0.000 A 
ATOM     34  C   LIG    1        3.525  -2.770   2.490  0.00  0.00    +0.000 A 
ATOM     35  C   LIG    1        2.662  -2.640   1.406  0.00  0.00    +0.005 A 
ENDBRANCH  29  30
ENDBRANCH  23  29
ENDBRANCH  22  24
ENDBRANCH   1  22
BRANCH   4  36
ATOM     36  C   LIG    1        3.112   2.925  -4.824  0.00  0.00    +0.058 C 
BRANCH  36  37
ATOM     37  C   LIG    1        4.231   2.055  -5.371  0.00  0.00    -0.021 A 
ATOM     38  C   LIG    1        4.096   0.839  -6.133  0.00  0.00    +0.003 A 
ATOM     39  C   LIG    1        2.998   0.100  -6.607  0.00  0.00    +0.010 A 
ATOM     40  C   LIG    1        3.224  -1.069  -7.330  0.00  0.00    +0.001 A 
ATOM     41  C   LIG    1        4.516  -1.515  -7.592  0.00  0.00    +0.002 A 
ATOM     42  C   LIG    1        5.639  -0.817  -7.147  0.00  0.00    +0.026 A 
ATOM     43  C   LIG    1        5.411   0.356  -6.420  0.00  0.00    +0.047 A 
ATOM     44  N   LIG    1        6.290   1.252  -5.854  0.00  0.00    -0.360 N 
ATOM     45  H   LIG    1        7.300   1.217  -5.866  0.00  0.00    +0.165 HD
ATOM     46  C   LIG    1        5.593   2.255  -5.235  0.00  0.00    +0.087 A 
ENDBRANCH  36  37
ENDBRANCH   4  36
TORSDOF 8
