REMARK  Name = DB12265
REMARK                            x       y       z     vdW  Elec       q    Type
REMARK                         _______ _______ _______ _____ _____    ______ ____
ROOT
ATOM      1  C   LIG    1       -3.152   0.858   0.113  0.00  0.00    +0.152 C 
ATOM      2  N   LIG    1       -2.004   1.759   0.042  0.00  0.00    -0.310 N 
ATOM      3  C   LIG    1       -0.668   1.398   0.010  0.00  0.00    +0.149 A 
ATOM      4  N   LIG    1        0.136   2.437  -0.057  0.00  0.00    -0.235 NA
ATOM      5  C   LIG    1       -0.654   3.490  -0.069  0.00  0.00    +0.164 A 
ATOM      6  C   LIG    1       -1.997   3.143  -0.009  0.00  0.00    +0.211 A 
ENDROOT
BRANCH   6   7
ATOM      7  N   LIG    1       -3.168   3.974   0.001  0.00  0.00    +0.025 N 
ATOM      8  O   LIG    1       -4.281   3.460   0.052  0.00  0.00    -0.128 OA
BRANCH   7   9
ATOM      9  O   LIG    1       -2.979   5.185  -0.042  0.00  0.00    -0.395 OA
ATOM     10  H   LIG    1       -2.106   5.522  -0.079  0.00  0.00    +0.329 HD
ENDBRANCH   7   9
ENDBRANCH   6   7
BRANCH   3  11
ATOM     11  C   LIG    1       -0.193  -0.048   0.043  0.00  0.00    +0.303 C 
BRANCH  11  12
ATOM     12  O   LIG    1        1.233  -0.103   0.026  0.00  0.00    -0.484 OA
BRANCH  12  13
ATOM     13  C   LIG    1        1.864  -1.332   0.005  0.00  0.00    +0.121 A 
ATOM     14  C   LIG    1        1.193  -2.566   0.002  0.00  0.00    +0.047 A 
ATOM     15  C   LIG    1        1.914  -3.757  -0.025  0.00  0.00    +0.018 A 
ATOM     16  C   LIG    1        3.307  -3.720  -0.050  0.00  0.00    +0.008 A 
ATOM     17  C   LIG    1        3.984  -2.502  -0.043  0.00  0.00    +0.018 A 
ATOM     18  C   LIG    1        3.260  -1.314  -0.016  0.00  0.00    +0.047 A 
BRANCH  16  19
ATOM     19  S   LIG    1        4.221  -5.226  -0.091  0.00  0.00    -0.129 S 
ATOM     20  C   LIG    1        4.190  -5.726  -1.832  0.00  0.00    +0.090 C 
ENDBRANCH  16  19
ENDBRANCH  12  13
ENDBRANCH  11  12
ENDBRANCH   3  11
TORSDOF 6
