REMARK  Name = DB12468
REMARK                            x       y       z     vdW  Elec       q    Type
REMARK                         _______ _______ _______ _____ _____    ______ ____
ROOT
ATOM      1  C   LIG    1        1.483   0.221  -0.172  0.00  0.00    +0.127 A 
ATOM      2  N   LIG    1        2.193   1.370   0.012  0.00  0.00    -0.217 NA
ATOM      3  C   LIG    1        3.548   1.317   0.007  0.00  0.00    +0.126 A 
ATOM      4  C   LIG    1        4.263   0.118  -0.185  0.00  0.00    +0.023 A 
ATOM      5  C   LIG    1        3.512  -1.049  -0.382  0.00  0.00    +0.015 A 
ATOM      6  C   LIG    1        2.118  -1.004  -0.381  0.00  0.00    +0.044 A 
ENDROOT
BRANCH   4   7
ATOM      7  C   LIG    1        5.753   0.049  -0.168  0.00  0.00    +0.007 A 
ATOM      8  C   LIG    1        6.498  -0.366  -1.287  0.00  0.00    +0.049 A 
ATOM      9 CL   LIG    1        5.735  -0.786  -2.784  0.00  0.00    -0.083 Cl
ATOM     10  C   LIG    1        7.890  -0.427  -1.218  0.00  0.00    +0.024 A 
ATOM     11  C   LIG    1        8.556  -0.077  -0.046  0.00  0.00    +0.047 A 
ATOM     12  C   LIG    1        7.834   0.343   1.081  0.00  0.00    +0.121 A 
ATOM     13  C   LIG    1        6.441   0.398   1.001  0.00  0.00    +0.055 A 
BRANCH  12  14
ATOM     14  O   LIG    1        8.404   0.711   2.285  0.00  0.00    -0.495 OA
ATOM     15  C   LIG    1        9.821   0.674   2.420  0.00  0.00    +0.277 C 
ENDBRANCH  12  14
ENDBRANCH   4   7
BRANCH   1  17
ATOM     16  C   LIG    1       -0.774   1.180   0.223  0.00  0.00    +0.267 C 
ATOM     17  N   LIG    1        0.077   0.210  -0.186  0.00  0.00    -0.265 N 
ATOM     18  H   LIG    1       -0.338  -0.659  -0.487  0.00  0.00    +0.157 HD
ATOM     19  O   LIG    1       -0.437   2.278   0.668  0.00  0.00    -0.268 OA
BRANCH  16  25
ATOM     20  C   LIG    1       -3.277   3.121   0.287  0.00  0.00    +0.173 C 
ATOM     21  N   LIG    1       -3.257   1.668   0.144  0.00  0.00    -0.262 N 
ATOM     22  N   LIG    1       -4.436   1.028   0.080  0.00  0.00    -0.179 NA
ATOM     23  C   LIG    1       -4.130  -0.243  -0.006  0.00  0.00    +0.135 A 
ATOM     24  C   LIG    1       -2.751  -0.452   0.017  0.00  0.00    +0.054 A 
ATOM     25  C   LIG    1       -2.168   0.812   0.093  0.00  0.00    +0.123 A 
ENDBRANCH  16  25
ENDBRANCH   1  17
BRANCH   3  26
ATOM     26  N   LIG    1        4.197   2.539   0.185  0.00  0.00    -0.343 N 
ATOM     27  H   LIG    1        3.645   3.377   0.305  0.00  0.00    +0.144 HD
ATOM     28  H   LIG    1        5.206   2.574   0.177  0.00  0.00    +0.144 HD
ENDBRANCH   3  26
TORSDOF 5
