REMARK  Name = DB12084
REMARK                            x       y       z     vdW  Elec       q    Type
REMARK                         _______ _______ _______ _____ _____    ______ ____
ROOT
ATOM      1  C   LIG    1       -2.486   0.253   0.819  0.00  0.00    +0.172 A 
ATOM      2  N   LIG    1       -3.123  -0.949   0.771  0.00  0.00    -0.217 NA
ATOM      3  C   LIG    1       -2.348  -2.059   0.834  0.00  0.00    +0.227 A 
ATOM      4  N   LIG    1       -0.998  -2.082   0.937  0.00  0.00    -0.198 NA
ATOM      5  C   LIG    1       -0.369  -0.872   0.984  0.00  0.00    +0.263 A 
ATOM      6  C   LIG    1       -1.088   0.335   0.940  0.00  0.00    +0.222 A 
ENDROOT
BRANCH   1   7
ATOM      7  N   LIG    1       -3.224   1.450   0.765  0.00  0.00    -0.295 N 
ATOM      8  H   LIG    1       -2.634   2.265   0.852  0.00  0.00    +0.154 HD
BRANCH   7  15
ATOM      9  C   LIG    1       -3.978   4.252   0.973  0.00  0.00    +0.067 C 
ATOM     10  C   LIG    1       -4.978   3.130   0.716  0.00  0.00    +0.061 A 
ATOM     11  N   LIG    1       -6.268   3.539   0.591  0.00  0.00    -0.232 NA
ATOM     12  C   LIG    1       -7.216   2.599   0.355  0.00  0.00    +0.176 A 
ATOM     13  C   LIG    1       -6.926   1.240   0.246  0.00  0.00    +0.049 A 
ATOM     14  C   LIG    1       -5.598   0.833   0.379  0.00  0.00    +0.028 A 
ATOM     15  C   LIG    1       -4.587   1.779   0.622  0.00  0.00    +0.054 A 
BRANCH  12  16
ATOM     16  S   LIG    1       -8.888   3.221   0.218  0.00  0.00    +0.011 S 
ATOM     17  C   LIG    1       -9.271   3.834   1.961  0.00  0.00    +0.202 C 
ATOM     18  O   LIG    1       -9.765   2.081  -0.076  0.00  0.00    -0.168 OA
ATOM     19  O   LIG    1       -8.846   4.377  -0.685  0.00  0.00    -0.168 OA
ENDBRANCH  12  16
ENDBRANCH   7  15
ENDBRANCH   1   7
BRANCH   6  20
ATOM     20  O   LIG    1       -0.453   1.556   0.977  0.00  0.00    -0.488 OA
ATOM     21  C   LIG    1        0.077   1.914   2.247  0.00  0.00    +0.277 C 
ENDBRANCH   6  20
BRANCH   5  22
ATOM     22  O   LIG    1        1.013  -0.828   1.066  0.00  0.00    -0.470 OA
BRANCH  22  23
ATOM     23  C   LIG    1        1.794  -2.027   1.067  0.00  0.00    +0.178 C 
ATOM     24  C   LIG    1        1.969  -2.605  -0.348  0.00  0.00    +0.063 C 
ATOM     25  C   LIG    1        2.806  -3.902  -0.335  0.00  0.00    +0.114 C 
ATOM     26  N   LIG    1        4.084  -3.650   0.383  0.00  0.00    -0.267 N 
ATOM     27  C   LIG    1        5.334  -4.007  -0.164  0.00  0.00    +0.403 C 
ATOM     28  O   LIG    1        6.428  -3.801   0.369  0.00  0.00    -0.226 OA
ATOM     29  C   LIG    1        4.068  -2.979   1.705  0.00  0.00    +0.114 C 
ATOM     30  C   LIG    1        3.190  -1.712   1.622  0.00  0.00    +0.063 C 
BRANCH  27  31
ATOM     31  O   LIG    1        5.209  -4.630  -1.371  0.00  0.00    -0.448 OA
BRANCH  31  32
ATOM     32  C   LIG    1        6.336  -5.119  -2.101  0.00  0.00    +0.172 C 
ATOM     33  C   LIG    1        6.837  -6.455  -1.517  0.00  0.00    +0.052 C 
ATOM     34  C   LIG    1        5.909  -5.264  -3.570  0.00  0.00    +0.052 C 
ENDBRANCH  31  32
ENDBRANCH  27  31
ENDBRANCH  22  23
ENDBRANCH   5  22
TORSDOF 8
