REMARK  Name = DB12057
REMARK                            x       y       z     vdW  Elec       q    Type
REMARK                         _______ _______ _______ _____ _____    ______ ____
ROOT
ATOM      1  C   LIG    1       -0.433   1.547  -0.122  0.00  0.00    +0.012 C 
ATOM      2  C   LIG    1        0.029   0.064  -0.068  0.00  0.00    -0.014 C 
ATOM      3  C   LIG    1       -0.479  -0.632   1.252  0.00  0.00    +0.008 C 
ATOM      4  C   LIG    1       -0.061  -0.005   2.587  0.00  0.00    +0.097 A 
ATOM      5  O   LIG    1        1.226   0.384   2.812  0.00  0.00    -0.461 OA
ATOM      6  C   LIG    1        1.263   0.867   4.086  0.00  0.00    +0.135 A 
ATOM      7  C   LIG    1        2.389   1.389   4.734  0.00  0.00    +0.047 A 
ATOM      8  C   LIG    1        2.212   1.834   6.045  0.00  0.00    +0.004 A 
ATOM      9  C   LIG    1        0.968   1.758   6.676  0.00  0.00    +0.001 A 
ATOM     10  C   LIG    1       -0.150   1.233   6.021  0.00  0.00    +0.012 A 
ATOM     11  C   LIG    1       -0.007   0.777   4.700  0.00  0.00    +0.023 A 
ATOM     12  C   LIG    1       -0.859   0.190   3.712  0.00  0.00    -0.002 A 
ATOM     13  C   LIG    1       -2.333  -0.168   3.730  0.00  0.00    +0.020 C 
ATOM     14  C   LIG    1       -2.634  -1.179   2.597  0.00  0.00    -0.073 C 
ATOM     15  N   LIG    1       -2.046  -0.673   1.255  0.00  0.00    +0.387 N 
ATOM     16  H   LIG    1       -2.360   0.281   1.146  0.00  0.00    -0.081 HD
ATOM     17  C   LIG    1       -2.597  -1.454   0.040  0.00  0.00    -0.078 C 
ATOM     18  C   LIG    1       -2.093  -0.812  -1.264  0.00  0.00    -0.018 C 
ATOM     19  C   LIG    1       -0.557  -0.724  -1.279  0.00  0.00    +0.006 C 
ENDROOT
BRANCH   2  20
ATOM     20  C   LIG    1        1.579  -0.034  -0.175  0.00  0.00    +0.164 C 
BRANCH  20  21
ATOM     21  O   LIG    1        2.033  -1.371   0.011  0.00  0.00    -0.382 OA
ATOM     22  C   LIG    1        3.446  -1.502  -0.030  0.00  0.00    +0.194 C 
ENDBRANCH  20  21
ENDBRANCH   2  20
TORSDOF 2
