REMARK  Name = DB12558
REMARK                            x       y       z     vdW  Elec       q    Type
REMARK                         _______ _______ _______ _____ _____    ______ ____
ROOT
ATOM      1  C   LIG    1       -2.383  -0.351   0.054  0.00  0.00    +0.059 A 
ATOM      2  C   LIG    1       -3.714  -0.798   0.169  0.00  0.00    +0.132 A 
ATOM      3  N   LIG    1       -4.748   0.060  -0.066  0.00  0.00    -0.220 NA
ATOM      4  C   LIG    1       -4.437   1.334  -0.418  0.00  0.00    +0.225 A 
ATOM      5  N   LIG    1       -3.200   1.877  -0.566  0.00  0.00    -0.218 NA
ATOM      6  C   LIG    1       -1.067  -0.897   0.214  0.00  0.00    +0.041 A 
ATOM      7  C   LIG    1       -0.143   0.111  -0.054  0.00  0.00    +0.049 A 
ATOM      8  N   LIG    1       -0.861   1.246  -0.378  0.00  0.00    -0.339 N 
ATOM      9  H   LIG    1       -0.410   2.118  -0.617  0.00  0.00    +0.167 HD
ATOM     10  C   LIG    1       -2.215   1.006  -0.321  0.00  0.00    +0.144 A 
ENDROOT
BRANCH   7  11
ATOM     11  C   LIG    1        1.355   0.077  -0.035  0.00  0.00    -0.002 A 
ATOM     12  C   LIG    1        2.107   1.172  -0.482  0.00  0.00    +0.010 A 
ATOM     13  C   LIG    1        3.498   1.129  -0.456  0.00  0.00    +0.002 A 
ATOM     14  C   LIG    1        4.152  -0.007   0.024  0.00  0.00    -0.064 A 
ATOM     15  C   LIG    1        3.411  -1.106   0.460  0.00  0.00    +0.002 A 
ATOM     16  C   LIG    1        2.019  -1.062   0.433  0.00  0.00    +0.010 A 
BRANCH  14  17
ATOM     17  C   LIG    1        5.674  -0.053   0.047  0.00  0.00    -0.043 C 
BRANCH  17  18
ATOM     18  N   LIG    1        6.307   0.647   1.272  0.00  0.00    +0.384 N 
ATOM     19  H   LIG    1        5.938   1.585   1.340  0.00  0.00    -0.081 HD
ATOM     20  C   LIG    1        5.978  -0.094   2.591  0.00  0.00    -0.063 C 
ATOM     21  C   LIG    1        6.654   0.659   3.762  0.00  0.00    +0.066 C 
ATOM     22  N   LIG    1        8.114   0.741   3.605  0.00  0.00    -0.306 NA
ATOM     23  C   LIG    1        8.437   1.448   2.358  0.00  0.00    +0.066 C 
ATOM     24  C   LIG    1        7.843   0.752   1.108  0.00  0.00    -0.063 C 
BRANCH  22  25
ATOM     25  C   LIG    1        8.857  -0.515   3.768  0.00  0.00    +0.081 C 
ATOM     26  C   LIG    1        8.688  -1.138   5.164  0.00  0.00    +0.020 C 
ENDBRANCH  22  25
ENDBRANCH  17  18
ENDBRANCH  14  17
ENDBRANCH   7  11
BRANCH   2  27
ATOM     27  N   LIG    1       -3.958  -2.129   0.554  0.00  0.00    -0.322 N 
ATOM     28  H   LIG    1       -3.194  -2.744   0.316  0.00  0.00    +0.148 HD
BRANCH  27  29
ATOM     29  C   LIG    1       -5.294  -2.721   0.423  0.00  0.00    +0.099 C 
ATOM     30  C   LIG    1       -6.200  -2.404   1.627  0.00  0.00    +0.033 C 
BRANCH  29  31
ATOM     31  C   LIG    1       -5.217  -4.225   0.142  0.00  0.00    -0.028 A 
ATOM     32  C   LIG    1       -6.176  -4.803  -0.698  0.00  0.00    +0.005 A 
ATOM     33  C   LIG    1       -6.155  -6.172  -0.951  0.00  0.00    +0.000 A 
ATOM     34  C   LIG    1       -5.180  -6.968  -0.357  0.00  0.00    +0.000 A 
ATOM     35  C   LIG    1       -4.228  -6.409   0.492  0.00  0.00    +0.000 A 
ATOM     36  C   LIG    1       -4.250  -5.041   0.747  0.00  0.00    +0.005 A 
ENDBRANCH  29  31
ENDBRANCH  27  29
ENDBRANCH   2  27
TORSDOF 7
