REMARK  Name = DB12761
REMARK                            x       y       z     vdW  Elec       q    Type
REMARK                         _______ _______ _______ _____ _____    ______ ____
ROOT
ATOM      1  C   LIG    1        1.143  -0.587  -0.052  0.00  0.00    +0.166 C 
ENDROOT
BRANCH   1   3
ATOM      2  C   LIG    1       -0.845   0.877  -0.116  0.00  0.00    +0.133 C 
ATOM      3  N   LIG    1       -0.334  -0.488   0.119  0.00  0.00    -0.286 N 
ATOM      4  C   LIG    1       -1.141  -1.589   0.266  0.00  0.00    +0.287 C 
ATOM      5  O   LIG    1       -0.759  -2.753   0.395  0.00  0.00    -0.266 OA
BRANCH   4   6
ATOM      6  C   LIG    1       -2.704  -1.338   0.243  0.00  0.00    +0.248 C 
ATOM      7  O   LIG    1       -3.209  -1.075  -0.851  0.00  0.00    -0.282 OA
BRANCH   6   8
ATOM      8  C   LIG    1       -3.478  -1.448   1.530  0.00  0.00    +0.034 A 
ATOM      9  C   LIG    1       -2.865  -1.715   2.764  0.00  0.00    +0.061 A 
ATOM     10  C   LIG    1       -3.616  -1.815   3.946  0.00  0.00    +0.166 A 
ATOM     11  C   LIG    1       -5.004  -1.646   3.882  0.00  0.00    +0.204 A 
ATOM     12  C   LIG    1       -5.641  -1.362   2.668  0.00  0.00    +0.166 A 
ATOM     13  C   LIG    1       -4.867  -1.269   1.501  0.00  0.00    +0.061 A 
BRANCH  10  14
ATOM     14  O   LIG    1       -3.068  -2.075   5.189  0.00  0.00    -0.491 OA
ATOM     15  C   LIG    1       -1.663  -2.267   5.312  0.00  0.00    +0.277 C 
ENDBRANCH  10  14
BRANCH  11  16
ATOM     16  O   LIG    1       -5.751  -1.731   5.033  0.00  0.00    -0.488 OA
ATOM     17  C   LIG    1       -6.206  -3.044   5.331  0.00  0.00    +0.277 C 
ENDBRANCH  11  16
BRANCH  12  18
ATOM     18  O   LIG    1       -7.014  -1.191   2.701  0.00  0.00    -0.491 OA
ATOM     19  C   LIG    1       -7.712  -0.886   1.499  0.00  0.00    +0.277 C 
ENDBRANCH  12  18
ENDBRANCH   6   8
ENDBRANCH   4   6
ENDBRANCH   1   3
BRANCH   1  20
ATOM     20  C   LIG    1        1.507  -0.881  -1.532  0.00  0.00    +0.237 C 
ATOM     21  N   LIG    1        2.031   0.095  -2.330  0.00  0.00    -0.293 N 
ATOM     22  O   LIG    1        1.317  -2.037  -1.917  0.00  0.00    -0.274 OA
BRANCH  21  23
ATOM     23  C   LIG    1        2.490  -0.189  -3.714  0.00  0.00    +0.077 C 
BRANCH  23  24
ATOM     24  C   LIG    1        3.673  -1.195  -3.752  0.00  0.00    +0.027 C 
BRANCH  24  25
ATOM     25  C   LIG    1        4.540  -1.108  -5.020  0.00  0.00    +0.037 C 
BRANCH  25  26
ATOM     26  C   LIG    1        5.748  -2.030  -4.952  0.00  0.00    -0.044 A 
ATOM     27  C   LIG    1        5.732  -3.274  -5.592  0.00  0.00    +0.023 A 
ATOM     28  C   LIG    1        6.858  -4.093  -5.492  0.00  0.00    +0.111 A 
ATOM     29  N   LIG    1        7.970  -3.738  -4.798  0.00  0.00    -0.263 NA
ATOM     30  C   LIG    1        7.971  -2.529  -4.179  0.00  0.00    +0.111 A 
ATOM     31  C   LIG    1        6.887  -1.650  -4.231  0.00  0.00    +0.023 A 
ENDBRANCH  25  26
ENDBRANCH  24  25
ENDBRANCH  23  24
BRANCH  23  32
ATOM     32  C   LIG    1        1.339  -0.562  -4.689  0.00  0.00    +0.027 C 
BRANCH  32  33
ATOM     33  C   LIG    1        0.155   0.428  -4.687  0.00  0.00    +0.037 C 
BRANCH  33  34
ATOM     34  C   LIG    1       -0.994  -0.032  -5.569  0.00  0.00    -0.044 A 
ATOM     35  C   LIG    1       -2.028  -0.810  -5.034  0.00  0.00    +0.023 A 
ATOM     36  C   LIG    1       -3.064  -1.216  -5.877  0.00  0.00    +0.111 A 
ATOM     37  N   LIG    1       -3.115  -0.892  -7.194  0.00  0.00    -0.263 NA
ATOM     38  C   LIG    1       -2.104  -0.138  -7.699  0.00  0.00    +0.111 A 
ATOM     39  C   LIG    1       -1.031   0.309  -6.926  0.00  0.00    +0.023 A 
ENDBRANCH  33  34
ENDBRANCH  32  33
ENDBRANCH  23  32
ENDBRANCH  21  23
BRANCH  21  40
ATOM     40  C   LIG    1        2.194   1.501  -1.912  0.00  0.00    +0.143 C 
BRANCH  40  41
ATOM     41  C   LIG    1        3.529   1.849  -1.260  0.00  0.00    -0.030 A 
ATOM     42  C   LIG    1        4.730   1.701  -1.961  0.00  0.00    +0.005 A 
ATOM     43  C   LIG    1        5.937   2.047  -1.359  0.00  0.00    +0.000 A 
ATOM     44  C   LIG    1        5.941   2.555  -0.063  0.00  0.00    +0.000 A 
ATOM     45  C   LIG    1        4.748   2.720   0.638  0.00  0.00    +0.000 A 
ATOM     46  C   LIG    1        3.542   2.367   0.039  0.00  0.00    +0.005 A 
ENDBRANCH  40  41
ENDBRANCH  21  40
ENDBRANCH   1  20
BRANCH   1  47
ATOM     47  C   LIG    1        1.880  -1.534   0.948  0.00  0.00    +0.067 C 
BRANCH  47  48
ATOM     48  C   LIG    1        3.384  -1.276   1.036  0.00  0.00    -0.045 A 
ATOM     49  C   LIG    1        3.905  -0.548   2.109  0.00  0.00    +0.005 A 
ATOM     50  C   LIG    1        5.275  -0.309   2.189  0.00  0.00    +0.020 A 
ATOM     51  C   LIG    1        6.122  -0.793   1.194  0.00  0.00    +0.041 A 
ATOM     52 CL   LIG    1        7.816  -0.475   1.280  0.00  0.00    -0.084 Cl
ATOM     53  C   LIG    1        5.612  -1.530   0.127  0.00  0.00    +0.020 A 
ATOM     54  C   LIG    1        4.244  -1.778   0.054  0.00  0.00    +0.005 A 
ENDBRANCH  47  48
ENDBRANCH   1  47
TORSDOF 18
