REMARK  Name = DB12637
REMARK                            x       y       z     vdW  Elec       q    Type
REMARK                         _______ _______ _______ _____ _____    ______ ____
ROOT
ATOM      1  C   LIG    1       -2.810   0.745   0.593  0.00  0.00    +0.014 C 
ATOM      2  C   LIG    1       -2.009   1.524  -0.496  0.00  0.00    +0.001 C 
ATOM      3  C   LIG    1       -2.516   3.033  -0.616  0.00  0.00    +0.072 C 
ATOM      4  C   LIG    1       -3.429   3.009  -1.858  0.00  0.00    +0.035 C 
ATOM      5  C   LIG    1       -2.785   2.011  -2.809  0.00  0.00    +0.007 C 
ATOM      6  C   LIG    1       -2.307   0.876  -1.901  0.00  0.00    +0.005 C 
ATOM      7  C   LIG    1       -1.138   0.025  -2.493  0.00  0.00    +0.020 C 
ATOM      8  C   LIG    1       -1.523  -0.798  -3.750  0.00  0.00    +0.013 C 
ATOM      9  C   LIG    1       -2.208  -2.130  -3.420  0.00  0.00    +0.036 C 
ATOM     10  C   LIG    1       -1.294  -2.929  -2.502  0.00  0.00    -0.041 C 
ATOM     11  C   LIG    1       -1.099  -4.252  -2.714  0.00  0.00    +0.050 C 
ATOM     12  C   LIG    1       -0.236  -5.099  -1.895  0.00  0.00    +0.157 C 
ATOM     13  O   LIG    1       -0.161  -6.313  -2.071  0.00  0.00    -0.293 OA
ATOM     14  C   LIG    1        0.658  -4.354  -0.891  0.00  0.00    +0.083 C 
ATOM     15  C   LIG    1       -0.039  -3.112  -0.286  0.00  0.00    +0.043 C 
ATOM     16  C   LIG    1       -0.630  -2.225  -1.393  0.00  0.00    -0.044 C 
ATOM     17  C   LIG    1       -0.554  -0.865  -1.368  0.00  0.00    -0.055 C 
ATOM     18  C   LIG    1        0.059  -0.059  -0.200  0.00  0.00    +0.046 C 
ATOM     19  C   LIG    1       -0.480   1.397  -0.189  0.00  0.00    +0.022 C 
ENDROOT
BRANCH  18  20
ATOM     20  C   LIG    1        1.590  -0.083  -0.126  0.00  0.00    -0.040 A 
ATOM     21  C   LIG    1        2.366   0.025  -1.281  0.00  0.00    +0.006 A 
ATOM     22  C   LIG    1        3.755   0.001  -1.199  0.00  0.00    +0.023 A 
ATOM     23  C   LIG    1        4.409  -0.125   0.039  0.00  0.00    +0.029 A 
ATOM     24  C   LIG    1        3.611  -0.223   1.193  0.00  0.00    +0.023 A 
ATOM     25  C   LIG    1        2.222  -0.200   1.113  0.00  0.00    +0.006 A 
BRANCH  23  26
ATOM     26  N   LIG    1        5.830  -0.163   0.121  0.00  0.00    -0.336 N 
ATOM     27  C   LIG    1        6.495  -0.078   1.422  0.00  0.00    +0.129 C 
ATOM     28  C   LIG    1        6.643   0.161  -1.052  0.00  0.00    +0.129 C 
ENDBRANCH  23  26
ENDBRANCH  18  20
BRANCH   3  29
ATOM     29  O   LIG    1       -3.240   3.494   0.517  0.00  0.00    -0.388 OA
ATOM     30  H   LIG    1       -3.545   4.387   0.338  0.00  0.00    +0.210 HD
ENDBRANCH   3  29
BRANCH   3  31
ATOM     31  C   LIG    1       -1.383   4.109  -0.774  0.00  0.00    +0.037 C 
BRANCH  31  32
ATOM     32  C   LIG    1       -1.803   5.598  -0.885  0.00  0.00    +0.031 C 
BRANCH  32  33
ATOM     33  C   LIG    1       -0.594   6.542  -1.004  0.00  0.00    +0.156 C 
BRANCH  33  34
ATOM     34  O   LIG    1       -1.012   7.886  -1.105  0.00  0.00    -0.395 OA
ATOM     35  H   LIG    1       -0.234   8.444  -1.178  0.00  0.00    +0.209 HD
ENDBRANCH  33  34
ENDBRANCH  32  33
ENDBRANCH  31  32
ENDBRANCH   3  31
TORSDOF 7
