REMARK  Name = DB12537
REMARK                            x       y       z     vdW  Elec       q    Type
REMARK                         _______ _______ _______ _____ _____    ______ ____
ROOT
ATOM      1  C   LIG    1        5.383   2.755   2.447  0.00  0.00    +0.001 A 
ATOM      2  C   LIG    1        4.046   3.139   2.506  0.00  0.00    +0.010 A 
ATOM      3  C   LIG    1        3.014   2.190   2.472  0.00  0.00    -0.002 A 
ATOM      4  C   LIG    1        1.631   2.714   2.540  0.00  0.00    +0.011 C 
ATOM      5  C   LIG    1        0.456   2.061   2.529  0.00  0.00    +0.022 C 
ATOM      6  C   LIG    1        0.225   0.659   2.446  0.00  0.00    +0.130 C 
ATOM      7  N   LIG    1        1.009  -0.334   2.362  0.00  0.00    -0.190 NA
ATOM      8  N   LIG    1        2.414  -0.232   2.333  0.00  0.00    -0.237 N 
ATOM      9  H   LIG    1        2.789  -1.167   2.264  0.00  0.00    +0.174 HD
ATOM     10  C   LIG    1        3.349   0.819   2.376  0.00  0.00    +0.055 A 
ATOM     11  C   LIG    1        4.699   0.452   2.319  0.00  0.00    +0.025 A 
ATOM     12  C   LIG    1        5.710   1.408   2.354  0.00  0.00    +0.002 A 
ENDROOT
TORSDOF 0
