REMARK  Name = DB12446
REMARK                            x       y       z     vdW  Elec       q    Type
REMARK                         _______ _______ _______ _____ _____    ______ ____
ROOT
ATOM      1  C   LIG    1       -2.026   1.236  -0.080  0.00  0.00    +0.164 A 
ATOM      2  N   LIG    1       -2.792   0.106  -0.036  0.00  0.00    -0.210 NA
ATOM      3  C   LIG    1       -2.092  -1.033  -0.052  0.00  0.00    +0.144 A 
ATOM      4  N   LIG    1       -2.593  -2.316  -0.018  0.00  0.00    -0.346 N 
ATOM      5  H   LIG    1       -3.561  -2.601   0.025  0.00  0.00    +0.167 HD
ATOM      6  C   LIG    1       -1.552  -3.213  -0.051  0.00  0.00    +0.085 A 
ATOM      7  C   LIG    1       -0.351  -2.529  -0.107  0.00  0.00    +0.032 A 
ATOM      8  C   LIG    1       -0.675  -1.130  -0.109  0.00  0.00    +0.058 A 
ATOM      9  C   LIG    1        0.020   0.092  -0.149  0.00  0.00    +0.132 A 
ATOM     10  N   LIG    1       -0.664   1.269  -0.137  0.00  0.00    -0.212 NA
ENDROOT
BRANCH   1  14
ATOM     11  C   LIG    1       -4.085   5.033  -0.025  0.00  0.00    +0.000 A 
ATOM     12  C   LIG    1       -2.696   5.000  -0.015  0.00  0.00    +0.001 A 
ATOM     13  C   LIG    1       -2.034   3.775  -0.033  0.00  0.00    +0.011 A 
ATOM     14  C   LIG    1       -2.745   2.561  -0.062  0.00  0.00    +0.019 A 
ATOM     15  C   LIG    1       -4.150   2.628  -0.072  0.00  0.00    +0.011 A 
ATOM     16  C   LIG    1       -4.816   3.851  -0.054  0.00  0.00    +0.001 A 
ENDBRANCH   1  14
BRANCH   9  17
ATOM     17  N   LIG    1        1.425   0.085  -0.206  0.00  0.00    -0.326 N 
ATOM     18  H   LIG    1        1.886  -0.786   0.013  0.00  0.00    +0.148 HD
BRANCH  17  19
ATOM     19  C   LIG    1        2.212   1.311  -0.076  0.00  0.00    +0.072 C 
ATOM     20  C   LIG    1        3.588   1.095  -0.738  0.00  0.00    +0.025 C 
ATOM     21  C   LIG    1        4.493   2.333  -0.573  0.00  0.00    +0.033 C 
ATOM     22  C   LIG    1        4.623   2.783   0.901  0.00  0.00    +0.115 C 
ATOM     23  C   LIG    1        3.256   2.908   1.614  0.00  0.00    +0.033 C 
ATOM     24  C   LIG    1        2.373   1.661   1.421  0.00  0.00    +0.025 C 
BRANCH  22  25
ATOM     25  O   LIG    1        5.344   3.995   0.990  0.00  0.00    -0.392 OA
ATOM     26  H   LIG    1        4.852   4.677   0.526  0.00  0.00    +0.210 HD
ENDBRANCH  22  25
ENDBRANCH  17  19
ENDBRANCH   9  17
TORSDOF 4
