REMARK  Name = DB12825
REMARK                            x       y       z     vdW  Elec       q    Type
REMARK                         _______ _______ _______ _____ _____    ______ ____
ROOT
ATOM      1  C   LIG    1       -0.211  -0.136   0.040  0.00  0.00    +0.184 C 
ATOM      2  C   LIG    1       -0.756  -0.775   1.360  0.00  0.00    +0.058 C 
ATOM      3  C   LIG    1       -1.976  -0.112   2.089  0.00  0.00    +0.015 C 
ATOM      4  C   LIG    1       -2.218  -1.037   3.328  0.00  0.00    +0.018 C 
ATOM      5  C   LIG    1       -3.303  -0.094   1.224  0.00  0.00    +0.128 C 
ATOM      6  C   LIG    1       -3.300   0.758  -0.116  0.00  0.00    +0.022 C 
ATOM      7  C   LIG    1       -4.495   1.755  -0.225  0.00  0.00    +0.011 C 
ATOM      8  C   LIG    1       -3.096  -0.085  -1.442  0.00  0.00    -0.014 C 
ATOM      9  C   LIG    1       -2.113  -1.309  -1.337  0.00  0.00    +0.071 C 
ATOM     10  C   LIG    1       -2.626  -2.309  -2.410  0.00  0.00    +0.138 C 
ATOM     11  C   LIG    1       -4.077  -1.968  -2.733  0.00  0.00    +0.075 C 
ATOM     12  O   LIG    1       -1.998  -3.223  -2.938  0.00  0.00    -0.297 OA
ATOM     13  C   LIG    1       -4.414  -0.786  -1.831  0.00  0.00    +0.015 C 
ATOM     14  C   LIG    1       -2.639   0.843  -2.627  0.00  0.00    +0.008 C 
ATOM     15  C   LIG    1       -1.140   1.189  -2.607  0.00  0.00    +0.004 C 
ATOM     16  C   LIG    1       -0.273  -0.093  -2.568  0.00  0.00    -0.004 C 
ATOM     17  C   LIG    1        1.208   0.251  -2.856  0.00  0.00    +0.008 C 
ATOM     18  C   LIG    1       -0.564  -0.952  -1.271  0.00  0.00    +0.018 C 
ATOM     19  C   LIG    1        0.312  -2.247  -1.337  0.00  0.00    +0.016 C 
ENDROOT
BRANCH   5  20
ATOM     20  O   LIG    1       -4.393   0.274   2.063  0.00  0.00    -0.391 OA
ATOM     21  H   LIG    1       -4.241   1.166   2.382  0.00  0.00    +0.210 HD
ENDBRANCH   5  20
BRANCH   3  22
ATOM     22  C   LIG    1       -1.606   1.317   2.527  0.00  0.00    -0.025 C 
ATOM     23  C   LIG    1       -1.501   1.797   3.779  0.00  0.00    +0.004 C 
ENDBRANCH   3  22
BRANCH   1  24
ATOM     24  O   LIG    1        1.212   0.020   0.145  0.00  0.00    -0.460 OA
BRANCH  24  25
ATOM     25  C   LIG    1        1.803   1.060   0.781  0.00  0.00    +0.317 C 
ATOM     26  O   LIG    1        1.217   1.998   1.324  0.00  0.00    -0.250 OA
BRANCH  25  27
ATOM     27  C   LIG    1        3.332   0.934   0.722  0.00  0.00    +0.190 C 
BRANCH  27  28
ATOM     28  S   LIG    1        4.149   2.329   1.567  0.00  0.00    -0.144 S 
BRANCH  28  29
ATOM     29  C   LIG    1        5.912   1.873   1.429  0.00  0.00    +0.076 C 
ATOM     30  C   LIG    1        6.672   2.519   2.609  0.00  0.00    +0.018 C 
ATOM     31  C   LIG    1        8.188   2.258   2.539  0.00  0.00    +0.020 C 
ATOM     32  C   LIG    1        8.785   2.731   1.200  0.00  0.00    +0.053 C 
ATOM     33  C   LIG    1        8.062   2.048   0.020  0.00  0.00    +0.051 C 
ATOM     34  C   LIG    1        6.531   2.258   0.055  0.00  0.00    +0.129 C 
BRANCH  32  35
ATOM     35  N   LIG    1       10.225   2.571   1.141  0.00  0.00    -0.327 NA
ATOM     36  H   LIG    1       10.656   3.090   1.893  0.00  0.00    +0.118 HD
ATOM     37  H   LIG    1       10.578   2.962   0.279  0.00  0.00    +0.118 HD
ENDBRANCH  32  35
BRANCH  34  38
ATOM     38  O   LIG    1        5.946   1.559  -1.026  0.00  0.00    -0.391 OA
ATOM     39  H   LIG    1        6.099   0.620  -0.898  0.00  0.00    +0.210 HD
ENDBRANCH  34  38
ENDBRANCH  28  29
ENDBRANCH  27  28
ENDBRANCH  25  27
ENDBRANCH  24  25
ENDBRANCH   1  24
TORSDOF 9
