REMARK  Name = DB12367
REMARK                            x       y       z     vdW  Elec       q    Type
REMARK                         _______ _______ _______ _____ _____    ______ ____
ROOT
ATOM      1  C   LIG    1        1.514  -0.027  -0.068  0.00  0.00    -0.034 A 
ATOM      2  C   LIG    1        2.287   1.152   0.027  0.00  0.00    +0.004 A 
ATOM      3  C   LIG    1        3.685   1.065   0.062  0.00  0.00    +0.025 A 
ATOM      4  C   LIG    1        4.321  -0.178   0.007  0.00  0.00    +0.065 A 
ATOM      5  C   LIG    1        5.834  -0.272   0.051  0.00  0.00    +0.282 A 
ATOM      6  N   LIG    1        6.287  -1.575  -0.019  0.00  0.00    -0.159 N 
ATOM      7  C   LIG    1        5.562  -2.751  -0.097  0.00  0.00    +0.348 A 
ATOM      8  N   LIG    1        4.219  -2.567  -0.125  0.00  0.00    -0.306 N 
ATOM      9  H   LIG    1        3.671  -3.413  -0.183  0.00  0.00    +0.170 HD
ATOM     10  O   LIG    1        6.025  -3.893  -0.136  0.00  0.00    -0.245 OA
ATOM     11  O   LIG    1        6.570   0.717   0.142  0.00  0.00    -0.265 OA
ATOM     12  C   LIG    1        3.556  -1.341  -0.078  0.00  0.00    +0.056 A 
ATOM     13  C   LIG    1        2.166  -1.269  -0.113  0.00  0.00    +0.031 A 
ENDROOT
BRANCH   2  14
ATOM     14  C   LIG    1        1.698   2.521   0.128  0.00  0.00    +0.069 A 
ATOM     15  N   LIG    1        1.950   3.566  -0.739  0.00  0.00    -0.267 N 
ATOM     16  C   LIG    1        2.828   3.584  -1.901  0.00  0.00    +0.173 C 
ATOM     17  N   LIG    1        1.322   4.702  -0.398  0.00  0.00    -0.179 NA
ATOM     18  C   LIG    1        0.631   4.394   0.672  0.00  0.00    +0.135 A 
ATOM     19  C   LIG    1        0.816   3.064   1.051  0.00  0.00    +0.049 A 
ENDBRANCH   2  14
BRANCH   1  21
ATOM     20  C   LIG    1       -0.650  -0.525   1.176  0.00  0.00    +0.012 C 
ATOM     21  C   LIG    1       -0.022   0.000  -0.129  0.00  0.00    +0.014 C 
ATOM     22  C   LIG    1       -0.581  -0.727  -1.369  0.00  0.00    +0.012 C 
ENDBRANCH   1  21
BRANCH   6  23
ATOM     23  N   LIG    1        7.675  -1.737   0.051  0.00  0.00    -0.150 N 
ATOM     24  H   LIG    1        7.912  -2.513   0.675  0.00  0.00    +0.195 HD
BRANCH  23  25
ATOM     25  S   LIG    1        8.508  -1.816  -1.510  0.00  0.00    +0.053 S 
ATOM     26  C   LIG    1        9.898  -0.561  -1.301  0.00  0.00    +0.220 C 
ATOM     27  O   LIG    1        7.603  -1.335  -2.561  0.00  0.00    -0.154 OA
ATOM     28  O   LIG    1        9.119  -3.145  -1.607  0.00  0.00    -0.154 OA
ENDBRANCH  23  25
ENDBRANCH   6  23
TORSDOF 4
