REMARK  Name = DB12168
REMARK                            x       y       z     vdW  Elec       q    Type
REMARK                         _______ _______ _______ _____ _____    ______ ____
ROOT
ATOM      1  N   LIG    1        1.383   0.079   0.227  0.00  0.00    -0.269 N 
ATOM      2  H   LIG    1        1.795   0.887   0.669  0.00  0.00    +0.156 HD
ATOM      3  C   LIG    1        2.211  -0.739  -0.462  0.00  0.00    +0.221 C 
ATOM      4  O   LIG    1        1.850  -1.753  -1.067  0.00  0.00    -0.275 OA
ENDROOT
BRANCH   3   5
ATOM      5  C   LIG    1        3.702  -0.336  -0.469  0.00  0.00    +0.076 C 
ATOM      6  C   LIG    1        4.138  -0.083  -1.940  0.00  0.00    +0.017 C 
ATOM      7  C   LIG    1        5.645   0.260  -1.983  0.00  0.00    +0.054 C 
ATOM      8  C   LIG    1        6.541  -0.833  -1.338  0.00  0.00    +0.141 C 
ATOM      9  C   LIG    1        6.691  -2.071  -2.200  0.00  0.00    +0.028 A 
ATOM     10  C   LIG    1        5.803  -3.041  -2.684  0.00  0.00    +0.119 A 
ATOM     11  N   LIG    1        6.206  -4.079  -3.463  0.00  0.00    -0.263 NA
ATOM     12  C   LIG    1        7.526  -4.168  -3.776  0.00  0.00    +0.111 A 
ATOM     13  C   LIG    1        8.477  -3.245  -3.335  0.00  0.00    +0.035 A 
ATOM     14  C   LIG    1        8.030  -2.189  -2.537  0.00  0.00    +0.069 A 
ATOM     15  C   LIG    1        8.767  -1.069  -1.922  0.00  0.00    +0.341 C 
ATOM     16  O   LIG    1        9.964  -0.794  -1.966  0.00  0.00    -0.245 OA
ATOM     17  O   LIG    1        7.866  -0.319  -1.242  0.00  0.00    -0.450 OA
ATOM     18  C   LIG    1        6.037  -1.140   0.099  0.00  0.00    +0.054 C 
ATOM     19  C   LIG    1        4.533  -1.492   0.156  0.00  0.00    +0.017 C 
ENDBRANCH   3   5
BRANCH   1  23
ATOM     20  N   LIG    1       -2.001  -0.780   0.279  0.00  0.00    -0.235 N 
ATOM     21  C   LIG    1       -2.076   0.390   0.996  0.00  0.00    +0.116 A 
ATOM     22  C   LIG    1       -0.785   0.874   1.066  0.00  0.00    +0.065 A 
ATOM     23  C   LIG    1        0.008  -0.054   0.381  0.00  0.00    +0.147 A 
ATOM     24  N   LIG    1       -0.732  -1.048  -0.079  0.00  0.00    -0.151 NA
BRANCH  20  30
ATOM     25  C   LIG    1       -5.125  -2.754   0.607  0.00  0.00    +0.002 A 
ATOM     26  C   LIG    1       -5.177  -3.403  -0.626  0.00  0.00    +0.003 A 
ATOM     27  C   LIG    1       -4.176  -3.184  -1.571  0.00  0.00    +0.040 A 
ATOM     28  C   LIG    1       -3.118  -2.317  -1.290  0.00  0.00    +0.149 A 
ATOM     29  F   LIG    1       -2.176  -2.112  -2.240  0.00  0.00    -0.203 F 
ATOM     30  C   LIG    1       -3.057  -1.664  -0.045  0.00  0.00    +0.100 A 
ATOM     31  C   LIG    1       -4.072  -1.888   0.896  0.00  0.00    +0.031 A 
ENDBRANCH  20  30
ENDBRANCH   1  23
TORSDOF 3
