REMARK  Name = DB12671
REMARK                            x       y       z     vdW  Elec       q    Type
REMARK                         _______ _______ _______ _____ _____    ______ ____
ROOT
ATOM      1  C   LIG    1       -1.809  -0.501  -1.311  0.00  0.00    +0.090 C 
ATOM      2  C   LIG    1       -2.261  -1.379  -0.110  0.00  0.00    +0.101 C 
ATOM      3  O   LIG    1       -3.481  -2.062  -0.209  0.00  0.00    -0.368 OA
ATOM      4  C   LIG    1       -2.326  -2.865  -0.280  0.00  0.00    +0.196 C 
ATOM      5  C   LIG    1       -1.870  -0.806   1.270  0.00  0.00    +0.041 C 
ATOM      6  C   LIG    1       -0.359  -0.516   1.355  0.00  0.00    +0.050 C 
ATOM      7  C   LIG    1        0.115   0.363   0.177  0.00  0.00    +0.206 C 
ATOM      8  C   LIG    1       -0.267  -0.269  -1.194  0.00  0.00    +0.167 C 
ENDROOT
BRANCH   1  11
ATOM      9  C   LIG    1       -2.054   2.126  -1.800  0.00  0.00    +0.155 C 
ATOM     10  O   LIG    1       -2.682   1.778  -0.594  0.00  0.00    -0.364 OA
ATOM     11  C   LIG    1       -2.686   0.768  -1.577  0.00  0.00    +0.101 C 
ATOM     12  C   LIG    1       -4.059   0.449  -2.211  0.00  0.00    +0.045 C 
BRANCH   9  13
ATOM     13  C   LIG    1       -2.715   3.225  -2.653  0.00  0.00    +0.061 C 
BRANCH  13  17
ATOM     14  C   LIG    1       -2.700   6.826  -1.014  0.00  0.00    +0.038 C 
ATOM     15  C   LIG    1       -3.161   5.433  -1.408  0.00  0.00    -0.080 C 
ATOM     16  C   LIG    1       -4.533   5.055  -0.866  0.00  0.00    +0.038 C 
ATOM     17  C   LIG    1       -2.385   4.624  -2.160  0.00  0.00    -0.026 C 
ENDBRANCH  13  17
ENDBRANCH   9  13
ENDBRANCH   1  11
BRANCH   8  18
ATOM     18  O   LIG    1        0.448  -1.502  -1.315  0.00  0.00    -0.376 OA
ATOM     19  C   LIG    1        0.710  -1.941  -2.643  0.00  0.00    +0.194 C 
ENDBRANCH   8  18
BRANCH   7  20
ATOM     20  O   LIG    1        1.520   0.594   0.299  0.00  0.00    -0.456 OA
BRANCH  20  21
ATOM     21  C   LIG    1        2.133   1.658  -0.275  0.00  0.00    +0.332 C 
ATOM     22  O   LIG    1        1.557   2.529  -0.932  0.00  0.00    -0.246 OA
BRANCH  21  23
ATOM     23  C   LIG    1        3.571   1.649  -0.027  0.00  0.00    +0.092 C 
ATOM     24  C   LIG    1        4.391   2.635  -0.449  0.00  0.00    +0.015 C 
BRANCH  24  25
ATOM     25  C   LIG    1        5.856   2.703  -0.254  0.00  0.00    -0.025 A 
ATOM     26  C   LIG    1        6.512   3.904  -0.537  0.00  0.00    +0.011 A 
ATOM     27  C   LIG    1        7.888   4.019  -0.357  0.00  0.00    +0.046 A 
ATOM     28  C   LIG    1        8.635   2.926   0.107  0.00  0.00    +0.120 A 
ATOM     29  C   LIG    1        7.978   1.730   0.391  0.00  0.00    +0.046 A 
ATOM     30  C   LIG    1        6.602   1.615   0.214  0.00  0.00    +0.011 A 
BRANCH  28  31
ATOM     31  O   LIG    1       10.000   2.943   0.326  0.00  0.00    -0.494 OA
BRANCH  31  32
ATOM     32  C   LIG    1       10.785   4.079  -0.045  0.00  0.00    +0.210 C 
BRANCH  32  33
ATOM     33  C   LIG    1       10.990   4.209  -1.573  0.00  0.00    -0.038 C 
BRANCH  33  34
ATOM     34  N   LIG    1       11.408   2.866  -2.220  0.00  0.00    +0.378 N 
ATOM     35  H   LIG    1       10.710   2.184  -1.957  0.00  0.00    -0.082 HD
ATOM     36  C   LIG    1       12.770   2.343  -1.718  0.00  0.00    -0.096 C 
ATOM     37  C   LIG    1       11.389   2.956  -3.758  0.00  0.00    -0.096 C 
ENDBRANCH  33  34
ENDBRANCH  32  33
ENDBRANCH  31  32
ENDBRANCH  28  31
ENDBRANCH  24  25
ENDBRANCH  21  23
ENDBRANCH  20  21
ENDBRANCH   7  20
TORSDOF 12
