REMARK  Name = DB12130
REMARK                            x       y       z     vdW  Elec       q    Type
REMARK                         _______ _______ _______ _____ _____    ______ ____
ROOT
ATOM      1  C   LIG    1       -2.535  -0.077  -3.822  0.00  0.00    +0.161 A 
ATOM      2  C   LIG    1       -1.453   0.536  -3.176  0.00  0.00    +0.059 A 
ATOM      3  C   LIG    1       -1.303   1.921  -3.181  0.00  0.00    +0.008 A 
ATOM      4  C   LIG    1       -2.224   2.669  -3.920  0.00  0.00    +0.121 A 
ATOM      5  N   LIG    1       -3.255   2.104  -4.600  0.00  0.00    -0.236 NA
ATOM      6  C   LIG    1       -0.198   2.531  -2.389  0.00  0.00    +0.044 A 
ATOM      7  C   LIG    1        0.694   3.529  -2.775  0.00  0.00    +0.146 A 
ATOM      8  N   LIG    1        1.519   3.710  -1.686  0.00  0.00    -0.256 N 
ATOM      9  C   LIG    1        2.644   4.622  -1.506  0.00  0.00    +0.174 C 
ATOM     10  N   LIG    1        1.196   2.916  -0.660  0.00  0.00    -0.173 NA
ATOM     11  C   LIG    1        0.168   2.201  -1.064  0.00  0.00    +0.089 A 
ATOM     12  C   LIG    1       -0.496   1.227  -0.095  0.00  0.00    +0.165 C 
ATOM     13  N   LIG    1        0.120  -0.118  -0.044  0.00  0.00    -0.295 N 
ATOM     14  C   LIG    1        1.559  -0.134   0.254  0.00  0.00    +0.132 C 
ATOM     15  C   LIG    1       -0.557  -1.288  -0.239  0.00  0.00    +0.247 C 
ATOM     16  O   LIG    1        0.006  -2.376  -0.383  0.00  0.00    -0.270 OA
ATOM     17  C   LIG    1       -2.070  -1.266  -0.224  0.00  0.00    +0.044 A 
ATOM     18  C   LIG    1       -2.713  -0.823   0.942  0.00  0.00    +0.016 A 
ATOM     19  C   LIG    1       -4.102  -0.784   1.025  0.00  0.00    +0.039 A 
ATOM     20  C   LIG    1       -4.873  -1.193  -0.057  0.00  0.00    +0.124 A 
ATOM     21  F   LIG    1       -6.222  -1.152   0.019  0.00  0.00    -0.205 F 
ATOM     22  C   LIG    1       -4.253  -1.646  -1.218  0.00  0.00    +0.046 A 
ATOM     23  C   LIG    1       -2.855  -1.700  -1.323  0.00  0.00    +0.007 A 
ATOM     24  C   LIG    1       -2.264  -2.205  -2.660  0.00  0.00    +0.201 C 
ATOM     25  C   LIG    1       -2.603  -3.682  -2.920  0.00  0.00    +0.057 C 
ATOM     26  C   LIG    1       -3.406   0.755  -4.542  0.00  0.00    +0.158 A 
ATOM     27  O   LIG    1       -2.764  -1.443  -3.772  0.00  0.00    -0.481 OA
ENDROOT
BRANCH  26  28
ATOM     28  N   LIG    1       -4.493   0.220  -5.232  0.00  0.00    -0.340 N 
ATOM     29  H   LIG    1       -5.107   0.837  -5.743  0.00  0.00    +0.144 HD
ATOM     30  H   LIG    1       -4.644  -0.778  -5.221  0.00  0.00    +0.144 HD
ENDBRANCH  26  28
BRANCH   7  31
ATOM     31  C   LIG    1        0.836   4.272  -4.022  0.00  0.00    +0.119 C 
ATOM     32  N   LIG    1        0.947   4.862  -5.010  0.00  0.00    -0.189 NA
ENDBRANCH   7  31
TORSDOF 2
