REMARK  Name = DB12009
REMARK                            x       y       z     vdW  Elec       q    Type
REMARK                         _______ _______ _______ _____ _____    ______ ____
ROOT
ATOM      1  C   LIG    1        1.432   0.062  -0.033  0.00  0.00    +0.103 A 
ATOM      2  N   LIG    1        2.116  -0.930   0.506  0.00  0.00    -0.148 NA
ATOM      3  N   LIG    1        3.418  -0.626   0.349  0.00  0.00    -0.149 N 
ATOM      4  N   LIG    1        4.381  -1.443   0.808  0.00  0.00    -0.157 NA
ATOM      5  C   LIG    1        5.644  -1.005   0.569  0.00  0.00    +0.135 A 
ATOM      6  C   LIG    1        5.949   0.183  -0.095  0.00  0.00    +0.024 A 
ATOM      7  C   LIG    1        4.912   0.998  -0.556  0.00  0.00    +0.032 A 
ATOM      8  C   LIG    1        3.583   0.592  -0.328  0.00  0.00    +0.096 A 
ATOM      9  C   LIG    1        2.264   1.050  -0.600  0.00  0.00    +0.037 A 
ENDROOT
BRANCH   1  13
ATOM     10  C   LIG    1       -2.865   0.014   0.113  0.00  0.00    +0.121 A 
ATOM     11  C   LIG    1       -2.156   1.187   0.416  0.00  0.00    +0.046 A 
ATOM     12  C   LIG    1       -0.765   1.196   0.375  0.00  0.00    +0.013 A 
ATOM     13  C   LIG    1       -0.062   0.039   0.027  0.00  0.00    +0.003 A 
ATOM     14  C   LIG    1       -0.766  -1.134  -0.260  0.00  0.00    +0.013 A 
ATOM     15  C   LIG    1       -2.158  -1.142  -0.218  0.00  0.00    +0.046 A 
BRANCH  10  16
ATOM     16  O   LIG    1       -4.243  -0.086   0.116  0.00  0.00    -0.492 OA
BRANCH  16  18
ATOM     17  C   LIG    1       -6.508   0.712   0.244  0.00  0.00    +0.048 C 
ATOM     18  C   LIG    1       -5.027   1.071   0.391  0.00  0.00    +0.225 C 
ENDBRANCH  16  18
ENDBRANCH  10  16
ENDBRANCH   1  13
BRANCH   9  19
ATOM     19  C   LIG    1        1.887   2.298  -1.329  0.00  0.00    -0.014 A 
ATOM     20  C   LIG    1        0.864   2.275  -2.281  0.00  0.00    +0.010 A 
ATOM     21  C   LIG    1        0.534   3.429  -2.985  0.00  0.00    +0.027 A 
ATOM     22  C   LIG    1        1.237   4.611  -2.747  0.00  0.00    +0.088 A 
ATOM     23  C   LIG    1        2.267   4.639  -1.804  0.00  0.00    +0.027 A 
ATOM     24  C   LIG    1        2.595   3.482  -1.103  0.00  0.00    +0.010 A 
BRANCH  22  25
ATOM     25  S   LIG    1        0.816   6.096  -3.654  0.00  0.00    -0.006 S 
ATOM     26  C   LIG    1       -0.543   6.873  -2.604  0.00  0.00    +0.200 C 
ATOM     27  O   LIG    1        0.234   5.679  -4.935  0.00  0.00    -0.170 OA
ATOM     28  O   LIG    1        1.988   6.979  -3.627  0.00  0.00    -0.170 OA
ENDBRANCH  22  25
ENDBRANCH   9  19
TORSDOF 5
