REMARK  Name = DB12065
REMARK                            x       y       z     vdW  Elec       q    Type
REMARK                         _______ _______ _______ _____ _____    ______ ____
ROOT
ATOM      1  C   LIG    1       -0.849   0.813  -0.222  0.00  0.00    +0.223 C 
ATOM      2  N   LIG    1       -0.015  -0.273  -0.247  0.00  0.00    -0.267 N 
ATOM      3  O   LIG    1       -0.403   1.962  -0.147  0.00  0.00    -0.275 OA
ENDROOT
BRANCH   1   8
ATOM      4  C   LIG    1       -6.686   1.589   0.161  0.00  0.00    +0.039 C 
ATOM      5  C   LIG    1       -5.185   1.378   0.083  0.00  0.00    -0.076 C 
ATOM      6  C   LIG    1       -4.544   1.514  -1.299  0.00  0.00    +0.031 C 
ATOM      7  C   LIG    1       -3.020   1.736  -1.191  0.00  0.00    +0.017 C 
ATOM      8  C   LIG    1       -2.397   0.639  -0.291  0.00  0.00    +0.080 C 
ATOM      9  C   LIG    1       -2.975   0.664   1.152  0.00  0.00    +0.040 C 
ATOM     10  C   LIG    1       -4.467   0.984   1.158  0.00  0.00    -0.027 C 
ENDBRANCH   1   8
BRANCH   2  11
ATOM     11  C   LIG    1        1.458  -0.148  -0.181  0.00  0.00    +0.082 C 
ATOM     12  C   LIG    1        2.030   0.314   1.187  0.00  0.00    +0.026 C 
ATOM     13  C   LIG    1        3.572   0.394   1.207  0.00  0.00    +0.039 C 
ATOM     14  C   LIG    1        4.179   1.205   0.036  0.00  0.00    +0.089 C 
ATOM     15  C   LIG    1        3.685   0.567  -1.288  0.00  0.00    +0.039 C 
ATOM     16  C   LIG    1        2.148   0.493  -1.417  0.00  0.00    +0.026 C 
BRANCH  14  17
ATOM     17  O   LIG    1        3.699   2.539   0.110  0.00  0.00    -0.386 OA
ATOM     18  H   LIG    1        3.910   2.981  -0.716  0.00  0.00    +0.210 HD
ENDBRANCH  14  17
BRANCH  14  19
ATOM     19  C   LIG    1        5.724   1.259   0.111  0.00  0.00    +0.195 C 
BRANCH  19  20
ATOM     20  O   LIG    1        6.269   1.931  -1.022  0.00  0.00    -0.371 OA
BRANCH  20  21
ATOM     21  C   LIG    1        7.690   2.048  -1.026  0.00  0.00    +0.146 C 
ATOM     22  C   LIG    1        8.170   2.277  -2.450  0.00  0.00    +0.062 C 
ATOM     23  C   LIG    1        8.580   3.752  -2.497  0.00  0.00    +0.162 C 
ATOM     24  O   LIG    1        8.107   4.325  -1.282  0.00  0.00    -0.377 OA
ATOM     25  C   LIG    1        8.117   3.316  -0.283  0.00  0.00    +0.191 C 
ENDBRANCH  20  21
ENDBRANCH  19  20
ENDBRANCH  14  19
ENDBRANCH   2  11
BRANCH   2  26
ATOM     26  C   LIG    1       -0.515  -1.570  -0.239  0.00  0.00    +0.059 A 
ATOM     27  C   LIG    1       -0.766  -2.244   0.968  0.00  0.00    +0.049 A 
ATOM     28  C   LIG    1       -1.234  -3.534   0.797  0.00  0.00    +0.065 A 
ATOM     29  S   LIG    1       -1.362  -3.940  -0.878  0.00  0.00    -0.072 S 
ATOM     30  C   LIG    1       -0.783  -2.358  -1.384  0.00  0.00    +0.119 A 
BRANCH  28  31
ATOM     31  C   LIG    1       -1.589  -4.503   1.819  0.00  0.00    -0.059 C 
ATOM     32  C   LIG    1       -1.869  -5.311   2.692  0.00  0.00    -0.091 C 
BRANCH  32  33
ATOM     33  C   LIG    1       -2.187  -6.290   3.756  0.00  0.00    +0.024 C 
ATOM     34  C   LIG    1       -2.201  -7.717   3.160  0.00  0.00    +0.024 C 
ATOM     35  C   LIG    1       -1.116  -6.209   4.869  0.00  0.00    +0.024 C 
ATOM     36  C   LIG    1       -3.575  -5.971   4.357  0.00  0.00    +0.024 C 
ENDBRANCH  32  33
ENDBRANCH  28  31
BRANCH  30  37
ATOM     37  C   LIG    1       -0.664  -2.054  -2.836  0.00  0.00    +0.345 C 
ATOM     38  O   LIG    1       -0.731  -0.852  -3.180  0.00  0.00    -0.244 OA
BRANCH  37  39
ATOM     39  O   LIG    1       -0.501  -3.001  -3.641  0.00  0.00    -0.477 OA
ATOM     40  H   LIG    1       -0.459  -3.882  -3.325  0.00  0.00    +0.295 HD
ENDBRANCH  37  39
ENDBRANCH  30  37
ENDBRANCH   2  26
TORSDOF 11
