REMARK  Name = DB12401
REMARK                            x       y       z     vdW  Elec       q    Type
REMARK                         _______ _______ _______ _____ _____    ______ ____
ROOT
ATOM      1  N   LIG    1        2.252  -1.307   0.323  0.00  0.00    -0.302 NA
ATOM      2  C   LIG    1        3.534  -1.271   1.029  0.00  0.00    +0.087 C 
ATOM      3  C   LIG    1        4.193  -2.664   1.116  0.00  0.00    +0.055 C 
ATOM      4  C   LIG    1        4.335  -3.442  -0.232  0.00  0.00    +0.093 C 
ATOM      5  C   LIG    1        3.046  -3.215  -1.077  0.00  0.00    +0.055 C 
ATOM      6  C   LIG    1        2.443  -1.796  -1.046  0.00  0.00    +0.087 C 
ENDROOT
BRANCH   4   7
ATOM      7  C   LIG    1        4.502  -4.966  -0.024  0.00  0.00    -0.016 A 
ATOM      8  C   LIG    1        5.391  -5.689  -0.833  0.00  0.00    +0.007 A 
ATOM      9  C   LIG    1        5.510  -7.070  -0.705  0.00  0.00    +0.015 A 
ATOM     10  C   LIG    1        4.718  -7.748   0.217  0.00  0.00    +0.018 A 
ATOM     11 BR   LIG    1        4.876  -9.637   0.392  0.00  0.00    -0.050 Br
ATOM     12  C   LIG    1        3.800  -7.055   1.001  0.00  0.00    +0.015 A 
ATOM     13  C   LIG    1        3.684  -5.674   0.871  0.00  0.00    +0.007 A 
ENDBRANCH   4   7
BRANCH   4  14
ATOM     14  O   LIG    1        5.382  -2.809  -0.954  0.00  0.00    -0.384 OA
ATOM     15  H   LIG    1        6.022  -2.468  -0.325  0.00  0.00    +0.211 HD
ENDBRANCH   4  14
BRANCH   1  16
ATOM     16  C   LIG    1        1.620   0.016   0.370  0.00  0.00    +0.085 C 
BRANCH  16  17
ATOM     17  C   LIG    1        0.174   0.033  -0.170  0.00  0.00    +0.023 C 
BRANCH  17  18
ATOM     18  C   LIG    1       -0.560   1.347   0.173  0.00  0.00    +0.081 C 
BRANCH  18  19
ATOM     19  C   LIG    1       -1.995   1.467  -0.379  0.00  0.00    +0.163 C 
ATOM     20  O   LIG    1       -2.495   0.516  -0.986  0.00  0.00    -0.292 OA
BRANCH  19  21
ATOM     21  C   LIG    1       -2.713   2.769  -0.173  0.00  0.00    +0.018 A 
ATOM     22  C   LIG    1       -3.985   2.949  -0.737  0.00  0.00    +0.014 A 
ATOM     23  C   LIG    1       -4.673   4.147  -0.562  0.00  0.00    +0.039 A 
ATOM     24  C   LIG    1       -4.096   5.174   0.180  0.00  0.00    +0.123 A 
ATOM     25  F   LIG    1       -4.765   6.337   0.350  0.00  0.00    -0.205 F 
ATOM     26  C   LIG    1       -2.836   5.011   0.749  0.00  0.00    +0.039 A 
ATOM     27  C   LIG    1       -2.146   3.814   0.574  0.00  0.00    +0.014 A 
ENDBRANCH  19  21
ENDBRANCH  18  19
ENDBRANCH  17  18
ENDBRANCH  16  17
ENDBRANCH   1  16
TORSDOF 7
