REMARK  Name = DB12285
REMARK                            x       y       z     vdW  Elec       q    Type
REMARK                         _______ _______ _______ _____ _____    ______ ____
ROOT
ATOM      1  C   LIG    1        1.676   0.004   0.053  0.00  0.00    +0.034 A 
ATOM      2  C   LIG    1        2.310  -1.230   0.302  0.00  0.00    +0.130 A 
ATOM      3  F   LIG    1        1.608  -2.386   0.328  0.00  0.00    -0.205 F 
ATOM      4  C   LIG    1        3.684  -1.300   0.519  0.00  0.00    +0.040 A 
ATOM      5  C   LIG    1        4.464  -0.148   0.496  0.00  0.00    +0.026 A 
ATOM      6  C   LIG    1        3.867   1.097   0.255  0.00  0.00    +0.034 A 
ATOM      7  C   LIG    1        2.489   1.156   0.027  0.00  0.00    +0.033 A 
ENDROOT
BRANCH   1   9
ATOM      8  C   LIG    1       -0.618  -0.533   1.009  0.00  0.00    +0.062 C 
ATOM      9  C   LIG    1        0.138   0.075  -0.203  0.00  0.00    +0.172 C 
ATOM     10  N   LIG    1       -0.323   1.484  -0.228  0.00  0.00    -0.103 NA
ATOM     11  C   LIG    1       -0.861   2.058  -1.235  0.00  0.00    +0.387 C 
ATOM     12  N   LIG    1       -0.810   1.585  -2.603  0.00  0.00    -0.093 N 
ATOM     13  C   LIG    1       -1.616   2.188  -3.693  0.00  0.00    +0.260 C 
ATOM     14  S   LIG    1        0.182   0.205  -3.047  0.00  0.00    +0.091 S 
ATOM     15  O   LIG    1       -0.375  -0.476  -4.221  0.00  0.00    -0.142 OA
ATOM     16  O   LIG    1        1.599   0.586  -3.051  0.00  0.00    -0.142 OA
ATOM     17  C   LIG    1       -0.240  -0.753  -1.482  0.00  0.00    +0.256 C 
BRANCH  11  18
ATOM     18  N   LIG    1       -1.562   3.251  -0.945  0.00  0.00    -0.250 N 
ATOM     19  H   LIG    1       -2.396   3.442  -1.481  0.00  0.00    +0.241 HD
ATOM     20  H   LIG    1       -1.699   3.481   0.028  0.00  0.00    +0.241 HD
ENDBRANCH  11  18
ENDBRANCH   1   9
BRANCH   6  21
ATOM     21  N   LIG    1        4.559   2.321   0.194  0.00  0.00    -0.280 N 
ATOM     22  H   LIG    1        4.018   3.088  -0.179  0.00  0.00    +0.155 HD
ATOM     23  C   LIG    1        5.816   2.626   0.598  0.00  0.00    +0.267 C 
ATOM     24  O   LIG    1        6.583   1.827   1.140  0.00  0.00    -0.268 OA
BRANCH  23  25
ATOM     25  C   LIG    1        6.260   4.059   0.367  0.00  0.00    +0.126 A 
ATOM     26  N   LIG    1        5.389   4.921  -0.240  0.00  0.00    -0.248 NA
ATOM     27  C   LIG    1        5.779   6.204  -0.451  0.00  0.00    +0.149 A 
ATOM     28  C   LIG    1        7.032   6.682  -0.072  0.00  0.00    +0.141 A 
ATOM     29  F   LIG    1        7.378   7.969  -0.300  0.00  0.00    -0.204 F 
ATOM     30  C   LIG    1        7.922   5.805   0.548  0.00  0.00    +0.042 A 
ATOM     31  C   LIG    1        7.537   4.481   0.771  0.00  0.00    +0.036 A 
ENDBRANCH  23  25
ENDBRANCH   6  21
TORSDOF 4
