REMARK  Name = DB12495
REMARK                            x       y       z     vdW  Elec       q    Type
REMARK                         _______ _______ _______ _____ _____    ______ ____
ROOT
ATOM      1  C   LIG    1       -5.277   5.015  -4.331  0.00  0.00    +0.162 C 
ATOM      2  N   LIG    1       -5.918   4.634  -5.598  0.00  0.00    -0.302 N 
ATOM      3  H   LIG    1       -6.925   4.586  -5.532  0.00  0.00    +0.150 HD
ATOM      4  C   LIG    1       -5.388   4.422  -6.817  0.00  0.00    +0.234 C 
ATOM      5  O   LIG    1       -6.107   4.205  -7.791  0.00  0.00    -0.274 OA
ATOM      6  C   LIG    1       -3.861   4.375  -7.002  0.00  0.00    +0.163 C 
ATOM      7  N   LIG    1       -3.442   3.033  -6.614  0.00  0.00    -0.305 N 
ATOM      8  H   LIG    1       -3.993   2.283  -7.007  0.00  0.00    +0.149 HD
ATOM      9  C   LIG    1       -2.467   2.741  -5.739  0.00  0.00    +0.200 C 
ATOM     10  O   LIG    1       -1.747   3.583  -5.200  0.00  0.00    -0.278 OA
ATOM     11  C   LIG    1       -2.308   1.245  -5.402  0.00  0.00    +0.023 C 
ATOM     12  C   LIG    1       -1.979   0.941  -3.920  0.00  0.00    +0.074 C 
ATOM     13  S   LIG    1       -0.309   1.308  -3.293  0.00  0.00    -0.094 S 
ATOM     14  S   LIG    1        0.458  -0.543  -2.904  0.00  0.00    -0.091 S 
ATOM     15  C   LIG    1       -0.401  -1.079  -1.388  0.00  0.00    +0.112 C 
ATOM     16  C   LIG    1       -0.006  -0.414  -0.051  0.00  0.00    +0.170 C 
ATOM     17  N   LIG    1       -0.386   1.001  -0.102  0.00  0.00    -0.302 N 
ATOM     18  H   LIG    1       -0.404   1.412  -1.025  0.00  0.00    +0.150 HD
ATOM     19  C   LIG    1       -0.516   1.803   0.966  0.00  0.00    +0.234 C 
ATOM     20  O   LIG    1       -0.514   1.395   2.127  0.00  0.00    -0.274 OA
ATOM     21  C   LIG    1       -0.598   3.317   0.676  0.00  0.00    +0.168 C 
ATOM     22  N   LIG    1       -1.355   3.671  -0.535  0.00  0.00    -0.302 N 
ATOM     23  H   LIG    1       -0.798   4.068  -1.278  0.00  0.00    +0.150 HD
ATOM     24  C   LIG    1       -2.693   3.654  -0.683  0.00  0.00    +0.234 C 
ATOM     25  O   LIG    1       -3.467   3.182   0.151  0.00  0.00    -0.274 OA
ATOM     26  C   LIG    1       -3.252   4.335  -1.956  0.00  0.00    +0.159 C 
ATOM     27  N   LIG    1       -4.573   3.750  -2.247  0.00  0.00    -0.302 N 
ATOM     28  H   LIG    1       -4.825   3.044  -1.569  0.00  0.00    +0.150 HD
ATOM     29  C   LIG    1       -5.464   3.923  -3.249  0.00  0.00    +0.234 C 
ATOM     30  O   LIG    1       -6.462   3.207  -3.314  0.00  0.00    -0.274 OA
ENDROOT
BRANCH  16  31
ATOM     31  C   LIG    1        1.508  -0.601   0.254  0.00  0.00    +0.237 C 
ATOM     32  N   LIG    1        1.915  -1.794   0.763  0.00  0.00    -0.288 N 
ATOM     33  C   LIG    1        3.338  -2.169   0.927  0.00  0.00    +0.162 C 
ATOM     34  C   LIG    1        3.287  -3.619   1.445  0.00  0.00    +0.033 C 
ATOM     35  C   LIG    1        1.940  -3.727   2.133  0.00  0.00    +0.021 C 
ATOM     36  C   LIG    1        1.042  -2.862   1.258  0.00  0.00    +0.109 C 
ATOM     37  O   LIG    1        2.287   0.317  -0.017  0.00  0.00    -0.274 OA
BRANCH  33  38
ATOM     38  C   LIG    1        4.176  -2.040  -0.360  0.00  0.00    +0.234 C 
ATOM     39  N   LIG    1        5.114  -1.080  -0.343  0.00  0.00    -0.302 N 
ATOM     40  H   LIG    1        5.239  -0.530   0.495  0.00  0.00    +0.150 HD
ATOM     41  O   LIG    1        3.935  -2.763  -1.327  0.00  0.00    -0.274 OA
BRANCH  39  42
ATOM     42  C   LIG    1        5.985  -0.737  -1.467  0.00  0.00    +0.159 C 
BRANCH  42  43
ATOM     43  C   LIG    1        7.157  -1.727  -1.567  0.00  0.00    +0.234 C 
ATOM     44  N   LIG    1        7.445  -2.176  -2.799  0.00  0.00    -0.305 N 
ATOM     45  H   LIG    1        6.881  -1.869  -3.579  0.00  0.00    +0.149 HD
ATOM     46  O   LIG    1        7.777  -2.039  -0.549  0.00  0.00    -0.274 OA
BRANCH  44  47
ATOM     47  C   LIG    1        8.497  -3.149  -3.097  0.00  0.00    +0.199 C 
BRANCH  47  48
ATOM     48  C   LIG    1        8.075  -4.571  -2.683  0.00  0.00    +0.228 C 
ATOM     49  N   LIG    1        9.036  -5.374  -2.220  0.00  0.00    -0.328 N 
ATOM     50  H   LIG    1        8.816  -6.322  -1.952  0.00  0.00    +0.145 HD
ATOM     51  H   LIG    1        9.983  -5.039  -2.128  0.00  0.00    +0.145 HD
ATOM     52  O   LIG    1        6.917  -4.964  -2.822  0.00  0.00    -0.274 OA
ENDBRANCH  47  48
ENDBRANCH  44  47
ENDBRANCH  42  43
BRANCH  42  53
ATOM     53  C   LIG    1        6.510   0.710  -1.352  0.00  0.00    +0.030 C 
BRANCH  53  54
ATOM     54  C   LIG    1        5.383   1.766  -1.330  0.00  0.00    -0.017 C 
BRANCH  54  55
ATOM     55  C   LIG    1        5.880   3.212  -1.175  0.00  0.00    -0.082 C 
BRANCH  55  56
ATOM     56  N   LIG    1        6.656   3.641  -2.433  0.00  0.00    +0.381 N 
ATOM     57  H   LIG    1        6.031   3.631  -3.227  0.00  0.00    -0.086 HD
ATOM     58  H   LIG    1        7.373   2.949  -2.598  0.00  0.00    -0.086 HD
BRANCH  56  59
ATOM     59  C   LIG    1        7.347   5.017  -2.355  0.00  0.00    -0.078 C 
ATOM     60  C   LIG    1        8.283   5.150  -3.568  0.00  0.00    -0.014 C 
ATOM     61  C   LIG    1        6.297   6.144  -2.287  0.00  0.00    -0.014 C 
ENDBRANCH  56  59
ENDBRANCH  55  56
ENDBRANCH  54  55
ENDBRANCH  53  54
ENDBRANCH  42  53
ENDBRANCH  39  42
ENDBRANCH  33  38
ENDBRANCH  16  31
BRANCH  11  62
ATOM     62  N   LIG    1       -1.306   0.708  -6.386  0.00  0.00    +0.386 N 
ATOM     63  H   LIG    1       -0.417   1.159  -6.225  0.00  0.00    -0.089 HD
ATOM     64  H   LIG    1       -1.211  -0.288  -6.245  0.00  0.00    -0.089 HD
ATOM     65  H   LIG    1       -1.629   0.889  -7.325  0.00  0.00    -0.089 HD
ENDBRANCH  11  62
BRANCH   1  66
ATOM     66  C   LIG    1       -5.946   6.334  -3.821  0.00  0.00    +0.015 C 
ATOM     67  C   LIG    1       -5.443   7.539  -4.639  0.00  0.00    +0.010 C 
BRANCH  66  69
ATOM     68  C   LIG    1       -8.117   7.513  -3.050  0.00  0.00    +0.004 C 
ATOM     69  C   LIG    1       -7.497   6.301  -3.761  0.00  0.00    +0.002 C 
ENDBRANCH  66  69
ENDBRANCH   1  66
BRANCH   6  70
ATOM     70  C   LIG    1       -3.420   4.652  -8.458  0.00  0.00    +0.067 C 
BRANCH  70  71
ATOM     71  C   LIG    1       -1.915   4.713  -8.656  0.00  0.00    -0.045 A 
ATOM     72  C   LIG    1       -1.199   5.869  -8.280  0.00  0.00    +0.004 A 
ATOM     73  C   LIG    1        0.187   5.886  -8.365  0.00  0.00    +0.000 A 
ATOM     74  C   LIG    1        0.875   4.758  -8.795  0.00  0.00    +0.000 A 
ATOM     75  C   LIG    1        0.187   3.600  -9.133  0.00  0.00    +0.000 A 
ATOM     76  C   LIG    1       -1.199   3.563  -9.055  0.00  0.00    +0.004 A 
ENDBRANCH  70  71
ENDBRANCH   6  70
BRANCH  21  77
ATOM     77  C   LIG    1       -1.061   4.144   1.913  0.00  0.00    +0.127 C 
BRANCH  77  78
ATOM     78  C   LIG    1        0.079   4.508   2.871  0.00  0.00    +0.213 C 
ATOM     79  N   LIG    1       -0.082   4.183   4.156  0.00  0.00    -0.329 N 
ATOM     80  H   LIG    1        0.635   4.407   4.830  0.00  0.00    +0.145 HD
ATOM     81  H   LIG    1       -0.918   3.706   4.461  0.00  0.00    +0.145 HD
ATOM     82  O   LIG    1        1.082   5.090   2.462  0.00  0.00    -0.276 OA
ENDBRANCH  77  78
ENDBRANCH  21  77
BRANCH  26  83
ATOM     83  C   LIG    1       -3.248   5.886  -1.822  0.00  0.00    +0.032 C 
BRANCH  83  84
ATOM     84  C   LIG    1       -1.938   6.553  -1.350  0.00  0.00    +0.011 C 
BRANCH  84  85
ATOM     85  C   LIG    1       -1.957   8.090  -1.498  0.00  0.00    +0.095 C 
BRANCH  85  86
ATOM     86  C   LIG    1       -0.674   8.785  -1.016  0.00  0.00    +0.210 C 
ATOM     87  N   LIG    1       -0.674  10.120  -1.040  0.00  0.00    -0.329 N 
ATOM     88  H   LIG    1        0.142  10.630  -0.736  0.00  0.00    +0.145 HD
ATOM     89  H   LIG    1       -1.489  10.626  -1.355  0.00  0.00    +0.145 HD
ATOM     90  O   LIG    1        0.304   8.147  -0.629  0.00  0.00    -0.276 OA
ENDBRANCH  85  86
ENDBRANCH  84  85
ENDBRANCH  83  84
ENDBRANCH  26  83
TORSDOF 22
