REMARK  Name = DB12015
REMARK                            x       y       z     vdW  Elec       q    Type
REMARK                         _______ _______ _______ _____ _____    ______ ____
ROOT
ATOM      1  C   LIG    1       -0.403   2.609   0.552  0.00  0.00    +0.067 C 
ATOM      2  C   LIG    1       -0.796   1.162   0.342  0.00  0.00    +0.055 A 
ATOM      3  N   LIG    1       -2.095   0.927   0.297  0.00  0.00    -0.229 NA
ATOM      4  C   LIG    1       -2.369  -0.341   0.097  0.00  0.00    +0.166 A 
ATOM      5  S   LIG    1       -0.986  -1.364  -0.051  0.00  0.00    -0.052 S 
ATOM      6  C   LIG    1        0.030   0.040   0.178  0.00  0.00    +0.044 A 
ENDROOT
BRANCH   4   7
ATOM      7  N   LIG    1       -3.618  -0.939  -0.004  0.00  0.00    -0.248 N 
ATOM      8  H   LIG    1       -3.614  -1.938  -0.147  0.00  0.00    +0.158 HD
ATOM      9  C   LIG    1       -4.824  -0.326   0.081  0.00  0.00    +0.309 C 
ATOM     10  N   LIG    1       -5.891  -1.163  -0.019  0.00  0.00    -0.274 N 
ATOM     11  C   LIG    1       -7.295  -0.693   0.037  0.00  0.00    +0.163 C 
ATOM     12  C   LIG    1       -8.093  -1.895  -0.498  0.00  0.00    +0.033 C 
ATOM     13  C   LIG    1       -7.278  -3.103  -0.071  0.00  0.00    +0.021 C 
ATOM     14  C   LIG    1       -5.842  -2.618  -0.233  0.00  0.00    +0.110 C 
ATOM     15  O   LIG    1       -4.958   0.891   0.237  0.00  0.00    -0.252 OA
BRANCH  11  16
ATOM     16  C   LIG    1       -7.810  -0.230   1.423  0.00  0.00    +0.231 C 
ATOM     17  N   LIG    1       -7.074  -0.491   2.510  0.00  0.00    -0.328 N 
ATOM     18  H   LIG    1       -6.193  -0.975   2.426  0.00  0.00    +0.145 HD
ATOM     19  H   LIG    1       -7.393  -0.193   3.421  0.00  0.00    +0.145 HD
ATOM     20  O   LIG    1       -8.882   0.369   1.488  0.00  0.00    -0.274 OA
ENDBRANCH  11  16
ENDBRANCH   4   7
BRANCH   6  21
ATOM     21  C   LIG    1        1.515  -0.101   0.197  0.00  0.00    -0.006 A 
ATOM     22  C   LIG    1        2.274   0.580   1.155  0.00  0.00    +0.029 A 
ATOM     23  C   LIG    1        3.660   0.431   1.145  0.00  0.00    +0.111 A 
ATOM     24  N   LIG    1        4.309  -0.348   0.245  0.00  0.00    -0.259 NA
ATOM     25  C   LIG    1        3.580  -1.015  -0.694  0.00  0.00    +0.056 A 
ATOM     26  C   LIG    1        2.180  -0.904  -0.739  0.00  0.00    +0.033 A 
BRANCH  25  27
ATOM     27  C   LIG    1        4.340  -1.899  -1.721  0.00  0.00    +0.102 C 
ATOM     28  C   LIG    1        4.081  -1.341  -3.145  0.00  0.00    +0.026 C 
ATOM     29  C   LIG    1        3.785  -3.348  -1.653  0.00  0.00    +0.026 C 
BRANCH  27  30
ATOM     30  C   LIG    1        5.892  -1.959  -1.486  0.00  0.00    +0.400 C 
ATOM     31  F   LIG    1        6.469  -0.759  -1.582  0.00  0.00    -0.170 F 
ATOM     32  F   LIG    1        6.500  -2.737  -2.385  0.00  0.00    -0.170 F 
ATOM     33  F   LIG    1        6.203  -2.458  -0.287  0.00  0.00    -0.170 F 
ENDBRANCH  27  30
ENDBRANCH  25  27
ENDBRANCH   6  21
TORSDOF 5
