REMARK  Name = DB12531
REMARK                            x       y       z     vdW  Elec       q    Type
REMARK                         _______ _______ _______ _____ _____    ______ ____
ROOT
ATOM      1  C   LIG    1       -0.889   1.019  -0.365  0.00  0.00    +0.202 A 
ATOM      2  N   LIG    1       -0.048  -0.009  -0.127  0.00  0.00    -0.311 N 
ATOM      3  C   LIG    1       -0.830  -1.125  -0.042  0.00  0.00    +0.169 A 
ATOM      4  N   LIG    1       -0.416  -2.408   0.175  0.00  0.00    -0.196 NA
ATOM      5  C   LIG    1       -1.393  -3.254   0.211  0.00  0.00    +0.195 A 
ATOM      6  N   LIG    1       -2.718  -2.880   0.039  0.00  0.00    -0.293 N 
ATOM      7  H   LIG    1       -3.415  -3.608   0.080  0.00  0.00    +0.172 HD
ATOM      8  C   LIG    1       -3.213  -1.618  -0.185  0.00  0.00    +0.280 A 
ATOM      9  O   LIG    1       -4.415  -1.394  -0.325  0.00  0.00    -0.265 OA
ATOM     10  C   LIG    1       -2.111  -0.678  -0.221  0.00  0.00    +0.172 A 
ATOM     11  N   LIG    1       -2.148   0.650  -0.419  0.00  0.00    -0.229 NA
ENDROOT
BRANCH   2  12
ATOM     12  C   LIG    1        1.419   0.053  -0.028  0.00  0.00    +0.096 C 
ATOM     13  C   LIG    1        2.122   1.390   0.308  0.00  0.00    +0.043 C 
ATOM     14  C   LIG    1        3.177   0.566   1.068  0.00  0.00    +0.024 C 
ATOM     15  C   LIG    1        2.113  -0.536   1.218  0.00  0.00    +0.031 C 
BRANCH  13  16
ATOM     16  C   LIG    1        2.618   2.239  -0.885  0.00  0.00    +0.161 C 
BRANCH  16  17
ATOM     17  O   LIG    1        3.389   1.502  -1.815  0.00  0.00    -0.395 OA
ATOM     18  H   LIG    1        3.657   2.090  -2.525  0.00  0.00    +0.209 HD
ENDBRANCH  16  17
ENDBRANCH  13  16
BRANCH  14  19
ATOM     19  C   LIG    1        3.723   1.157   2.380  0.00  0.00    +0.159 C 
BRANCH  19  20
ATOM     20  O   LIG    1        4.448   0.183   3.101  0.00  0.00    -0.395 OA
ATOM     21  H   LIG    1        4.755   0.576   3.921  0.00  0.00    +0.209 HD
ENDBRANCH  19  20
ENDBRANCH  14  19
ENDBRANCH   2  12
BRANCH   5  22
ATOM     22  N   LIG    1       -1.171  -4.558   0.421  0.00  0.00    -0.329 N 
ATOM     23  H   LIG    1       -1.937  -5.214   0.453  0.00  0.00    +0.145 HD
ATOM     24  H   LIG    1       -0.229  -4.897   0.554  0.00  0.00    +0.145 HD
ENDBRANCH   5  22
TORSDOF 6
