REMARK  Name = DB12939
REMARK                            x       y       z     vdW  Elec       q    Type
REMARK                         _______ _______ _______ _____ _____    ______ ____
ROOT
ATOM      1  CA  LIG    1        3.517   2.118   0.540  0.00  0.00    +0.213 C 
ENDROOT
BRANCH   1   2
ATOM      2  C   LIG    1        3.992   2.429  -0.917  0.00  0.00    +0.183 C 
ATOM      3  O   LIG    1        3.224   3.494  -1.479  0.00  0.00    -0.345 OA
ATOM      4  C   LIG    1        4.043   4.268  -2.294  0.00  0.00    +0.255 C 
ATOM      5  C   LIG    1        5.370   4.327  -1.541  0.00  0.00    +0.195 C 
ATOM      6  C   LIG    1        5.468   2.859  -1.109  0.00  0.00    +0.178 C 
BRANCH   4   7
ATOM      7  N   LIG    1        3.389   5.526  -2.644  0.00  0.00    -0.271 N 
ATOM      8  C   LIG    1        3.032   5.783  -3.958  0.00  0.00    +0.331 A 
ATOM      9  O   LIG    1        3.219   5.048  -4.928  0.00  0.00    -0.246 OA
ATOM     10  N   LIG    1        2.413   6.995  -4.137  0.00  0.00    -0.275 N 
ATOM     11  H   LIG    1        2.155   7.206  -5.090  0.00  0.00    +0.173 HD
ATOM     12  C   LIG    1        2.097   7.964  -3.227  0.00  0.00    +0.254 A 
ATOM     13  O   LIG    1        1.553   9.022  -3.535  0.00  0.00    -0.268 OA
ATOM     14  C   LIG    1        2.476   7.607  -1.872  0.00  0.00    +0.088 A 
ATOM     15  C   LIG    1        3.094   6.431  -1.650  0.00  0.00    +0.098 A 
ENDBRANCH   4   7
BRANCH   5  16
ATOM     16  O   LIG    1        6.398   4.860  -2.358  0.00  0.00    -0.385 OA
ATOM     17  H   LIG    1        6.274   5.809  -2.426  0.00  0.00    +0.210 HD
ENDBRANCH   5  16
BRANCH   6  18
ATOM     18  O   LIG    1        6.141   2.040  -2.053  0.00  0.00    -0.386 OA
ATOM     19  H   LIG    1        6.966   2.470  -2.291  0.00  0.00    +0.210 HD
ENDBRANCH   6  18
ENDBRANCH   1   2
BRANCH   1  21
ATOM     20  C   LIG    1        1.500   0.686   0.096  0.00  0.00    +0.200 C 
ATOM     21  N   LIG    1        2.085   1.782   0.610  0.00  0.00    -0.302 N 
ATOM     22  H   LIG    1        1.519   2.445   1.120  0.00  0.00    +0.150 HD
ATOM     23  O   LIG    1        2.116  -0.210  -0.491  0.00  0.00    -0.278 OA
BRANCH  20  24
ATOM     24  CA  LIG    1       -0.030   0.587   0.321  0.00  0.00    +0.018 C 
BRANCH  24  25
ATOM     25  N   LIG    1       -0.582   0.446  -1.075  0.00  0.00    +0.386 N 
ATOM     26  H1  LIG    1       -0.070  -0.284  -1.551  0.00  0.00    -0.089 HD
ATOM     27  H2  LIG    1       -1.559   0.196  -1.020  0.00  0.00    -0.089 HD
ATOM     28  H3  LIG    1       -0.474   1.322  -1.566  0.00  0.00    -0.089 HD
ENDBRANCH  24  25
BRANCH  24  30
ATOM     29  C   LIG    1       -2.037  -0.672   1.343  0.00  0.00    +0.009 C 
ATOM     30  C   LIG    1       -0.487  -0.522   1.345  0.00  0.00    +0.015 C 
BRANCH  30  31
ATOM     31  C   LIG    1        0.052  -0.296   2.808  0.00  0.00    +0.165 C 
BRANCH  31  32
ATOM     32  C   LIG    1       -0.597  -1.198   3.861  0.00  0.00    +0.070 A 
ATOM     33  N   LIG    1       -1.384  -0.576   4.781  0.00  0.00    -0.254 NA
ATOM     34  C   LIG    1       -1.977  -1.340   5.734  0.00  0.00    +0.156 A 
ATOM     35  C   LIG    1       -1.814  -2.725   5.805  0.00  0.00    +0.135 A 
ATOM     36  C   LIG    1       -1.005  -3.351   4.854  0.00  0.00    +0.049 A 
ATOM     37  C   LIG    1       -0.385  -2.583   3.868  0.00  0.00    +0.029 A 
BRANCH  35  38
ATOM     38  O   LIG    1       -2.432  -3.454   6.785  0.00  0.00    -0.505 OA
ATOM     39  H   LIG    1       -2.957  -2.917   7.383  0.00  0.00    +0.292 HD
ENDBRANCH  35  38
ENDBRANCH  31  32
BRANCH  31  40
ATOM     40  O   LIG    1        1.459  -0.442   2.865  0.00  0.00    -0.385 OA
ATOM     41  H   LIG    1        1.764  -0.140   3.724  0.00  0.00    +0.210 HD
ENDBRANCH  31  40
ENDBRANCH  30  31
ENDBRANCH  24  30
ENDBRANCH  20  24
ENDBRANCH   1  21
BRANCH   1  42
ATOM     42  C   LIG    1        3.780   3.298   1.551  0.00  0.00    +0.328 C 
ATOM     43  O   LIG    1        4.737   3.104   2.335  0.00  0.00    -0.249 OA
BRANCH  42  44
ATOM     44  OXT LIG    1        3.046   4.310   1.442  0.00  0.00    -0.479 OA
ATOM     45  HXT LIG    1        2.357   4.324   0.807  0.00  0.00    +0.295 HD
ENDBRANCH  42  44
ENDBRANCH   1  42
TORSDOF 14
