REMARK  Name = DB12339
REMARK                            x       y       z     vdW  Elec       q    Type
REMARK                         _______ _______ _______ _____ _____    ______ ____
ROOT
ATOM      1  C   LIG    1       -2.951   0.197   0.102  0.00  0.00    +0.042 A 
ATOM      2  C   LIG    1       -2.216   1.381   0.270  0.00  0.00    +0.062 A 
ATOM      3  C   LIG    1       -0.821   1.369   0.253  0.00  0.00    +0.133 A 
ATOM      4  F   LIG    1       -0.162   2.543   0.399  0.00  0.00    -0.205 F 
ATOM      5  C   LIG    1       -0.116   0.169   0.067  0.00  0.00    +0.017 A 
ATOM      6  C   LIG    1       -0.852  -1.008  -0.118  0.00  0.00    +0.013 A 
ATOM      7  C   LIG    1       -2.246  -0.996  -0.107  0.00  0.00    +0.024 A 
ENDROOT
BRANCH   1  12
ATOM      8  C   LIG    1       -6.610  -0.422  -0.267  0.00  0.00    +0.213 C 
ATOM      9  O   LIG    1       -6.477   0.646   0.643  0.00  0.00    -0.444 OA
ATOM     10  C   LIG    1       -5.204   1.085   0.784  0.00  0.00    +0.408 C 
ATOM     11  O   LIG    1       -4.947   2.111   1.412  0.00  0.00    -0.226 OA
ATOM     12  N   LIG    1       -4.368   0.186   0.101  0.00  0.00    -0.234 N 
ATOM     13  C   LIG    1       -5.187  -0.929  -0.348  0.00  0.00    +0.163 C 
BRANCH   8  14
ATOM     14  C   LIG    1       -7.198   0.145  -1.581  0.00  0.00    +0.150 C 
BRANCH  14  17
ATOM     15  C   LIG    1       -7.286  -2.365  -4.493  0.00  0.00    +0.109 C 
ATOM     16  C   LIG    1       -6.740  -1.265  -3.588  0.00  0.00    +0.210 C 
ATOM     17  N   LIG    1       -7.523  -0.890  -2.562  0.00  0.00    -0.312 N 
ATOM     18  H   LIG    1       -8.428  -1.328  -2.463  0.00  0.00    +0.149 HD
ATOM     19  O   LIG    1       -5.636  -0.775  -3.825  0.00  0.00    -0.276 OA
ENDBRANCH  14  17
ENDBRANCH   8  14
ENDBRANCH   1  12
BRANCH   5  20
ATOM     20  C   LIG    1        1.375   0.131   0.055  0.00  0.00    -0.015 A 
ATOM     21  C   LIG    1        2.060  -0.574  -0.943  0.00  0.00    +0.009 A 
ATOM     22  C   LIG    1        3.452  -0.605  -0.964  0.00  0.00    +0.005 A 
ATOM     23  C   LIG    1        4.178   0.068   0.019  0.00  0.00    -0.034 A 
ATOM     24  C   LIG    1        3.507   0.769   1.022  0.00  0.00    +0.005 A 
ATOM     25  C   LIG    1        2.116   0.795   1.040  0.00  0.00    +0.009 A 
BRANCH  23  26
ATOM     26  C   LIG    1        5.697   0.067  -0.019  0.00  0.00    +0.116 C 
BRANCH  26  27
ATOM     27  N   LIG    1        6.213  -1.022   0.800  0.00  0.00    -0.306 NA
ATOM     28  H   LIG    1        5.957  -0.842   1.761  0.00  0.00    +0.123 HD
BRANCH  27  29
ATOM     29  C   LIG    1        7.667  -1.073   0.726  0.00  0.00    +0.140 C 
BRANCH  29  30
ATOM     30  C   LIG    1        8.197  -2.235   1.536  0.00  0.00    +0.096 A 
ATOM     31  N   LIG    1        8.277  -3.446   1.035  0.00  0.00    -0.159 NA
ATOM     32  N   LIG    1        8.782  -4.157   2.049  0.00  0.00    -0.196 N 
ATOM     33  H   LIG    1        8.962  -5.147   1.968  0.00  0.00    +0.213 HD
ATOM     34  N   LIG    1        9.034  -3.484   3.176  0.00  0.00    -0.163 NA
ATOM     35  C   LIG    1        8.665  -2.271   2.854  0.00  0.00    +0.160 A 
ENDBRANCH  29  30
ENDBRANCH  27  29
ENDBRANCH  26  27
ENDBRANCH  23  26
ENDBRANCH   5  20
TORSDOF 8
