REMARK  Name = DB12013
REMARK                            x       y       z     vdW  Elec       q    Type
REMARK                         _______ _______ _______ _____ _____    ______ ____
ROOT
ATOM      1  C   LIG    1       -4.317   2.284   0.905  0.00  0.00    +0.016 C 
ATOM      2  C   LIG    1       -3.709   0.848   1.082  0.00  0.00    -0.007 C 
ATOM      3  C   LIG    1       -2.230   0.794   1.571  0.00  0.00    -0.068 C 
ATOM      4  N   LIG    1       -1.412   1.595   0.537  0.00  0.00    +0.384 N 
ATOM      5  H   LIG    1       -1.779   1.418  -0.387  0.00  0.00    -0.081 HD
ATOM      6  C   LIG    1       -1.794   3.030   0.952  0.00  0.00    -0.068 C 
ATOM      7  C   LIG    1       -1.709   2.999   2.492  0.00  0.00    -0.017 C 
ATOM      8  C   LIG    1       -1.917   1.530   2.887  0.00  0.00    -0.017 C 
ATOM      9  C   LIG    1       -3.218   3.277   0.389  0.00  0.00    -0.007 C 
ENDROOT
BRANCH   1  14
ATOM     10  C   LIG    1       -6.441   4.659   3.035  0.00  0.00    +0.001 A 
ATOM     11  C   LIG    1       -6.556   3.976   4.242  0.00  0.00    +0.013 A 
ATOM     12  C   LIG    1       -5.964   2.715   4.406  0.00  0.00    +0.037 A 
ATOM     13  C   LIG    1       -5.247   2.166   3.332  0.00  0.00    +0.017 A 
ATOM     14  C   LIG    1       -5.093   2.853   2.117  0.00  0.00    -0.044 A 
ATOM     15  C   LIG    1       -5.721   4.099   1.983  0.00  0.00    +0.004 A 
BRANCH  12  16
ATOM     16  C   LIG    1       -6.074   1.950   5.708  0.00  0.00    +0.242 C 
ATOM     17  N   LIG    1       -7.033   2.324   6.561  0.00  0.00    -0.325 N 
ATOM     18  H   LIG    1       -7.140   1.845   7.443  0.00  0.00    +0.145 HD
ATOM     19  H   LIG    1       -7.664   3.075   6.323  0.00  0.00    +0.145 HD
ATOM     20  O   LIG    1       -5.311   1.021   5.972  0.00  0.00    -0.270 OA
ENDBRANCH  12  16
ENDBRANCH   1  14
BRANCH   4  21
ATOM     21  C   LIG    1        0.110   1.322   0.512  0.00  0.00    -0.059 C 
BRANCH  21  22
ATOM     22  C   LIG    1        0.399  -0.064  -0.109  0.00  0.00    +0.089 C 
BRANCH  22  23
ATOM     23  N   LIG    1        1.825  -0.426  -0.132  0.00  0.00    -0.301 N 
ATOM     24  C   LIG    1        2.561  -0.740   0.974  0.00  0.00    +0.246 C 
ATOM     25  O   LIG    1        3.773  -0.969   0.904  0.00  0.00    -0.273 OA
BRANCH  24  26
ATOM     26  C   LIG    1        1.891  -0.825   2.370  0.00  0.00    +0.225 C 
BRANCH  26  27
ATOM     27  O   LIG    1        2.204  -2.086   2.938  0.00  0.00    -0.380 OA
ATOM     28  H   LIG    1        2.086  -2.028   3.890  0.00  0.00    +0.211 HD
ENDBRANCH  26  27
BRANCH  26  29
ATOM     29  C   LIG    1        2.407   0.285   3.317  0.00  0.00    +0.196 C 
BRANCH  29  30
ATOM     30  O   LIG    1        1.671   0.306   4.525  0.00  0.00    -0.392 OA
ATOM     31  H   LIG    1        2.054   0.969   5.106  0.00  0.00    +0.210 HD
ENDBRANCH  29  30
ENDBRANCH  26  29
ENDBRANCH  24  26
BRANCH  23  32
ATOM     32  C   LIG    1        2.451  -0.384  -1.468  0.00  0.00    +0.111 C 
BRANCH  32  33
ATOM     33  C   LIG    1        2.917   1.027  -1.911  0.00  0.00    +0.006 C 
ATOM     34  C   LIG    1        4.234   0.957  -2.716  0.00  0.00    +0.005 C 
ATOM     35  C   LIG    1        4.743   2.366  -3.083  0.00  0.00    +0.000 C 
ATOM     36  C   LIG    1        3.676   3.170  -3.860  0.00  0.00    +0.000 C 
ATOM     37  C   LIG    1        2.301   3.166  -3.155  0.00  0.00    +0.000 C 
ATOM     38  C   LIG    1        1.859   1.734  -2.792  0.00  0.00    +0.005 C 
ENDBRANCH  32  33
ENDBRANCH  23  32
ENDBRANCH  22  23
ENDBRANCH  21  22
ENDBRANCH   4  21
TORSDOF 11
