REMARK  Name = DB12359
REMARK                            x       y       z     vdW  Elec       q    Type
REMARK                         _______ _______ _______ _____ _____    ______ ____
ROOT
ATOM      1  N   LIG    1       -1.373   4.128   2.817  0.00  0.00    -0.201 NA
ATOM      2  C   LIG    1       -1.712   4.344   1.518  0.00  0.00    +0.162 A 
ATOM      3 CL   LIG    1       -2.473   5.831   1.082  0.00  0.00    -0.060 Cl
ATOM      4  C   LIG    1       -1.442   3.364   0.547  0.00  0.00    +0.145 A 
ATOM      5  N   LIG    1       -1.664   3.313  -0.804  0.00  0.00    -0.231 NA
ATOM      6  C   LIG    1       -1.185   2.145  -1.157  0.00  0.00    +0.202 A 
ATOM      7  N   LIG    1       -0.667   1.397  -0.119  0.00  0.00    -0.309 N 
ATOM      8  C   LIG    1       -0.816   2.181   1.008  0.00  0.00    +0.167 A 
ATOM      9  N   LIG    1       -0.466   1.931   2.277  0.00  0.00    -0.195 NA
ATOM     10  C   LIG    1       -0.774   2.948   3.128  0.00  0.00    +0.216 A 
ENDROOT
BRANCH  10  11
ATOM     11  N   LIG    1       -0.439   2.759   4.464  0.00  0.00    -0.327 N 
ATOM     12  H   LIG    1       -0.646   3.487   5.132  0.00  0.00    +0.145 HD
ATOM     13  H   LIG    1        0.014   1.901   4.744  0.00  0.00    +0.145 HD
ENDBRANCH  10  11
BRANCH   7  14
ATOM     14  C   LIG    1       -0.037   0.080  -0.221  0.00  0.00    +0.180 C 
BRANCH  14  15
ATOM     15  C   LIG    1        1.492   0.026  -0.082  0.00  0.00    +0.067 A 
ATOM     16  C   LIG    1        2.177  -1.204  -0.058  0.00  0.00    +0.014 A 
ATOM     17  C   LIG    1        3.581  -1.184   0.045  0.00  0.00    +0.129 A 
ATOM     18  C   LIG    1        4.250   0.045   0.147  0.00  0.00    +0.010 A 
ATOM     19  C   LIG    1        3.491   1.216   0.120  0.00  0.00    +0.118 A 
ATOM     20  C   LIG    1        5.760   0.120   0.306  0.00  0.00    +0.049 C 
ATOM     21  C   LIG    1        1.418  -2.526  -0.136  0.00  0.00    +0.049 C 
ATOM     22  N   LIG    1        2.143   1.219  -0.002  0.00  0.00    -0.257 NA
BRANCH  17  23
ATOM     23  O   LIG    1        4.301  -2.355   0.066  0.00  0.00    -0.494 OA
ATOM     24  C   LIG    1        4.691  -2.821  -1.220  0.00  0.00    +0.277 C 
ENDBRANCH  17  23
ENDBRANCH  14  15
ENDBRANCH   7  14
TORSDOF 4
