REMARK  Name = DB12753
REMARK                            x       y       z     vdW  Elec       q    Type
REMARK                         _______ _______ _______ _____ _____    ______ ____
ROOT
ATOM      1  C   LIG    1        3.440  -2.480  -2.597  0.00  0.00    +0.135 A 
ATOM      2  N   LIG    1        2.415  -3.005  -1.843  0.00  0.00    -0.269 N 
ATOM      3  C   LIG    1        2.002  -4.317  -2.038  0.00  0.00    +0.352 A 
ATOM      4  O   LIG    1        1.111  -4.782  -1.325  0.00  0.00    -0.244 OA
ATOM      5  N   LIG    1        2.655  -5.030  -3.069  0.00  0.00    -0.175 NA
ATOM      6  C   LIG    1        3.611  -4.527  -3.772  0.00  0.00    +0.159 A 
ATOM      7  C   LIG    1        4.066  -3.178  -3.556  0.00  0.00    +0.179 A 
ATOM      8  F   LIG    1        5.074  -2.640  -4.279  0.00  0.00    -0.200 F 
ENDROOT
BRANCH   2   9
ATOM      9  C   LIG    1        1.814  -2.207  -0.776  0.00  0.00    +0.235 C 
ATOM     10  O   LIG    1        2.002  -0.824  -0.890  0.00  0.00    -0.340 OA
ATOM     11  C   LIG    1        1.490  -0.143   0.252  0.00  0.00    +0.203 C 
ATOM     12  S   LIG    1        1.790  -1.216   1.673  0.00  0.00    -0.123 S 
ATOM     13  C   LIG    1        2.275  -2.596   0.626  0.00  0.00    +0.126 C 
BRANCH  11  14
ATOM     14  C   LIG    1       -0.004   0.211   0.100  0.00  0.00    +0.198 C 
BRANCH  14  15
ATOM     15  O   LIG    1       -0.183   1.165  -0.927  0.00  0.00    -0.392 OA
ATOM     16  H   LIG    1       -1.119   1.367  -0.997  0.00  0.00    +0.210 HD
ENDBRANCH  14  15
ENDBRANCH  11  14
ENDBRANCH   2   9
BRANCH   6  17
ATOM     17  N   LIG    1        4.208  -5.253  -4.730  0.00  0.00    -0.341 N 
ATOM     18  H   LIG    1        4.959  -4.859  -5.280  0.00  0.00    +0.144 HD
ATOM     19  H   LIG    1        3.913  -6.201  -4.909  0.00  0.00    +0.144 HD
ENDBRANCH   6  17
TORSDOF 4
