REMARK  Name = DB12263
REMARK                            x       y       z     vdW  Elec       q    Type
REMARK                         _______ _______ _______ _____ _____    ______ ____
ROOT
ATOM      1  C   LIG    1        1.715   0.059   0.051  0.00  0.00    +0.122 C 
ENDROOT
BRANCH   1   2
ATOM      2  N   LIG    1        0.258   0.238  -0.177  0.00  0.00    -0.183 NA
ATOM      3  H   LIG    1       -0.297  -0.576  -0.456  0.00  0.00    +0.148 HD
BRANCH   2   4
ATOM      4  S   LIG    1       -0.513   1.826  -0.126  0.00  0.00    +0.065 S 
ATOM      5  O   LIG    1       -1.966   1.633  -0.175  0.00  0.00    -0.153 OA
ATOM      6  O   LIG    1        0.126   2.642   0.913  0.00  0.00    -0.153 OA
BRANCH   4   8
ATOM      7  C   LIG    1       -0.529   2.088  -2.958  0.00  0.00    +0.038 A 
ATOM      8  C   LIG    1       -0.034   2.507  -1.729  0.00  0.00    +0.144 A 
ATOM      9  S   LIG    1        1.117   3.797  -1.897  0.00  0.00    -0.057 S 
ATOM     10  C   LIG    1        0.938   3.761  -3.623  0.00  0.00    +0.080 A 
ATOM     11 CL   LIG    1        1.838   4.840  -4.610  0.00  0.00    -0.076 Cl
ATOM     12  C   LIG    1        0.025   2.797  -4.030  0.00  0.00    +0.030 A 
ENDBRANCH   4   8
ENDBRANCH   2   4
ENDBRANCH   1   2
BRANCH   1  13
ATOM     13  C   LIG    1        1.956  -0.800   1.349  0.00  0.00    +0.217 C 
BRANCH  13  14
ATOM     14  C   LIG    1        3.431  -1.287   1.524  0.00  0.00    +0.403 C 
ATOM     15  F   LIG    1        3.655  -1.880   2.696  0.00  0.00    -0.170 F 
ATOM     16  F   LIG    1        4.291  -0.272   1.432  0.00  0.00    -0.170 F 
ATOM     17  F   LIG    1        3.772  -2.188   0.603  0.00  0.00    -0.170 F 
ENDBRANCH  13  14
BRANCH  13  18
ATOM     18  C   LIG    1        1.430  -0.089   2.638  0.00  0.00    +0.403 C 
ATOM     19  F   LIG    1        2.068   1.063   2.849  0.00  0.00    -0.170 F 
ATOM     20  F   LIG    1        1.588  -0.830   3.735  0.00  0.00    -0.170 F 
ATOM     21  F   LIG    1        0.127   0.186   2.584  0.00  0.00    -0.170 F 
ENDBRANCH  13  18
ENDBRANCH   1  13
BRANCH   1  22
ATOM     22  C   LIG    1        2.362  -0.526  -1.234  0.00  0.00    +0.177 C 
BRANCH  22  23
ATOM     23  O   LIG    1        2.154   0.280  -2.377  0.00  0.00    -0.393 OA
ATOM     24  H   LIG    1        2.595  -0.129  -3.125  0.00  0.00    +0.209 HD
ENDBRANCH  22  23
ENDBRANCH   1  22
TORSDOF 8
