REMARK  Name = DB12049
REMARK                            x       y       z     vdW  Elec       q    Type
REMARK                         _______ _______ _______ _____ _____    ______ ____
ROOT
ATOM      1  C   LIG    1        3.977   0.833   2.460  0.00  0.00    +0.039 C 
ATOM      2  N   LIG    1        5.247   0.194   3.074  0.00  0.00    +0.388 N 
ATOM      3  H   LIG    1        5.939   0.076   2.347  0.00  0.00    -0.085 HD
ATOM      4  H   LIG    1        5.024  -0.723   3.434  0.00  0.00    -0.085 HD
ATOM      5  C   LIG    1        5.856   1.053   4.202  0.00  0.00    -0.078 C 
ATOM      6  C   LIG    1        6.154   2.485   3.683  0.00  0.00    -0.025 C 
ATOM      7  C   LIG    1        6.794   3.424   4.735  0.00  0.00    +0.005 C 
ATOM      8  C   LIG    1        5.803   3.841   5.843  0.00  0.00    +0.045 C 
ATOM      9  C   LIG    1        4.515   4.450   5.227  0.00  0.00    +0.174 C 
ATOM     10  C   LIG    1        3.866   3.543   4.150  0.00  0.00    +0.048 C 
ATOM     11  C   LIG    1        4.896   3.151   3.057  0.00  0.00    -0.007 C 
ATOM     12  C   LIG    1        4.329   2.250   1.938  0.00  0.00    -0.001 C 
ENDROOT
BRANCH   1  13
ATOM     13  C   LIG    1        3.486  -0.091   1.323  0.00  0.00    +0.293 C 
ATOM     14  O   LIG    1        4.157  -1.014   0.847  0.00  0.00    -0.253 OA
BRANCH  13  15
ATOM     15  O   LIG    1        2.242   0.249   0.931  0.00  0.00    -0.465 OA
BRANCH  15  16
ATOM     16  C   LIG    1        1.585  -0.454  -0.119  0.00  0.00    +0.235 C 
BRANCH  16  17
ATOM     17  C   LIG    1        0.194   0.159  -0.405  0.00  0.00    +0.026 C 
BRANCH  17  19
ATOM     18  C   LIG    1       -0.867  -2.134  -1.037  0.00  0.00    +0.004 C 
ATOM     19  C   LIG    1       -0.594  -0.677  -1.447  0.00  0.00    +0.003 C 
ENDBRANCH  17  19
BRANCH  17  20
ATOM     20  C   LIG    1        0.309   1.650  -0.823  0.00  0.00    +0.003 C 
ATOM     21  C   LIG    1       -1.025   2.413  -0.880  0.00  0.00    +0.004 C 
ENDBRANCH  17  20
ENDBRANCH  16  17
ENDBRANCH  15  16
ENDBRANCH  13  15
ENDBRANCH   1  13
BRANCH   9  22
ATOM     22  O   LIG    1        3.598   5.004   6.177  0.00  0.00    -0.488 OA
BRANCH  22  23
ATOM     23  C   LIG    1        2.901   4.264   7.121  0.00  0.00    +0.133 A 
ATOM     24  C   LIG    1        2.044   4.980   7.984  0.00  0.00    +0.080 A 
ATOM     25  C   LIG    1        1.295   4.293   8.958  0.00  0.00    +0.055 A 
ATOM     26 CL   LIG    1        0.249   5.121  10.063  0.00  0.00    -0.083 Cl
ATOM     27  C   LIG    1        1.396   2.908   9.069  0.00  0.00    +0.021 A 
ATOM     28  C   LIG    1        2.239   2.197   8.223  0.00  0.00    +0.005 A 
ATOM     29  C   LIG    1        2.986   2.868   7.260  0.00  0.00    +0.046 A 
BRANCH  24  30
ATOM     30  C   LIG    1        1.940   6.471   7.854  0.00  0.00    +0.184 A 
ATOM     31  N   LIG    1        2.944   7.277   8.118  0.00  0.00    -0.108 NA
ATOM     32  N   LIG    1        2.459   8.540   7.872  0.00  0.00    -0.023 NA
ATOM     33  N   LIG    1        1.157   8.416   7.462  0.00  0.00    -0.046 NA
ATOM     34  N   LIG    1        0.845   7.076   7.455  0.00  0.00    -0.239 N 
ATOM     35  H   LIG    1       -0.012   6.662   7.205  0.00  0.00    +0.192 HD
ENDBRANCH  24  30
ENDBRANCH  22  23
ENDBRANCH   9  22
TORSDOF 9
