REMARK  Name = DB12533
REMARK                            x       y       z     vdW  Elec       q    Type
REMARK                         _______ _______ _______ _____ _____    ______ ____
ROOT
ATOM      1  C   LIG    1       -5.278  -0.296   1.186  0.00  0.00    +0.135 A 
ATOM      2  N   LIG    1       -6.648  -0.375   1.043  0.00  0.00    -0.182 N 
ATOM      3  N   LIG    1       -7.594  -0.709   1.952  0.00  0.00    -0.151 NA
ATOM      4  C   LIG    1       -8.707  -0.620   1.250  0.00  0.00    +0.247 A 
ATOM      5  N   LIG    1       -8.621  -0.280  -0.021  0.00  0.00    -0.197 NA
ATOM      6  C   LIG    1       -7.284  -0.125  -0.175  0.00  0.00    +0.256 A 
ATOM      7  N   LIG    1       -6.597   0.200  -1.271  0.00  0.00    -0.198 NA
ATOM      8  C   LIG    1       -5.243   0.268  -1.162  0.00  0.00    +0.144 A 
ATOM      9 CL   LIG    1       -4.399   0.657  -2.623  0.00  0.00    -0.061 Cl
ATOM     10  C   LIG    1       -4.535   0.026   0.033  0.00  0.00    +0.064 A 
ENDROOT
BRANCH  10  11
ATOM     11  C   LIG    1       -3.045   0.128   0.070  0.00  0.00    +0.059 A 
ATOM     12  C   LIG    1       -2.414   1.380   0.036  0.00  0.00    +0.137 A 
ATOM     13  F   LIG    1       -3.150   2.514  -0.023  0.00  0.00    -0.205 F 
ATOM     14  C   LIG    1       -1.023   1.475   0.068  0.00  0.00    +0.084 A 
ATOM     15  C   LIG    1       -0.229   0.319   0.137  0.00  0.00    +0.126 A 
ATOM     16  C   LIG    1       -0.861  -0.924   0.177  0.00  0.00    +0.084 A 
ATOM     17  C   LIG    1       -2.251  -1.024   0.145  0.00  0.00    +0.137 A 
ATOM     18  F   LIG    1       -2.825  -2.249   0.182  0.00  0.00    -0.205 F 
BRANCH  15  19
ATOM     19  O   LIG    1        1.152   0.317   0.168  0.00  0.00    -0.492 OA
BRANCH  19  20
ATOM     20  C   LIG    1        1.854   1.554   0.112  0.00  0.00    +0.227 C 
BRANCH  20  21
ATOM     21  C   LIG    1        3.360   1.258   0.114  0.00  0.00    +0.022 C 
BRANCH  21  22
ATOM     22  C   LIG    1        4.211   2.535   0.064  0.00  0.00    -0.080 C 
BRANCH  22  23
ATOM     23  N   LIG    1        5.699   2.155   0.061  0.00  0.00    +0.377 N 
ATOM     24  H   LIG    1        5.884   1.563  -0.737  0.00  0.00    -0.086 HD
ATOM     25  H   LIG    1        5.902   1.621   0.895  0.00  0.00    -0.086 HD
ATOM     26  C   LIG    1        6.637   3.368   0.009  0.00  0.00    -0.101 C 
ENDBRANCH  22  23
ENDBRANCH  21  22
ENDBRANCH  20  21
ENDBRANCH  19  20
ENDBRANCH  15  19
ENDBRANCH  10  11
BRANCH   1  27
ATOM     27  N   LIG    1       -4.610  -0.543   2.406  0.00  0.00    -0.318 N 
ATOM     28  H   LIG    1       -3.604  -0.599   2.337  0.00  0.00    +0.148 HD
BRANCH  27  30
ATOM     29  C   LIG    1       -4.177  -0.586   4.822  0.00  0.00    +0.037 C 
ATOM     30  C   LIG    1       -5.102  -0.070   3.703  0.00  0.00    +0.173 C 
BRANCH  30  31
ATOM     31  C   LIG    1       -5.282   1.472   3.779  0.00  0.00    +0.407 C 
ATOM     32  F   LIG    1       -4.130   2.111   3.570  0.00  0.00    -0.169 F 
ATOM     33  F   LIG    1       -5.726   1.844   4.980  0.00  0.00    -0.169 F 
ATOM     34  F   LIG    1       -6.160   1.937   2.890  0.00  0.00    -0.169 F 
ENDBRANCH  30  31
ENDBRANCH  27  30
ENDBRANCH   1  27
TORSDOF 9
