REMARK  Name = DB12513
REMARK                            x       y       z     vdW  Elec       q    Type
REMARK                         _______ _______ _______ _____ _____    ______ ____
ROOT
ATOM      1  C   LIG    1       -2.092   1.620  -3.157  0.00  0.00    +0.013 C 
ATOM      2  C   LIG    1       -0.590   1.627  -2.691  0.00  0.00    -0.013 C 
ATOM      3  C   LIG    1        0.341   2.320  -3.809  0.00  0.00    -0.004 C 
ATOM      4  C   LIG    1        1.852   2.372  -3.395  0.00  0.00    +0.016 C 
ATOM      5  C   LIG    1       -0.120   3.797  -4.043  0.00  0.00    +0.012 C 
ATOM      6  C   LIG    1        0.346   4.420  -5.356  0.00  0.00    +0.006 C 
ATOM      7  C   LIG    1       -0.140   3.556  -6.538  0.00  0.00    +0.016 C 
ATOM      8  C   LIG    1       -0.165   4.329  -7.920  0.00  0.00    +0.033 C 
ATOM      9  C   LIG    1        1.172   5.059  -8.234  0.00  0.00    +0.019 C 
ATOM     10  C   LIG    1       -1.349   5.344  -7.906  0.00  0.00    +0.019 C 
ATOM     11  C   LIG    1       -0.453   3.373  -9.119  0.00  0.00    +0.179 C 
ATOM     12  O   LIG    1       -0.724   3.803 -10.243  0.00  0.00    -0.291 OA
ATOM     13  C   LIG    1       -0.422   1.929  -8.880  0.00  0.00    +0.092 C 
ATOM     14  C   LIG    1        0.016   1.383  -7.727  0.00  0.00    +0.006 C 
ATOM     15  C   LIG    1        0.563   2.146  -6.508  0.00  0.00    +0.013 C 
ATOM     16  C   LIG    1        2.105   2.169  -6.718  0.00  0.00    +0.020 C 
ATOM     17  C   LIG    1        0.275   1.453  -5.125  0.00  0.00    -0.050 C 
ATOM     18  C   LIG    1        0.099   0.103  -5.023  0.00  0.00    +0.047 C 
ATOM     19  C   LIG    1       -0.092  -0.661  -3.794  0.00  0.00    +0.160 C 
ATOM     20  O   LIG    1       -0.244  -1.881  -3.832  0.00  0.00    -0.292 OA
ATOM     21  C   LIG    1       -0.060   0.152  -2.482  0.00  0.00    +0.071 C 
ATOM     22  C   LIG    1       -0.477  -0.629  -1.173  0.00  0.00    +0.024 C 
ATOM     23  C   LIG    1       -1.893  -1.295  -1.152  0.00  0.00    +0.012 C 
ATOM     24  C   LIG    1       -2.126  -2.186   0.094  0.00  0.00    -0.034 C 
ATOM     25  C   LIG    1       -3.566  -2.745   0.008  0.00  0.00    +0.011 C 
ATOM     26  C   LIG    1       -1.097  -3.340   0.220  0.00  0.00    +0.011 C 
ATOM     27  C   LIG    1       -2.065  -1.202   1.290  0.00  0.00    +0.008 C 
ATOM     28  C   LIG    1       -0.703  -0.478   1.402  0.00  0.00    +0.026 C 
ATOM     29  C   LIG    1       -0.211   0.260   0.103  0.00  0.00    +0.038 C 
ATOM     30  C   LIG    1       -1.060   1.551  -0.125  0.00  0.00    +0.026 C 
ATOM     31  C   LIG    1       -0.569   2.396  -1.323  0.00  0.00    +0.010 C 
ENDROOT
BRANCH  29  32
ATOM     32  N   LIG    1        1.243   0.515   0.178  0.00  0.00    -0.305 N 
ATOM     33  H   LIG    1        1.792   0.051  -0.531  0.00  0.00    +0.149 HD
ATOM     34  C   LIG    1        1.909   1.294   1.056  0.00  0.00    +0.283 C 
ATOM     35  O   LIG    1        1.353   1.901   1.973  0.00  0.00    -0.269 OA
BRANCH  34  36
ATOM     36  C   LIG    1        3.441   1.396   0.892  0.00  0.00    +0.320 C 
ATOM     37  F   LIG    1        3.787   2.681   0.994  0.00  0.00    -0.196 F 
ATOM     38  F   LIG    1        3.799   0.980  -0.327  0.00  0.00    -0.196 F 
ATOM     39  C   LIG    1        4.165   0.570   1.970  0.00  0.00    +0.095 C 
ENDBRANCH  34  36
ENDBRANCH  29  32
BRANCH  13  40
ATOM     40  C   LIG    1       -0.841   1.053  -9.929  0.00  0.00    +0.102 C 
ATOM     41  N   LIG    1       -1.180   0.325 -10.763  0.00  0.00    -0.191 NA
ENDBRANCH  13  40
TORSDOF 3
