REMARK  Name = DB12557
REMARK                            x       y       z     vdW  Elec       q    Type
REMARK                         _______ _______ _______ _____ _____    ______ ____
ROOT
ATOM      1  C   LIG    1        3.422  -3.799   0.755  0.00  0.00    +0.040 A 
ATOM      2  C   LIG    1        4.622  -4.408   1.173  0.00  0.00    +0.041 A 
ATOM      3  C   LIG    1        4.716  -5.801   1.088  0.00  0.00    +0.070 A 
ATOM      4  N   LIG    1        5.712  -6.707   1.401  0.00  0.00    -0.323 N 
ATOM      5  C   LIG    1        5.222  -7.957   1.064  0.00  0.00    +0.108 A 
ATOM      6  C   LIG    1        6.017  -9.237   1.216  0.00  0.00    +0.086 C 
ATOM      7  N   LIG    1        3.999  -7.925   0.596  0.00  0.00    -0.233 NA
ATOM      8  C   LIG    1        3.660  -6.600   0.595  0.00  0.00    +0.089 A 
ATOM      9  C   LIG    1        2.469  -5.995   0.183  0.00  0.00    +0.030 A 
ATOM     10  C   LIG    1        2.370  -4.607   0.270  0.00  0.00    +0.015 A 
ENDROOT
BRANCH   1  13
ATOM     11  N   LIG    1        2.134  -1.775   0.514  0.00  0.00    -0.186 N 
ATOM     12  H   LIG    1        1.408  -2.375   0.228  0.00  0.00    +0.176 HD
ATOM     13  C   LIG    1        3.305  -2.279   0.840  0.00  0.00    +0.263 C 
ATOM     14  O   LIG    1        4.293  -1.631   1.204  0.00  0.00    -0.269 OA
BRANCH  11  15
ATOM     15  S   LIG    1        1.881  -0.225   0.576  0.00  0.00    +0.045 S 
ATOM     16  O   LIG    1        1.973   0.310   1.940  0.00  0.00    -0.155 OA
ATOM     17  O   LIG    1        2.585   0.501  -0.487  0.00  0.00    -0.155 OA
BRANCH  15  18
ATOM     18  C   LIG    1        0.046  -0.105   0.124  0.00  0.00    +0.189 C 
BRANCH  18  19
ATOM     19  C   LIG    1       -0.416   1.362   0.140  0.00  0.00    +0.024 C 
BRANCH  19  20
ATOM     20  C   LIG    1       -1.904   1.520  -0.217  0.00  0.00    +0.001 C 
BRANCH  20  22
ATOM     21  C   LIG    1       -3.861   3.141  -0.539  0.00  0.00    +0.004 C 
ATOM     22  C   LIG    1       -2.375   2.984  -0.191  0.00  0.00    -0.003 C 
ENDBRANCH  20  22
ENDBRANCH  19  20
ENDBRANCH  18  19
ENDBRANCH  15  18
ENDBRANCH  11  15
ENDBRANCH   1  13
BRANCH   4  23
ATOM     23  C   LIG    1        7.045  -6.385   1.915  0.00  0.00    +0.160 C 
BRANCH  23  24
ATOM     24  C   LIG    1        8.059  -5.848   0.895  0.00  0.00    -0.009 A 
ATOM     25  C   LIG    1        9.313  -5.388   1.334  0.00  0.00    +0.047 A 
ATOM     26 CL   LIG    1        9.751  -5.419   3.008  0.00  0.00    -0.083 Cl
ATOM     27  C   LIG    1       10.242  -4.892   0.417  0.00  0.00    +0.040 A 
ATOM     28  C   LIG    1        9.937  -4.850  -0.942  0.00  0.00    +0.042 A 
ATOM     29 CL   LIG    1       11.089  -4.232  -2.069  0.00  0.00    -0.083 Cl
ATOM     30  C   LIG    1        8.700  -5.309  -1.390  0.00  0.00    +0.020 A 
ATOM     31  C   LIG    1        7.769  -5.805  -0.478  0.00  0.00    +0.008 A 
ENDBRANCH  23  24
ENDBRANCH   4  23
TORSDOF 8
