REMARK  Name = DB12214
REMARK                            x       y       z     vdW  Elec       q    Type
REMARK                         _______ _______ _______ _____ _____    ______ ____
ROOT
ATOM      1  C   LIG    1       -2.153   1.171  -0.091  0.00  0.00    -0.040 A 
ATOM      2  C   LIG    1       -2.849  -0.043   0.025  0.00  0.00    -0.043 A 
ATOM      3  C   LIG    1       -4.371  -0.091   0.063  0.00  0.00    +0.044 C 
ATOM      4  C   LIG    1       -2.139  -1.242   0.129  0.00  0.00    +0.049 A 
ATOM      5  C   LIG    1       -0.734  -1.268   0.114  0.00  0.00    +0.125 A 
ATOM      6  C   LIG    1       -0.037  -0.053  -0.004  0.00  0.00    +0.010 A 
ATOM      7  C   LIG    1       -0.753   1.145  -0.098  0.00  0.00    +0.012 A 
ENDROOT
BRANCH   6   8
ATOM      8  C   LIG    1        1.500  -0.005  -0.041  0.00  0.00    +0.111 C 
ATOM      9  S   LIG    1        2.137   0.842   1.438  0.00  0.00    -0.142 S 
ATOM     10  C   LIG    1        3.895   0.440   1.163  0.00  0.00    +0.103 C 
ATOM     11  C   LIG    1        4.371   1.135  -0.140  0.00  0.00    +0.161 C 
ATOM     12  C   LIG    1        3.638   0.598  -1.405  0.00  0.00    +0.174 C 
ATOM     13  C   LIG    1        2.084   0.654  -1.325  0.00  0.00    +0.163 C 
BRANCH  11  14
ATOM     14  O   LIG    1        5.774   0.999  -0.303  0.00  0.00    -0.388 OA
ATOM     15  H   LIG    1        5.984   0.064  -0.364  0.00  0.00    +0.210 HD
ENDBRANCH  11  14
BRANCH  12  16
ATOM     16  O   LIG    1        4.095   1.267  -2.572  0.00  0.00    -0.387 OA
ATOM     17  H   LIG    1        5.034   1.445  -2.470  0.00  0.00    +0.210 HD
ENDBRANCH  12  16
BRANCH  13  18
ATOM     18  O   LIG    1        1.512   0.074  -2.487  0.00  0.00    -0.388 OA
ATOM     19  H   LIG    1        1.843   0.547  -3.254  0.00  0.00    +0.210 HD
ENDBRANCH  13  18
BRANCH  10  20
ATOM     20  C   LIG    1        4.704   0.828   2.425  0.00  0.00    +0.172 C 
BRANCH  20  21
ATOM     21  O   LIG    1        4.324   0.053   3.545  0.00  0.00    -0.394 OA
ATOM     22  H   LIG    1        3.415   0.270   3.769  0.00  0.00    +0.209 HD
ENDBRANCH  20  21
ENDBRANCH  10  20
ENDBRANCH   6   8
BRANCH   5  23
ATOM     23  O   LIG    1        0.002  -2.437   0.210  0.00  0.00    -0.495 OA
ATOM     24  C   LIG    1       -0.666  -3.687   0.331  0.00  0.00    +0.277 C 
ENDBRANCH   5  23
BRANCH   1  25
ATOM     25  C   LIG    1       -2.905   2.504  -0.220  0.00  0.00    +0.070 C 
BRANCH  25  29
ATOM     26  C   LIG    1       -0.735   5.776  -2.034  0.00  0.00    +0.121 A 
ATOM     27  C   LIG    1       -0.870   5.704  -0.638  0.00  0.00    +0.046 A 
ATOM     28  C   LIG    1       -1.570   4.652  -0.055  0.00  0.00    +0.007 A 
ATOM     29  C   LIG    1       -2.134   3.658  -0.857  0.00  0.00    -0.043 A 
ATOM     30  C   LIG    1       -2.014   3.732  -2.245  0.00  0.00    +0.007 A 
ATOM     31  C   LIG    1       -1.314   4.785  -2.827  0.00  0.00    +0.046 A 
BRANCH  26  32
ATOM     32  O   LIG    1       -0.056   6.779  -2.700  0.00  0.00    -0.492 OA
BRANCH  32  34
ATOM     33  C   LIG    1        1.266   8.774  -2.923  0.00  0.00    +0.048 C 
ATOM     34  C   LIG    1        0.581   7.810  -1.950  0.00  0.00    +0.225 C 
ENDBRANCH  32  34
ENDBRANCH  26  32
ENDBRANCH  25  29
ENDBRANCH   1  25
TORSDOF 11
