REMARK  Name = DB12714
REMARK                            x       y       z     vdW  Elec       q    Type
REMARK                         _______ _______ _______ _____ _____    ______ ____
ROOT
ATOM      1  N   LIG    1        1.599   0.407  -0.294  0.00  0.00    -0.237 N 
ENDROOT
BRANCH   1   2
ATOM      2  N   LIG    1        2.201   0.383   0.974  0.00  0.00    -0.265 N 
ATOM      3  C   LIG    1        2.482  -0.752   1.719  0.00  0.00    +0.069 A 
ATOM      4  C   LIG    1        2.269  -2.112   1.452  0.00  0.00    +0.028 A 
ATOM      5  C   LIG    1        2.678  -3.027   2.422  0.00  0.00    +0.002 A 
ATOM      6  C   LIG    1        3.272  -2.617   3.611  0.00  0.00    +0.001 A 
ATOM      7  C   LIG    1        3.484  -1.267   3.882  0.00  0.00    +0.010 A 
ATOM      8  C   LIG    1        3.090  -0.306   2.936  0.00  0.00    +0.004 A 
ATOM      9  C   LIG    1        3.156   1.129   2.896  0.00  0.00    -0.023 A 
ATOM     10  C   LIG    1        3.720   2.038   3.963  0.00  0.00    +0.046 C 
ATOM     11  C   LIG    1        2.600   1.489   1.685  0.00  0.00    +0.113 A 
ENDBRANCH   1   2
BRANCH   1  12
ATOM     12  C   LIG    1        2.410   0.077  -1.395  0.00  0.00    +0.088 A 
ATOM     13  C   LIG    1        3.405   0.959  -1.848  0.00  0.00    +0.164 A 
ATOM     14  F   LIG    1        3.623   2.149  -1.238  0.00  0.00    -0.202 F 
ATOM     15  C   LIG    1        4.180   0.598  -2.951  0.00  0.00    +0.151 A 
ATOM     16  N   LIG    1        4.014  -0.569  -3.622  0.00  0.00    -0.260 NA
ATOM     17  C   LIG    1        3.043  -1.411  -3.188  0.00  0.00    +0.113 A 
ATOM     18  C   LIG    1        2.225  -1.126  -2.094  0.00  0.00    +0.047 A 
ENDBRANCH   1  12
BRANCH   1  19
ATOM     19  C   LIG    1        0.148   0.177  -0.311  0.00  0.00    +0.130 C 
BRANCH  19  21
ATOM     20  C   LIG    1       -2.165   0.857   0.550  0.00  0.00    +0.005 C 
ATOM     21  C   LIG    1       -0.648   0.966   0.750  0.00  0.00    +0.017 C 
ENDBRANCH  19  21
ENDBRANCH   1  19
TORSDOF 4
