REMARK  Name = DB12794
REMARK                            x       y       z     vdW  Elec       q    Type
REMARK                         _______ _______ _______ _____ _____    ______ ____
ROOT
ATOM      1  C   LIG    1       -2.827   0.000   0.000  0.00  0.00    -0.018 A 
ATOM      2  C   LIG    1       -2.108   1.201   0.046  0.00  0.00    +0.009 A 
ATOM      3  C   LIG    1       -0.716   1.201   0.045  0.00  0.00    +0.009 A 
ATOM      4  C   LIG    1        0.002   0.000   0.000  0.00  0.00    -0.018 A 
ATOM      5  C   LIG    1       -0.716  -1.201  -0.045  0.00  0.00    +0.009 A 
ATOM      6  C   LIG    1       -2.108  -1.201  -0.046  0.00  0.00    +0.009 A 
ENDROOT
BRANCH   1  10
ATOM      7  C   LIG    1       -7.125   0.000   0.000  0.00  0.00    +0.000 A 
ATOM      8  C   LIG    1       -6.434  -1.033   0.625  0.00  0.00    +0.001 A 
ATOM      9  C   LIG    1       -5.042  -1.031   0.624  0.00  0.00    +0.008 A 
ATOM     10  C   LIG    1       -4.324   0.000   0.000  0.00  0.00    -0.018 A 
ATOM     11  C   LIG    1       -5.042   1.031  -0.624  0.00  0.00    +0.008 A 
ATOM     12  C   LIG    1       -6.434   1.033  -0.625  0.00  0.00    +0.001 A 
ENDBRANCH   1  10
BRANCH   4  13
ATOM     13  C   LIG    1        1.498   0.000   0.000  0.00  0.00    -0.018 A 
ATOM     14  C   LIG    1        2.216  -1.017   0.639  0.00  0.00    +0.009 A 
ATOM     15  C   LIG    1        3.608  -1.017   0.640  0.00  0.00    +0.009 A 
ATOM     16  C   LIG    1        4.327   0.000   0.000  0.00  0.00    -0.018 A 
ATOM     17  C   LIG    1        3.608   1.017  -0.640  0.00  0.00    +0.009 A 
ATOM     18  C   LIG    1        2.216   1.017  -0.639  0.00  0.00    +0.009 A 
BRANCH  16  19
ATOM     19  C   LIG    1        5.824   0.000   0.000  0.00  0.00    -0.018 A 
ATOM     20  C   LIG    1        6.542   1.205   0.025  0.00  0.00    +0.008 A 
ATOM     21  C   LIG    1        7.934   1.207   0.025  0.00  0.00    +0.001 A 
ATOM     22  C   LIG    1        8.625   0.000   0.000  0.00  0.00    +0.000 A 
ATOM     23  C   LIG    1        7.934  -1.207  -0.025  0.00  0.00    +0.001 A 
ATOM     24  C   LIG    1        6.542  -1.205  -0.025  0.00  0.00    +0.008 A 
ENDBRANCH  16  19
ENDBRANCH   4  13
TORSDOF 3
