REMARK  Name = DB12362
REMARK                            x       y       z     vdW  Elec       q    Type
REMARK                         _______ _______ _______ _____ _____    ______ ____
ROOT
ATOM      1  C   LIG    1        1.354  -0.096  -0.065  0.00  0.00    +0.142 C 
ENDROOT
BRANCH   1   2
ATOM      2  O   LIG    1        2.116   0.564   0.930  0.00  0.00    -0.389 OA
ATOM      3  H   LIG    1        1.733   0.359   1.787  0.00  0.00    +0.210 HD
ENDBRANCH   1   2
BRANCH   1   4
ATOM      4  C   LIG    1       -0.154   0.250   0.084  0.00  0.00    +0.118 C 
BRANCH   4   5
ATOM      5  N   LIG    1       -0.449   1.701   0.092  0.00  0.00    -0.280 NA
BRANCH   5   6
ATOM      6  C   LIG    1       -1.825   1.861   0.619  0.00  0.00    +0.206 C 
BRANCH   6   7
ATOM      7  C   LIG    1       -1.885   1.751   2.157  0.00  0.00    +0.319 C 
ATOM      8  O   LIG    1       -0.903   1.693   2.898  0.00  0.00    -0.250 OA
BRANCH   7   9
ATOM      9  O   LIG    1       -3.178   1.746   2.589  0.00  0.00    -0.480 OA
ATOM     10  H   LIG    1       -3.241   1.680   3.544  0.00  0.00    +0.295 HD
ENDBRANCH   7   9
ENDBRANCH   6   7
ENDBRANCH   5   6
BRANCH   5  11
ATOM     11  C   LIG    1       -0.416   2.148  -1.317  0.00  0.00    +0.206 C 
BRANCH  11  12
ATOM     12  C   LIG    1       -0.382   3.683  -1.424  0.00  0.00    +0.319 C 
ATOM     13  O   LIG    1       -1.179   4.319  -2.109  0.00  0.00    -0.250 OA
BRANCH  12  14
ATOM     14  O   LIG    1        0.645   4.234  -0.712  0.00  0.00    -0.480 OA
ATOM     15  H   LIG    1        0.668   5.191  -0.783  0.00  0.00    +0.295 HD
ENDBRANCH  12  14
ENDBRANCH  11  12
ENDBRANCH   5  11
ENDBRANCH   4   5
ENDBRANCH   1   4
BRANCH   1  16
ATOM     16  C   LIG    1        1.612  -1.628  -0.063  0.00  0.00    +0.118 C 
BRANCH  16  17
ATOM     17  N   LIG    1        1.095  -2.329   1.138  0.00  0.00    -0.280 NA
BRANCH  17  18
ATOM     18  C   LIG    1        2.192  -2.363   2.132  0.00  0.00    +0.206 C 
BRANCH  18  19
ATOM     19  C   LIG    1        1.689  -2.722   3.545  0.00  0.00    +0.319 C 
ATOM     20  O   LIG    1        0.505  -2.833   3.865  0.00  0.00    -0.250 OA
BRANCH  19  21
ATOM     21  O   LIG    1        2.738  -2.879   4.402  0.00  0.00    -0.480 OA
ATOM     22  H   LIG    1        2.450  -3.091   5.293  0.00  0.00    +0.295 HD
ENDBRANCH  19  21
ENDBRANCH  18  19
ENDBRANCH  17  18
BRANCH  17  23
ATOM     23  C   LIG    1        0.775  -3.721   0.743  0.00  0.00    +0.206 C 
BRANCH  23  24
ATOM     24  C   LIG    1       -0.577  -3.828   0.006  0.00  0.00    +0.319 C 
ATOM     25  O   LIG    1       -1.382  -2.906  -0.129  0.00  0.00    -0.250 OA
BRANCH  24  26
ATOM     26  O   LIG    1       -0.769  -5.095  -0.461  0.00  0.00    -0.480 OA
ATOM     27  H   LIG    1       -1.610  -5.192  -0.913  0.00  0.00    +0.295 HD
ENDBRANCH  24  26
ENDBRANCH  23  24
ENDBRANCH  17  23
ENDBRANCH  16  17
ENDBRANCH   1  16
TORSDOF 17
