REMARK  Name = DB12292
REMARK                            x       y       z     vdW  Elec       q    Type
REMARK                         _______ _______ _______ _____ _____    ______ ____
ROOT
ATOM      1  CA  TRP A  1       -6.712   3.369  -3.789  0.00  0.00    +0.162 C 
ATOM      2  N   TRP A  1       -6.842   3.376  -5.252  0.00  0.00    -0.302 N 
ATOM      3  H   TRP A  1       -7.802   3.324  -5.559  0.00  0.00    +0.150 HD
ATOM      4  C   TRP A  1       -5.919   3.476  -6.229  0.00  0.00    +0.234 C 
ATOM      5  O   TRP A  1       -6.261   3.535  -7.408  0.00  0.00    -0.274 OA
ATOM      6  CA  TRP A  1       -4.404   3.503  -5.933  0.00  0.00    +0.163 C 
ATOM      7  N   TRP A  1       -3.908   2.400  -5.104  0.00  0.00    -0.304 N 
ATOM      8  H   TRP A  1       -3.499   2.669  -4.221  0.00  0.00    +0.149 HD
ATOM      9  C   UNK A  0       -3.866   1.107  -5.476  0.00  0.00    +0.214 C 
ATOM     10  O   UNK A  0       -4.349   0.689  -6.527  0.00  0.00    -0.276 OA
ATOM     11  C   UNK A  0       -3.114   0.144  -4.549  0.00  0.00    +0.106 C 
ATOM     12  C   UNK A  4       -4.035  -0.881  -3.862  0.00  0.00    +0.078 C 
ATOM     13  S   UNK A  4       -3.184  -2.128  -2.849  0.00  0.00    -0.160 S 
ATOM     14  C   UNK A  4       -2.519  -1.113  -1.497  0.00  0.00    +0.071 C 
ATOM     15  C   UNK A  4       -1.020  -0.782  -1.627  0.00  0.00    +0.042 C 
ATOM     16  C   UNK A  4       -0.506   0.153  -0.511  0.00  0.00    +0.160 C 
ATOM     17  N   UNK A  4       -1.114   1.478  -0.640  0.00  0.00    -0.302 N 
ATOM     18  H   UNK A  4       -1.379   1.746  -1.577  0.00  0.00    +0.150 HD
ATOM     19  C   ASN A  3       -1.344   2.336   0.367  0.00  0.00    +0.234 C 
ATOM     20  O   ASN A  3       -1.073   2.110   1.546  0.00  0.00    -0.274 OA
ATOM     21  CA  ASN A  3       -2.020   3.664  -0.031  0.00  0.00    +0.168 C 
ATOM     22  N   ASN A  3       -3.473   3.484  -0.150  0.00  0.00    -0.302 N 
ATOM     23  H   ASN A  3       -4.016   3.835   0.625  0.00  0.00    +0.150 HD
ATOM     24  C   ILE A  2       -4.105   2.824  -1.139  0.00  0.00    +0.234 C 
ATOM     25  O   ILE A  2       -3.532   2.389  -2.135  0.00  0.00    -0.274 OA
ATOM     26  CA  ILE A  2       -5.633   2.641  -0.995  0.00  0.00    +0.162 C 
ATOM     27  N   ILE A  2       -6.179   1.704  -1.988  0.00  0.00    -0.302 N 
ATOM     28  H   ILE A  2       -6.176   0.744  -1.677  0.00  0.00    +0.150 HD
ATOM     29  C   TRP A  1       -6.677   1.932  -3.219  0.00  0.00    +0.234 C 
ATOM     30  O   TRP A  1       -7.107   1.008  -3.907  0.00  0.00    -0.274 OA
ENDROOT
BRANCH  16  31
ATOM     31  C   UNK A  4        1.039   0.246  -0.551  0.00  0.00    +0.236 C 
ATOM     32  N   UNK A  5        1.798  -0.693   0.087  0.00  0.00    -0.298 N 
ATOM     33  C   UNK A  5        1.245  -1.934   0.654  0.00  0.00    +0.132 C 
ATOM     34  O   UNK A  4        1.521   1.185  -1.189  0.00  0.00    -0.274 OA
BRANCH  32  35
ATOM     35  C   UNK A  5        3.284  -0.665   0.151  0.00  0.00    +0.101 C 
BRANCH  35  36
ATOM     36  C   UNK A  5        3.919   0.724   0.446  0.00  0.00    +0.178 C 
BRANCH  36  37
ATOM     37  O   UNK A  5        5.255   0.588   0.886  0.00  0.00    -0.393 OA
ATOM     38  H   UNK A  5        5.592   1.458   1.115  0.00  0.00    +0.209 HD
ENDBRANCH  36  37
ENDBRANCH  35  36
BRANCH  35  39
ATOM     39  C   UNK A  5        3.972  -1.430  -1.015  0.00  0.00    +0.023 C 
BRANCH  39  40
ATOM     40  C   UNK A  5        3.708  -0.878  -2.431  0.00  0.00    -0.018 C 
BRANCH  40  41
ATOM     41  C   UNK A  5        4.503  -1.630  -3.509  0.00  0.00    -0.086 C 
BRANCH  41  42
ATOM     42  N   UNK A  5        4.200  -1.038  -4.889  0.00  0.00    +0.378 N 
ATOM     43  H   UNK A  5        3.215  -1.124  -5.097  0.00  0.00    -0.090 HD
ATOM     44  H   UNK A  5        4.453  -0.060  -4.912  0.00  0.00    -0.090 HD
ATOM     45  H   UNK A  5        4.726  -1.527  -5.601  0.00  0.00    -0.090 HD
ENDBRANCH  41  42
ENDBRANCH  40  41
ENDBRANCH  39  40
ENDBRANCH  35  39
ENDBRANCH  32  35
ENDBRANCH  16  31
BRANCH   1  46
ATOM     46  CB  TRP A  1       -7.936   4.115  -3.169  0.00  0.00    +0.015 C 
ATOM     47  CG2 TRP A  1       -7.815   5.632  -3.404  0.00  0.00    +0.010 C 
BRANCH  46  49
ATOM     48  CD1 TRP A  1      -10.497   4.123  -2.804  0.00  0.00    +0.004 C 
ATOM     49  CG1 TRP A  1       -9.319   3.575  -3.623  0.00  0.00    +0.002 C 
ENDBRANCH  46  49
ENDBRANCH   1  46
BRANCH  26  50
ATOM     50  CB  ILE A  2       -5.973   2.130   0.441  0.00  0.00    +0.015 C 
ATOM     51  CG2 ILE A  2       -5.305   0.783   0.808  0.00  0.00    +0.010 C 
BRANCH  50  52
ATOM     52  CG1 ILE A  2       -7.503   2.083   0.661  0.00  0.00    +0.002 C 
ATOM     53  CD1 ILE A  2       -7.920   1.944   2.132  0.00  0.00    +0.004 C 
ENDBRANCH  50  52
ENDBRANCH  26  50
BRANCH   6  54
ATOM     54  CB  TRP A  1       -3.924   4.873  -5.406  0.00  0.00    +0.069 C 
BRANCH  54  55
ATOM     55  CG  TRP A  1       -2.488   4.939  -4.972  0.00  0.00    -0.020 A 
ATOM     56  CD2 TRP A  1       -1.279   4.861  -5.787  0.00  0.00    +0.003 A 
ATOM     57  CE3 TRP A  1       -1.020   4.744  -7.173  0.00  0.00    +0.010 A 
ATOM     58  CZ3 TRP A  1        0.300   4.691  -7.668  0.00  0.00    +0.001 A 
ATOM     59  CH2 TRP A  1        1.396   4.753  -6.785  0.00  0.00    +0.002 A 
ATOM     60  CZ2 TRP A  1        1.175   4.864  -5.400  0.00  0.00    +0.026 A 
ATOM     61  CE2 TRP A  1       -0.145   4.915  -4.918  0.00  0.00    +0.047 A 
ATOM     62  NE1 TRP A  1       -0.688   5.011  -3.653  0.00  0.00    -0.360 N 
ATOM     63  HE1 TRP A  1       -0.166   5.071  -2.791  0.00  0.00    +0.165 HD
ATOM     64  CD1 TRP A  1       -2.066   5.018  -3.690  0.00  0.00    +0.087 A 
ENDBRANCH  54  55
ENDBRANCH   6  54
BRANCH  21  65
ATOM     65  CB  ASN A  3       -1.722   4.791   0.993  0.00  0.00    +0.127 C 
BRANCH  65  66
ATOM     66  CG  ASN A  3       -2.199   6.191   0.581  0.00  0.00    +0.213 C 
ATOM     67  ND2 ASN A  3       -2.170   7.131   1.528  0.00  0.00    -0.329 N 
ATOM     68 HD21 ASN A  3       -2.465   8.074   1.316  0.00  0.00    +0.145 HD
ATOM     69 HD22 ASN A  3       -1.849   6.911   2.460  0.00  0.00    +0.145 HD
ATOM     70  OD1 ASN A  3       -2.576   6.431  -0.565  0.00  0.00    -0.276 OA
ENDBRANCH  65  66
ENDBRANCH  21  65
TORSDOF 16
