REMARK  Name = DB12528
REMARK                            x       y       z     vdW  Elec       q    Type
REMARK                         _______ _______ _______ _____ _____    ______ ____
ROOT
ATOM      1  C   LIG    1        1.064  -0.321  -1.229  0.00  0.00    +0.251 C 
ENDROOT
BRANCH   1   2
ATOM      2  O   LIG    1        1.266  -0.190   0.180  0.00  0.00    -0.454 OA
BRANCH   2   3
ATOM      3  C   LIG    1        0.937  -1.177   1.048  0.00  0.00    +0.308 C 
ATOM      4  O   LIG    1        0.454  -2.272   0.756  0.00  0.00    -0.251 OA
BRANCH   3   5
ATOM      5  C   LIG    1        1.238  -0.806   2.503  0.00  0.00    +0.120 C 
BRANCH   5   6
ATOM      6  C   LIG    1        2.740  -0.616   2.811  0.00  0.00    +0.011 C 
BRANCH   6   7
ATOM      7  C   LIG    1        3.591  -1.893   2.657  0.00  0.00    +0.001 C 
BRANCH   7   8
ATOM      8  C   LIG    1        5.071  -1.678   3.021  0.00  0.00    +0.000 C 
BRANCH   8   9
ATOM      9  C   LIG    1        5.912  -2.960   2.886  0.00  0.00    +0.000 C 
BRANCH   9  10
ATOM     10  C   LIG    1        7.394  -2.751   3.246  0.00  0.00    +0.000 C 
BRANCH  10  11
ATOM     11  C   LIG    1        8.226  -4.040   3.126  0.00  0.00    +0.000 C 
BRANCH  11  12
ATOM     12  C   LIG    1        9.709  -3.837   3.494  0.00  0.00    +0.000 C 
BRANCH  12  13
ATOM     13  C   LIG    1       10.548  -5.130   3.475  0.00  0.00    +0.000 C 
BRANCH  13  14
ATOM     14  C   LIG    1       10.727  -5.753   2.075  0.00  0.00    +0.004 C 
BRANCH  14  15
ATOM     15  C   LIG    1       11.646  -6.987   2.062  0.00  0.00    +0.027 C 
BRANCH  15  16
ATOM     16  C   LIG    1       11.073  -8.200   2.780  0.00  0.00    -0.031 C 
ATOM     17  C   LIG    1       11.505  -8.734   3.938  0.00  0.00    -0.031 C 
BRANCH  17  18
ATOM     18  C   LIG    1       12.638  -8.226   4.817  0.00  0.00    +0.027 C 
BRANCH  18  19
ATOM     19  C   LIG    1       13.959  -9.008   4.671  0.00  0.00    +0.004 C 
BRANCH  19  20
ATOM     20  C   LIG    1       13.884 -10.513   5.008  0.00  0.00    +0.000 C 
BRANCH  20  21
ATOM     21  C   LIG    1       13.522 -10.817   6.474  0.00  0.00    +0.000 C 
BRANCH  21  22
ATOM     22  C   LIG    1       13.549 -12.321   6.797  0.00  0.00    -0.000 C 
BRANCH  22  23
ATOM     23  C   LIG    1       13.189 -12.627   8.262  0.00  0.00    -0.000 C 
BRANCH  23  24
ATOM     24  C   LIG    1       13.220 -14.132   8.586  0.00  0.00    -0.003 C 
ATOM     25  C   LIG    1       12.861 -14.437  10.046  0.00  0.00    +0.004 C 
ENDBRANCH  23  24
ENDBRANCH  22  23
ENDBRANCH  21  22
ENDBRANCH  20  21
ENDBRANCH  19  20
ENDBRANCH  18  19
ENDBRANCH  17  18
ENDBRANCH  15  16
ENDBRANCH  14  15
ENDBRANCH  13  14
ENDBRANCH  12  13
ENDBRANCH  11  12
ENDBRANCH  10  11
ENDBRANCH   9  10
ENDBRANCH   8   9
ENDBRANCH   7   8
ENDBRANCH   6   7
ENDBRANCH   5   6
ENDBRANCH   3   5
ENDBRANCH   2   3
ENDBRANCH   1   2
BRANCH   1  26
ATOM     26  C   LIG    1       -0.433  -0.215  -1.621  0.00  0.00    +0.280 C 
BRANCH  26  27
ATOM     27  O   LIG    1       -0.965   1.076  -1.344  0.00  0.00    -0.461 OA
BRANCH  27  28
ATOM     28  C   LIG    1       -2.260   1.358  -1.578  0.00  0.00    +0.307 C 
ATOM     29  O   LIG    1       -3.108   0.573  -2.006  0.00  0.00    -0.251 OA
BRANCH  28  30
ATOM     30  C   LIG    1       -2.613   2.805  -1.214  0.00  0.00    +0.120 C 
BRANCH  30  31
ATOM     31  C   LIG    1       -3.858   2.951  -0.314  0.00  0.00    +0.011 C 
BRANCH  31  32
ATOM     32  C   LIG    1       -3.689   2.352   1.098  0.00  0.00    +0.001 C 
BRANCH  32  33
ATOM     33  C   LIG    1       -4.920   2.574   1.994  0.00  0.00    +0.000 C 
BRANCH  33  34
ATOM     34  C   LIG    1       -4.758   1.962   3.398  0.00  0.00    +0.000 C 
BRANCH  34  35
ATOM     35  C   LIG    1       -5.988   2.191   4.294  0.00  0.00    +0.000 C 
BRANCH  35  36
ATOM     36  C   LIG    1       -5.835   1.566   5.694  0.00  0.00    +0.000 C 
BRANCH  36  37
ATOM     37  C   LIG    1       -7.023   1.827   6.641  0.00  0.00    +0.000 C 
BRANCH  37  38
ATOM     38  C   LIG    1       -8.346   1.177   6.191  0.00  0.00    +0.000 C 
BRANCH  38  39
ATOM     39  C   LIG    1       -9.484   1.355   7.214  0.00  0.00    +0.004 C 
BRANCH  39  40
ATOM     40  C   LIG    1      -10.839   0.791   6.749  0.00  0.00    +0.027 C 
BRANCH  40  41
ATOM     41  C   LIG    1      -10.842  -0.708   6.490  0.00  0.00    -0.031 C 
ATOM     42  C   LIG    1      -11.353  -1.681   7.269  0.00  0.00    -0.031 C 
BRANCH  42  43
ATOM     43  C   LIG    1      -12.042  -1.532   8.617  0.00  0.00    +0.027 C 
BRANCH  43  44
ATOM     44  C   LIG    1      -11.298  -2.258   9.751  0.00  0.00    +0.004 C 
BRANCH  44  45
ATOM     45  C   LIG    1      -12.012  -2.134  11.109  0.00  0.00    +0.000 C 
BRANCH  45  46
ATOM     46  C   LIG    1      -11.281  -2.876  12.243  0.00  0.00    +0.000 C 
BRANCH  46  47
ATOM     47  C   LIG    1      -12.002  -2.756  13.597  0.00  0.00    -0.000 C 
BRANCH  47  48
ATOM     48  C   LIG    1      -11.280  -3.510  14.731  0.00  0.00    -0.000 C 
BRANCH  48  49
ATOM     49  C   LIG    1      -11.922  -3.331  16.120  0.00  0.00    -0.003 C 
ATOM     50  C   LIG    1      -13.332  -3.930  16.250  0.00  0.00    +0.004 C 
ENDBRANCH  48  49
ENDBRANCH  47  48
ENDBRANCH  46  47
ENDBRANCH  45  46
ENDBRANCH  44  45
ENDBRANCH  43  44
ENDBRANCH  42  43
ENDBRANCH  40  41
ENDBRANCH  39  40
ENDBRANCH  38  39
ENDBRANCH  37  38
ENDBRANCH  36  37
ENDBRANCH  35  36
ENDBRANCH  34  35
ENDBRANCH  33  34
ENDBRANCH  32  33
ENDBRANCH  31  32
ENDBRANCH  30  31
ENDBRANCH  28  30
ENDBRANCH  27  28
ENDBRANCH  26  27
ENDBRANCH   1  26
BRANCH   1  51
ATOM     51  C   LIG    1        2.002   0.668  -1.956  0.00  0.00    +0.280 C 
BRANCH  51  52
ATOM     52  O   LIG    1        1.604   2.019  -1.757  0.00  0.00    -0.461 OA
BRANCH  52  53
ATOM     53  C   LIG    1        2.243   3.034  -2.369  0.00  0.00    +0.307 C 
ATOM     54  O   LIG    1        3.227   2.940  -3.104  0.00  0.00    -0.251 OA
BRANCH  53  55
ATOM     55  C   LIG    1        1.596   4.385  -2.065  0.00  0.00    +0.120 C 
BRANCH  55  56
ATOM     56  C   LIG    1        0.347   4.646  -2.929  0.00  0.00    +0.011 C 
BRANCH  56  57
ATOM     57  C   LIG    1       -0.377   5.946  -2.539  0.00  0.00    +0.001 C 
BRANCH  57  58
ATOM     58  C   LIG    1       -1.621   6.225  -3.402  0.00  0.00    +0.000 C 
BRANCH  58  59
ATOM     59  C   LIG    1       -2.361   7.510  -2.990  0.00  0.00    +0.000 C 
BRANCH  59  60
ATOM     60  C   LIG    1       -3.605   7.792  -3.853  0.00  0.00    +0.000 C 
BRANCH  60  61
ATOM     61  C   LIG    1       -4.358   9.063  -3.421  0.00  0.00    +0.000 C 
BRANCH  61  62
ATOM     62  C   LIG    1       -5.614   9.335  -4.269  0.00  0.00    +0.000 C 
BRANCH  62  63
ATOM     63  C   LIG    1       -6.382  10.590  -3.816  0.00  0.00    +0.000 C 
BRANCH  63  64
ATOM     64  C   LIG    1       -7.650  10.854  -4.648  0.00  0.00    +0.004 C 
BRANCH  64  65
ATOM     65  C   LIG    1       -8.439  12.081  -4.163  0.00  0.00    +0.027 C 
BRANCH  65  66
ATOM     66  C   LIG    1       -9.706  12.329  -4.967  0.00  0.00    -0.031 C 
ATOM     67  C   LIG    1       -9.988  13.370  -5.775  0.00  0.00    -0.031 C 
BRANCH  67  68
ATOM     68  C   LIG    1       -9.108  14.566  -6.105  0.00  0.00    +0.027 C 
BRANCH  68  69
ATOM     69  C   LIG    1       -8.793  14.683  -7.606  0.00  0.00    +0.004 C 
BRANCH  69  70
ATOM     70  C   LIG    1       -7.913  15.904  -7.937  0.00  0.00    +0.000 C 
BRANCH  70  71
ATOM     71  C   LIG    1       -7.526  16.028  -9.427  0.00  0.00    +0.000 C 
BRANCH  71  72
ATOM     72  C   LIG    1       -8.698  16.198 -10.417  0.00  0.00    -0.000 C 
BRANCH  72  73
ATOM     73  C   LIG    1       -9.544  17.466 -10.191  0.00  0.00    -0.000 C 
BRANCH  73  74
ATOM     74  C   LIG    1      -10.637  17.653 -11.258  0.00  0.00    -0.003 C 
ATOM     75  C   LIG    1      -11.489  18.910 -11.030  0.00  0.00    +0.004 C 
ENDBRANCH  73  74
ENDBRANCH  72  73
ENDBRANCH  71  72
ENDBRANCH  70  71
ENDBRANCH  69  70
ENDBRANCH  68  69
ENDBRANCH  67  68
ENDBRANCH  65  66
ENDBRANCH  64  65
ENDBRANCH  63  64
ENDBRANCH  62  63
ENDBRANCH  61  62
ENDBRANCH  60  61
ENDBRANCH  59  60
ENDBRANCH  58  59
ENDBRANCH  57  58
ENDBRANCH  56  57
ENDBRANCH  55  56
ENDBRANCH  53  55
ENDBRANCH  52  53
ENDBRANCH  51  52
ENDBRANCH   1  51
TORSDOF 65
