REMARK  Name = DB12098
REMARK                            x       y       z     vdW  Elec       q    Type
REMARK                         _______ _______ _______ _____ _____    ______ ____
ROOT
ATOM      1  C   LIG    1        0.020  -0.004   0.079  0.00  0.00    +0.012 C 
ENDROOT
BRANCH   1   3
ATOM      2  C   LIG    1       -1.315  -1.891   1.142  0.00  0.00    +0.005 A 
ATOM      3  C   LIG    1       -0.529  -0.747   1.310  0.00  0.00    -0.045 A 
ATOM      4  C   LIG    1       -0.240  -0.286   2.599  0.00  0.00    +0.005 A 
ATOM      5  C   LIG    1       -0.738  -0.961   3.710  0.00  0.00    +0.020 A 
ATOM      6  C   LIG    1       -1.523  -2.099   3.533  0.00  0.00    +0.041 A 
ATOM      7 CL   LIG    1       -2.141  -2.936   4.911  0.00  0.00    -0.084 Cl
ATOM      8  C   LIG    1       -1.811  -2.567   2.253  0.00  0.00    +0.020 A 
ENDBRANCH   1   3
BRANCH   1   9
ATOM      9  C   LIG    1       -0.476   1.464  -0.025  0.00  0.00    -0.078 C 
BRANCH   9  10
ATOM     10  N   LIG    1       -2.008   1.556  -0.089  0.00  0.00    +0.379 N 
ATOM     11  H   LIG    1       -2.352   1.047  -0.890  0.00  0.00    -0.090 HD
ATOM     12  H   LIG    1       -2.412   1.158   0.747  0.00  0.00    -0.090 HD
ATOM     13  H   LIG    1       -2.297   2.520  -0.164  0.00  0.00    -0.090 HD
ENDBRANCH   9  10
ENDBRANCH   1   9
BRANCH   1  14
ATOM     14  C   LIG    1        1.578  -0.046  -0.001  0.00  0.00    +0.126 C 
BRANCH  14  15
ATOM     15  C   LIG    1        2.197  -1.465  -0.060  0.00  0.00    +0.305 C 
ATOM     16  O   LIG    1        1.619  -2.349  -0.733  0.00  0.00    -0.251 OA
BRANCH  15  17
ATOM     17  O   LIG    1        3.279  -1.635   0.544  0.00  0.00    -0.481 OA
ATOM     18  H   LIG    1        3.660  -0.931   1.031  0.00  0.00    +0.295 HD
ENDBRANCH  15  17
ENDBRANCH  14  15
ENDBRANCH   1  14
TORSDOF 6
