REMARK  Name = DB12739
REMARK                            x       y       z     vdW  Elec       q    Type
REMARK                         _______ _______ _______ _____ _____    ______ ____
ROOT
ATOM      1  C   LIG    1        3.471   0.380  -1.130  0.00  0.00    +0.096 A 
ATOM      2  N   LIG    1        4.136   1.431  -0.717  0.00  0.00    -0.172 NA
ATOM      3  N   LIG    1        5.427   1.071  -0.582  0.00  0.00    -0.259 N 
ATOM      4  C   LIG    1        5.637  -0.240  -0.972  0.00  0.00    +0.070 A 
ATOM      5  C   LIG    1        6.788  -1.035  -1.052  0.00  0.00    +0.028 A 
ATOM      6  C   LIG    1        6.617  -2.350  -1.487  0.00  0.00    +0.002 A 
ATOM      7  C   LIG    1        5.363  -2.855  -1.827  0.00  0.00    +0.001 A 
ATOM      8  C   LIG    1        4.220  -2.060  -1.750  0.00  0.00    +0.012 A 
ATOM      9  C   LIG    1        4.353  -0.730  -1.323  0.00  0.00    +0.025 A 
ENDROOT
BRANCH   1  10
ATOM     10  C   LIG    1        1.976   0.441  -1.341  0.00  0.00    +0.219 C 
BRANCH  10  11
ATOM     11  O   LIG    1        1.337  -0.217  -0.245  0.00  0.00    -0.357 OA
BRANCH  11  13
ATOM     12  C   LIG    1       -0.442  -1.034   1.084  0.00  0.00    +0.053 C 
ATOM     13  C   LIG    1       -0.082  -0.046  -0.051  0.00  0.00    +0.160 C 
ATOM     14  C   LIG    1       -0.857  -0.431  -1.346  0.00  0.00    +0.053 C 
BRANCH  13  15
ATOM     15  C   LIG    1       -0.395   1.412   0.446  0.00  0.00    +0.336 C 
ATOM     16  O   LIG    1       -1.520   1.907   0.195  0.00  0.00    -0.248 OA
BRANCH  15  17
ATOM     17  O   LIG    1        0.481   2.018   1.109  0.00  0.00    -0.479 OA
ATOM     18  H   LIG    1        1.309   1.611   1.273  0.00  0.00    +0.295 HD
ENDBRANCH  15  17
ENDBRANCH  13  15
ENDBRANCH  11  13
ENDBRANCH  10  11
ENDBRANCH   1  10
BRANCH   3  19
ATOM     19  C   LIG    1        6.410   2.078  -0.204  0.00  0.00    +0.179 C 
BRANCH  19  20
ATOM     20  C   LIG    1        6.976   2.835  -1.397  0.00  0.00    -0.026 A 
ATOM     21  C   LIG    1        8.129   2.371  -2.037  0.00  0.00    +0.005 A 
ATOM     22  C   LIG    1        8.639   3.059  -3.134  0.00  0.00    +0.000 A 
ATOM     23  C   LIG    1        7.994   4.208  -3.588  0.00  0.00    +0.000 A 
ATOM     24  C   LIG    1        6.843   4.674  -2.956  0.00  0.00    +0.000 A 
ATOM     25  C   LIG    1        6.332   3.986  -1.859  0.00  0.00    +0.005 A 
ENDBRANCH  19  20
ENDBRANCH   3  19
TORSDOF 7
