REMARK  Name = DB12095
REMARK                            x       y       z     vdW  Elec       q    Type
REMARK                         _______ _______ _______ _____ _____    ______ ____
ROOT
ATOM      1  C   LIG    1       -2.197  -1.249   0.002  0.00  0.00    +0.221 A 
ATOM      2  C   LIG    1       -0.809  -1.379   0.093  0.00  0.00    +0.095 A 
ATOM      3  C   LIG    1       -0.018  -0.278  -0.278  0.00  0.00    +0.080 A 
ATOM      4  N   LIG    1       -0.598   0.884  -0.702  0.00  0.00    -0.214 NA
ATOM      5  C   LIG    1       -1.952   0.921  -0.760  0.00  0.00    +0.216 A 
ATOM      6  N   LIG    1       -2.780  -0.096  -0.431  0.00  0.00    -0.180 NA
ENDROOT
BRANCH   3   7
ATOM      7  C   LIG    1        1.481  -0.301  -0.213  0.00  0.00    +0.001 A 
ATOM      8  C   LIG    1        2.180  -1.517  -0.224  0.00  0.00    +0.010 A 
ATOM      9  C   LIG    1        3.570  -1.548  -0.165  0.00  0.00    +0.004 A 
ATOM     10  C   LIG    1        4.292  -0.356  -0.098  0.00  0.00    -0.045 A 
ATOM     11  C   LIG    1        3.616   0.863  -0.087  0.00  0.00    +0.004 A 
ATOM     12  C   LIG    1        2.226   0.888  -0.145  0.00  0.00    +0.010 A 
BRANCH  10  13
ATOM     13  C   LIG    1        5.815  -0.387  -0.047  0.00  0.00    +0.065 C 
BRANCH  13  14
ATOM     14  C   LIG    1        6.444  -0.128  -1.441  0.00  0.00    +0.165 C 
BRANCH  14  15
ATOM     15  N   LIG    1        6.128  -1.184  -2.419  0.00  0.00    -0.318 NA
ATOM     16  H   LIG    1        6.460  -0.935  -3.340  0.00  0.00    +0.119 HD
ATOM     17  H   LIG    1        5.129  -1.311  -2.496  0.00  0.00    +0.119 HD
ENDBRANCH  14  15
BRANCH  14  18
ATOM     18  C   LIG    1        7.951  -0.020  -1.334  0.00  0.00    +0.324 C 
ATOM     19  O   LIG    1        8.654  -0.863  -0.768  0.00  0.00    -0.249 OA
BRANCH  18  20
ATOM     20  O   LIG    1        8.409   1.111  -1.924  0.00  0.00    -0.464 OA
BRANCH  20  21
ATOM     21  C   LIG    1        9.796   1.440  -1.937  0.00  0.00    +0.229 C 
ATOM     22  C   LIG    1       10.250   2.069  -0.610  0.00  0.00    +0.048 C 
ENDBRANCH  20  21
ENDBRANCH  18  20
ENDBRANCH  14  18
ENDBRANCH  13  14
ENDBRANCH  10  13
ENDBRANCH   3   7
BRANCH   5  23
ATOM     23  N   LIG    1       -2.545   2.102  -1.194  0.00  0.00    -0.327 N 
ATOM     24  H   LIG    1       -3.553   2.156  -1.238  0.00  0.00    +0.145 HD
ATOM     25  H   LIG    1       -1.965   2.890  -1.440  0.00  0.00    +0.145 HD
ENDBRANCH   5  23
BRANCH   1  26
ATOM     26  O   LIG    1       -2.990  -2.325   0.362  0.00  0.00    -0.459 OA
BRANCH  26  27
ATOM     27  C   LIG    1       -4.424  -2.216   0.361  0.00  0.00    +0.311 C 
BRANCH  27  32
ATOM     28 CL   LIG    1       -6.337   1.127   5.063  0.00  0.00    -0.083 Cl
ATOM     29  C   LIG    1       -5.793   0.198   3.714  0.00  0.00    +0.043 A 
ATOM     30  C   LIG    1       -4.755  -0.717   3.870  0.00  0.00    +0.020 A 
ATOM     31  C   LIG    1       -4.322  -1.472   2.781  0.00  0.00    +0.011 A 
ATOM     32  C   LIG    1       -4.911  -1.321   1.518  0.00  0.00    +0.027 A 
ATOM     33  C   LIG    1       -5.952  -0.380   1.367  0.00  0.00    +0.074 A 
ATOM     34  C   LIG    1       -6.392   0.365   2.467  0.00  0.00    +0.048 A 
BRANCH  33  35
ATOM     35  N   LIG    1       -6.590  -0.156   0.134  0.00  0.00    -0.239 N 
ATOM     36  C   LIG    1       -7.879  -0.471  -0.209  0.00  0.00    +0.115 A 
ATOM     37  C   LIG    1       -8.033  -0.023  -1.506  0.00  0.00    +0.044 A 
ATOM     38  C   LIG    1       -6.807   0.559  -1.855  0.00  0.00    +0.060 A 
ATOM     39  C   LIG    1       -6.397   1.216  -3.152  0.00  0.00    +0.067 C 
ATOM     40  N   LIG    1       -5.950   0.485  -0.859  0.00  0.00    -0.172 NA
ENDBRANCH  33  35
ENDBRANCH  27  32
BRANCH  27  41
ATOM     41  C   LIG    1       -5.021  -3.639   0.423  0.00  0.00    +0.431 C 
ATOM     42  F   LIG    1       -6.354  -3.606   0.398  0.00  0.00    -0.167 F 
ATOM     43  F   LIG    1       -4.626  -4.369  -0.620  0.00  0.00    -0.167 F 
ATOM     44  F   LIG    1       -4.659  -4.293   1.529  0.00  0.00    -0.167 F 
ENDBRANCH  27  41
ENDBRANCH  26  27
ENDBRANCH   1  26
TORSDOF 13
