REMARK  Name = DB12673
REMARK                            x       y       z     vdW  Elec       q    Type
REMARK                         _______ _______ _______ _____ _____    ______ ____
ROOT
ATOM      1  C   LIG    1        1.326   0.181   0.187  0.00  0.00    +0.086 A 
ATOM      2  N   LIG    1        1.842   0.950   1.081  0.00  0.00    -0.192 NA
ATOM      3  C   LIG    1        3.222   1.164   1.233  0.00  0.00    +0.350 A 
ATOM      4  O   LIG    1        3.713   1.942   2.053  0.00  0.00    -0.244 OA
ATOM      5  N   LIG    1        4.061   0.445   0.402  0.00  0.00    -0.288 N 
ATOM      6  C   LIG    1        3.572  -0.397  -0.649  0.00  0.00    +0.056 A 
ATOM      7  C   LIG    1        4.417  -1.076  -1.543  0.00  0.00    +0.030 A 
ATOM      8  C   LIG    1        3.894  -1.857  -2.570  0.00  0.00    +0.048 A 
ATOM      9  C   LIG    1        2.509  -1.982  -2.737  0.00  0.00    +0.123 A 
ATOM     10  C   LIG    1        1.665  -1.323  -1.843  0.00  0.00    +0.057 A 
ATOM     11  C   LIG    1        2.176  -0.545  -0.793  0.00  0.00    +0.028 A 
ENDROOT
BRANCH   1  15
ATOM     12  C   LIG    1       -2.920  -0.260   0.085  0.00  0.00    -0.045 A 
ATOM     13  C   LIG    1       -2.337   1.001  -0.077  0.00  0.00    +0.004 A 
ATOM     14  C   LIG    1       -0.953   1.144  -0.047  0.00  0.00    +0.010 A 
ATOM     15  C   LIG    1       -0.137   0.023   0.140  0.00  0.00    +0.001 A 
ATOM     16  C   LIG    1       -0.719  -1.238   0.316  0.00  0.00    +0.010 A 
ATOM     17  C   LIG    1       -2.104  -1.378   0.284  0.00  0.00    +0.004 A 
BRANCH  12  19
ATOM     18  C   LIG    1       -5.039  -0.004  -1.305  0.00  0.00    +0.012 C 
ATOM     19  C   LIG    1       -4.441  -0.421   0.052  0.00  0.00    +0.013 C 
ATOM     20  C   LIG    1       -5.122   0.304   1.228  0.00  0.00    +0.012 C 
ENDBRANCH  12  19
ENDBRANCH   1  15
BRANCH   5  21
ATOM     21  C   LIG    1        5.532   0.634   0.525  0.00  0.00    +0.162 C 
BRANCH  21  22
ATOM     22  C   LIG    1        6.190   1.467  -0.575  0.00  0.00    -0.025 A 
ATOM     23  C   LIG    1        5.541   2.577  -1.127  0.00  0.00    +0.035 A 
ATOM     24  C   LIG    1        6.151   3.316  -2.167  0.00  0.00    +0.090 A 
ATOM     25  N   LIG    1        5.510   4.395  -2.699  0.00  0.00    -0.251 NA
ATOM     26  C   LIG    1        6.142   5.066  -3.695  0.00  0.00    +0.146 A 
ATOM     27  C   LIG    1        7.396   4.683  -4.168  0.00  0.00    +0.125 A 
ATOM     28 BR   LIG    1        8.212   5.681  -5.567  0.00  0.00    -0.027 Br
ATOM     29  N   LIG    1        8.049   3.611  -3.651  0.00  0.00    -0.237 NA
ATOM     30  C   LIG    1        7.436   2.919  -2.648  0.00  0.00    +0.090 A 
ATOM     31  C   LIG    1        8.073   1.795  -2.075  0.00  0.00    +0.030 A 
ATOM     32  C   LIG    1        7.445   1.086  -1.053  0.00  0.00    +0.007 A 
ENDBRANCH  21  22
ENDBRANCH   5  21
BRANCH   9  33
ATOM     33  O   LIG    1        1.903  -2.720  -3.736  0.00  0.00    -0.480 OA
BRANCH  33  34
ATOM     34  C   LIG    1        2.713  -3.396  -4.693  0.00  0.00    +0.317 C 
BRANCH  34  35
ATOM     35  C   LIG    1        1.900  -4.100  -5.696  0.00  0.00    -0.065 C 
ATOM     36  C   LIG    1        1.228  -4.676  -6.537  0.00  0.00    +0.007 C 
ENDBRANCH  34  35
ENDBRANCH  33  34
ENDBRANCH   9  33
TORSDOF 7
