REMARK  Name = DB12364
REMARK                            x       y       z     vdW  Elec       q    Type
REMARK                         _______ _______ _______ _____ _____    ______ ____
ROOT
ATOM      1  C   LIG    1        3.473   1.508   0.532  0.00  0.00    +0.046 A 
ATOM      2  C   LIG    1        4.006   2.515  -0.316  0.00  0.00    +0.062 A 
ATOM      3  C   LIG    1        5.374   2.815  -0.213  0.00  0.00    +0.060 A 
ATOM      4  C   LIG    1        6.218   2.136   0.680  0.00  0.00    +0.121 A 
ATOM      5  C   LIG    1        5.672   1.149   1.497  0.00  0.00    +0.047 A 
ATOM      6  C   LIG    1        4.317   0.842   1.432  0.00  0.00    +0.027 A 
ENDROOT
BRANCH   1   8
ATOM      7  C   LIG    1        1.521   0.001   0.454  0.00  0.00    +0.248 C 
ATOM      8  N   LIG    1        2.094   1.222   0.549  0.00  0.00    -0.281 N 
ATOM      9  H   LIG    1        1.484   2.023   0.471  0.00  0.00    +0.155 HD
ATOM     10  O   LIG    1        2.162  -1.053   0.475  0.00  0.00    -0.270 OA
BRANCH   7  14
ATOM     11  C   LIG    1       -2.779  -0.104  -0.107  0.00  0.00    +0.065 A 
ATOM     12  C   LIG    1       -2.094   1.116  -0.133  0.00  0.00    +0.016 A 
ATOM     13  C   LIG    1       -0.717   1.162   0.058  0.00  0.00    +0.014 A 
ATOM     14  C   LIG    1        0.014  -0.016   0.285  0.00  0.00    +0.037 A 
ATOM     15  C   LIG    1       -0.677  -1.234   0.330  0.00  0.00    +0.014 A 
ATOM     16  C   LIG    1       -2.055  -1.277   0.140  0.00  0.00    +0.016 A 
BRANCH  11  17
ATOM     17  C   LIG    1       -4.240  -0.156  -0.314  0.00  0.00    +0.312 C 
ATOM     18  N   LIG    1       -4.934  -0.614   0.643  0.00  0.00    -0.099 NA
ATOM     19  H   LIG    1       -4.372  -0.897   1.434  0.00  0.00    +0.363 HD
BRANCH  17  21
ATOM     20  C   LIG    1       -3.831   0.452  -2.732  0.00  0.00    +0.276 C 
ATOM     21  N   LIG    1       -4.692   0.332  -1.551  0.00  0.00    -0.226 N 
ATOM     22  C   LIG    1       -6.130   0.419  -1.807  0.00  0.00    +0.276 C 
ENDBRANCH  17  21
ENDBRANCH  11  17
ENDBRANCH   7  14
ENDBRANCH   1   8
BRANCH   2  23
ATOM     23  C   LIG    1        3.182   3.300  -1.324  0.00  0.00    +0.251 C 
ATOM     24  N   LIG    1        2.188   2.615  -1.937  0.00  0.00    -0.266 N 
ATOM     25  H   LIG    1        2.087   1.646  -1.672  0.00  0.00    +0.157 HD
ATOM     26  O   LIG    1        3.467   4.474  -1.572  0.00  0.00    -0.270 OA
BRANCH  24  27
ATOM     27  C   LIG    1        1.221   3.073  -2.849  0.00  0.00    +0.125 A 
ATOM     28  N   LIG    1        1.218   4.353  -3.322  0.00  0.00    -0.239 NA
ATOM     29  C   LIG    1        0.241   4.720  -4.190  0.00  0.00    +0.132 A 
ATOM     30  C   LIG    1       -0.758   3.844  -4.616  0.00  0.00    +0.059 A 
ATOM     31 CL   LIG    1       -1.979   4.365  -5.718  0.00  0.00    -0.082 Cl
ATOM     32  C   LIG    1       -0.748   2.535  -4.130  0.00  0.00    +0.025 A 
ATOM     33  C   LIG    1        0.251   2.142  -3.238  0.00  0.00    +0.045 A 
ENDBRANCH  24  27
ENDBRANCH   2  23
BRANCH   4  34
ATOM     34  O   LIG    1        7.572   2.374   0.818  0.00  0.00    -0.495 OA
ATOM     35  C   LIG    1        8.191   3.363   0.002  0.00  0.00    +0.277 C 
ENDBRANCH   4  34
TORSDOF 7
