REMARK  Name = DB12963
REMARK                            x       y       z     vdW  Elec       q    Type
REMARK                         _______ _______ _______ _____ _____    ______ ____
ROOT
ATOM      1  N   LIG    1        1.071  -0.724  -0.098  0.00  0.00    -0.327 N 
ATOM      2  C   LIG    1        1.867  -0.906  -1.329  0.00  0.00    +0.124 C 
ATOM      3  C   LIG    1        3.402  -0.917  -1.158  0.00  0.00    +0.126 C 
ATOM      4  N   LIG    1        3.749  -1.847  -0.078  0.00  0.00    -0.297 N 
ATOM      5  C   LIG    1        4.469  -2.987  -0.266  0.00  0.00    +0.237 C 
ATOM      6  O   LIG    1        4.651  -3.804   0.642  0.00  0.00    -0.274 OA
ATOM      7  C   LIG    1        3.117  -1.550   1.211  0.00  0.00    +0.126 C 
ATOM      8  C   LIG    1        1.583  -1.533   1.026  0.00  0.00    +0.124 C 
ENDROOT
BRANCH   1  14
ATOM      9  C   LIG    1       -2.585  -0.436   0.670  0.00  0.00    +0.140 A 
ATOM     10  C   LIG    1       -2.971   0.485  -0.308  0.00  0.00    +0.083 A 
ATOM     11 CL   LIG    1       -4.614   1.012  -0.428  0.00  0.00    -0.080 Cl
ATOM     12  C   LIG    1       -2.034   0.998  -1.200  0.00  0.00    +0.025 A 
ATOM     13  C   LIG    1       -0.704   0.594  -1.129  0.00  0.00    +0.025 A 
ATOM     14  C   LIG    1       -0.274  -0.339  -0.172  0.00  0.00    +0.033 A 
ATOM     15  C   LIG    1       -1.237  -0.833   0.728  0.00  0.00    +0.070 A 
BRANCH   9  17
ATOM     16  C   LIG    1       -3.224  -1.836   2.547  0.00  0.00    +0.277 C 
ATOM     17  O   LIG    1       -3.566  -0.903   1.528  0.00  0.00    -0.494 OA
ENDBRANCH   9  17
ENDBRANCH   1  14
BRANCH   5  18
ATOM     18  C   LIG    1        5.142  -3.231  -1.637  0.00  0.00    +0.241 C 
BRANCH  18  19
ATOM     19  N   LIG    1        5.995  -4.418  -1.706  0.00  0.00    -0.237 N 
ATOM     20  N   LIG    1        7.258  -4.361  -1.232  0.00  0.00    -0.165 NA
ATOM     21  C   LIG    1        7.795  -5.556  -1.351  0.00  0.00    +0.137 A 
ATOM     22  C   LIG    1        6.840  -6.473  -1.905  0.00  0.00    +0.049 A 
ATOM     23  C   LIG    1        6.788  -7.834  -2.253  0.00  0.00    +0.015 A 
ATOM     24  C   LIG    1        5.588  -8.329  -2.772  0.00  0.00    +0.020 A 
ATOM     25  C   LIG    1        4.500  -7.466  -2.925  0.00  0.00    +0.113 A 
ATOM     26  N   LIG    1        4.511  -6.144  -2.605  0.00  0.00    -0.236 NA
ATOM     27  C   LIG    1        5.673  -5.699  -2.113  0.00  0.00    +0.159 A 
BRANCH  21  28
ATOM     28  C   LIG    1        9.173  -5.822  -0.939  0.00  0.00    +0.159 A 
ATOM     29  N   LIG    1        9.782  -6.983  -1.062  0.00  0.00    -0.234 NA
ATOM     30  C   LIG    1       10.999  -6.800  -0.575  0.00  0.00    +0.130 A 
ATOM     31  C   LIG    1       11.191  -5.502  -0.127  0.00  0.00    +0.104 A 
ATOM     32  N   LIG    1        9.998  -4.881  -0.371  0.00  0.00    -0.343 N 
ATOM     33  H   LIG    1        9.765  -3.919  -0.173  0.00  0.00    +0.167 HD
ENDBRANCH  21  28
ENDBRANCH  18  19
ENDBRANCH   5  18
TORSDOF 5
