REMARK  Name = DB12376
REMARK                            x       y       z     vdW  Elec       q    Type
REMARK                         _______ _______ _______ _____ _____    ______ ____
ROOT
ATOM      1  C   LIG    1       -2.324   6.130  -0.114  0.00  0.00    +0.227 A 
ATOM      2  N   LIG    1       -1.083   5.624   0.149  0.00  0.00    -0.221 NA
ATOM      3  C   LIG    1       -0.931   4.276   0.132  0.00  0.00    +0.129 A 
ATOM      4  C   LIG    1       -1.990   3.397  -0.144  0.00  0.00    +0.073 A 
ATOM      5  C   LIG    1       -3.227   3.999  -0.407  0.00  0.00    +0.129 A 
ATOM      6  N   LIG    1       -3.406   5.345  -0.392  0.00  0.00    -0.221 NA
ENDROOT
BRANCH   4   7
ATOM      7  C   LIG    1       -1.826   1.895  -0.174  0.00  0.00    +0.247 C 
ATOM      8  N   LIG    1       -0.688   1.413   0.359  0.00  0.00    -0.311 N 
ATOM      9  H   LIG    1       -0.057   2.062   0.805  0.00  0.00    +0.149 HD
ATOM     10  O   LIG    1       -2.704   1.175  -0.653  0.00  0.00    -0.270 OA
BRANCH   8  11
ATOM     11  C   LIG    1       -0.301   0.004   0.418  0.00  0.00    +0.104 C 
BRANCH  11  12
ATOM     12  C   LIG    1        1.221  -0.190   0.277  0.00  0.00    +0.019 C 
BRANCH  12  13
ATOM     13  C   LIG    1        2.044   0.453   1.413  0.00  0.00    +0.002 C 
BRANCH  13  14
ATOM     14  C   LIG    1        3.562   0.293   1.224  0.00  0.00    +0.001 C 
BRANCH  14  15
ATOM     15  C   LIG    1        4.374   0.931   2.371  0.00  0.00    +0.009 C 
BRANCH  15  16
ATOM     16  C   LIG    1        5.909   0.816   2.213  0.00  0.00    +0.098 C 
BRANCH  16  17
ATOM     17  C   LIG    1        6.503   1.597   1.028  0.00  0.00    +0.235 C 
ATOM     18  N   LIG    1        7.612   1.074   0.478  0.00  0.00    -0.197 N 
ATOM     19  H   LIG    1        8.127   0.252   0.762  0.00  0.00    +0.182 HD
ATOM     20  O   LIG    1        5.973   2.644   0.645  0.00  0.00    -0.274 OA
BRANCH  18  21
ATOM     21  O   LIG    1        8.217   1.761  -0.580  0.00  0.00    -0.295 OA
ATOM     22  H   LIG    1        9.010   2.126  -0.181  0.00  0.00    +0.241 HD
ENDBRANCH  18  21
ENDBRANCH  16  17
ENDBRANCH  15  16
ENDBRANCH  14  15
ENDBRANCH  13  14
ENDBRANCH  12  13
ENDBRANCH  11  12
ENDBRANCH   8  11
ENDBRANCH   4   7
BRANCH   1  23
ATOM     23  N   LIG    1       -2.497   7.548  -0.097  0.00  0.00    -0.238 N 
BRANCH  23  27
ATOM     24  C   LIG    1       -5.477   9.394  -2.462  0.00  0.00    +0.000 A 
ATOM     25  C   LIG    1       -5.222   9.867  -1.178  0.00  0.00    +0.002 A 
ATOM     26  C   LIG    1       -4.241   9.257  -0.401  0.00  0.00    +0.024 A 
ATOM     27  C   LIG    1       -3.504   8.168  -0.896  0.00  0.00    +0.042 A 
ATOM     28  C   LIG    1       -3.777   7.711  -2.196  0.00  0.00    +0.024 A 
ATOM     29  C   LIG    1       -4.758   8.319  -2.974  0.00  0.00    +0.002 A 
ENDBRANCH  23  27
BRANCH  23  30
ATOM     30  C   LIG    1       -1.661   8.371   0.717  0.00  0.00    +0.042 A 
ATOM     31  C   LIG    1       -1.196   9.609   0.243  0.00  0.00    +0.024 A 
ATOM     32  C   LIG    1       -0.380  10.414   1.034  0.00  0.00    +0.002 A 
ATOM     33  C   LIG    1       -0.024   9.991   2.310  0.00  0.00    +0.000 A 
ATOM     34  C   LIG    1       -0.477   8.771   2.802  0.00  0.00    +0.002 A 
ATOM     35  C   LIG    1       -1.291   7.966   2.010  0.00  0.00    +0.024 A 
ENDBRANCH  23  30
ENDBRANCH   1  23
TORSDOF 12
