REMARK  Name = DB12382
REMARK                            x       y       z     vdW  Elec       q    Type
REMARK                         _______ _______ _______ _____ _____    ______ ____
ROOT
ATOM      1  N   LIG    1       -2.701   0.675   0.771  0.00  0.00    -0.174 NA
ATOM      2  C   LIG    1       -2.179   0.202  -0.520  0.00  0.00    +0.128 C 
ATOM      3  C   LIG    1       -0.697   0.612  -0.664  0.00  0.00    +0.125 C 
ATOM      4  N   LIG    1        0.166   0.216   0.478  0.00  0.00    -0.297 N 
ATOM      5  C   LIG    1       -0.464   0.503   1.793  0.00  0.00    +0.125 C 
ATOM      6  C   LIG    1       -1.949   0.097   1.895  0.00  0.00    +0.128 C 
ENDROOT
BRANCH   4   7
ATOM      7  C   LIG    1        1.551   0.058   0.341  0.00  0.00    +0.218 A 
ATOM      8  N   LIG    1        2.070   0.015  -0.919  0.00  0.00    -0.222 NA
ATOM      9  C   LIG    1        3.410  -0.174  -1.039  0.00  0.00    +0.129 A 
ATOM     10  C   LIG    1        4.257  -0.335   0.070  0.00  0.00    +0.075 A 
ATOM     11  C   LIG    1        3.630  -0.295   1.323  0.00  0.00    +0.129 A 
ATOM     12  N   LIG    1        2.293  -0.107   1.473  0.00  0.00    -0.222 NA
BRANCH  10  13
ATOM     13  C   LIG    1        5.751  -0.542  -0.052  0.00  0.00    +0.269 C 
ATOM     14  N   LIG    1        6.261  -0.498  -1.298  0.00  0.00    -0.193 N 
ATOM     15  H   LIG    1        5.770  -0.166  -2.116  0.00  0.00    +0.183 HD
ATOM     16  O   LIG    1        6.436  -0.752   0.953  0.00  0.00    -0.268 OA
BRANCH  14  17
ATOM     17  O   LIG    1        7.649  -0.385  -1.425  0.00  0.00    -0.295 OA
ATOM     18  H   LIG    1        7.922  -0.078  -0.556  0.00  0.00    +0.241 HD
ENDBRANCH  14  17
ENDBRANCH  10  13
ENDBRANCH   4   7
BRANCH   1  19
ATOM     19  S   LIG    1       -4.463   0.790   0.947  0.00  0.00    +0.061 S 
ATOM     20  O   LIG    1       -5.093   0.350  -0.304  0.00  0.00    -0.153 OA
ATOM     21  O   LIG    1       -4.848   0.189   2.230  0.00  0.00    -0.153 OA
BRANCH  19  27
ATOM     22  C   LIG    1       -5.398   7.336   2.644  0.00  0.00    +0.001 A 
ATOM     23  C   LIG    1       -5.335   6.738   1.388  0.00  0.00    +0.008 A 
ATOM     24  C   LIG    1       -5.137   5.340   1.270  0.00  0.00    -0.018 A 
ATOM     25  C   LIG    1       -5.062   4.700   0.008  0.00  0.00    +0.010 A 
ATOM     26  C   LIG    1       -4.866   3.324  -0.073  0.00  0.00    +0.029 A 
ATOM     27  C   LIG    1       -4.751   2.552   1.082  0.00  0.00    +0.106 A 
ATOM     28  C   LIG    1       -4.809   3.155   2.339  0.00  0.00    +0.037 A 
ATOM     29  C   LIG    1       -5.005   4.554   2.456  0.00  0.00    -0.016 A 
ATOM     30  C   LIG    1       -5.073   5.194   3.718  0.00  0.00    +0.008 A 
ATOM     31  C   LIG    1       -5.268   6.571   3.799  0.00  0.00    +0.001 A 
ENDBRANCH  19  27
ENDBRANCH   1  19
TORSDOF 5
