REMARK  Name = DB12191
REMARK                            x       y       z     vdW  Elec       q    Type
REMARK                         _______ _______ _______ _____ _____    ______ ____
ROOT
ATOM      1  C   LIG    1       -2.102   1.462   0.462  0.00  0.00    +0.147 C 
ATOM      2  C   LIG    1       -0.669   1.344   0.300  0.00  0.00    +0.108 C 
ATOM      3  C   LIG    1        0.039   0.192   0.292  0.00  0.00    +0.057 C 
ATOM      4  N   LIG    1       -0.201   2.602   0.137  0.00  0.00    -0.242 NA
ATOM      5  C   LIG    1       -1.195   3.400   0.142  0.00  0.00    +0.091 C 
ATOM      6  C   LIG    1       -2.443   2.744   0.330  0.00  0.00    +0.077 C 
ENDROOT
BRANCH   5   7
ATOM      7  C   LIG    1       -1.028   4.845  -0.031  0.00  0.00    +0.066 A 
ATOM      8  N   LIG    1        0.210   5.429  -0.193  0.00  0.00    -0.353 N 
ATOM      9  H   LIG    1        1.060   4.884  -0.200  0.00  0.00    +0.166 HD
ATOM     10  C   LIG    1        0.096   6.797  -0.333  0.00  0.00    +0.047 A 
ATOM     11  C   LIG    1        1.067   7.788  -0.514  0.00  0.00    +0.026 A 
ATOM     12  C   LIG    1        0.616   9.104  -0.623  0.00  0.00    +0.002 A 
ATOM     13  C   LIG    1       -0.738   9.424  -0.556  0.00  0.00    +0.001 A 
ATOM     14  C   LIG    1       -1.705   8.435  -0.376  0.00  0.00    +0.010 A 
ATOM     15  C   LIG    1       -1.296   7.098  -0.260  0.00  0.00    +0.000 A 
ATOM     16  C   LIG    1       -1.979   5.852  -0.070  0.00  0.00    +0.037 A 
ENDBRANCH   5   7
BRANCH   3  17
ATOM     17  C   LIG    1        1.475  -0.023   0.136  0.00  0.00    +0.045 A 
ATOM     18  C   LIG    1        2.235  -1.195   0.132  0.00  0.00    -0.025 A 
ATOM     19  C   LIG    1        1.746  -2.608   0.357  0.00  0.00    +0.046 C 
ATOM     20  C   LIG    1        3.571  -0.788  -0.017  0.00  0.00    +0.026 A 
ATOM     21  C   LIG    1        3.635   0.588  -0.153  0.00  0.00    +0.014 A 
ATOM     22  C   LIG    1        4.788   1.542  -0.353  0.00  0.00    +0.063 C 
ATOM     23  N   LIG    1        2.343   1.026  -0.056  0.00  0.00    -0.358 N 
ATOM     24  H   LIG    1        2.062   1.994  -0.106  0.00  0.00    +0.166 HD
ENDBRANCH   3  17
BRANCH   1  26
ATOM     25  C   LIG    1       -2.885  -0.200   1.919  0.00  0.00    +0.277 C 
ATOM     26  O   LIG    1       -2.994   0.465   0.665  0.00  0.00    -0.493 OA
ENDBRANCH   1  26
TORSDOF 3
