REMARK  Name = DB12470
REMARK                            x       y       z     vdW  Elec       q    Type
REMARK                         _______ _______ _______ _____ _____    ______ ____
ROOT
ATOM      1  C   LIG    1       -0.590   1.017  -0.250  0.00  0.00    +0.135 A 
ATOM      2  N   LIG    1        0.087  -0.155   0.008  0.00  0.00    -0.266 N 
ATOM      3  C   LIG    1       -0.616  -1.336   0.217  0.00  0.00    +0.353 A 
ATOM      4  O   LIG    1        0.005  -2.391   0.365  0.00  0.00    -0.244 OA
ATOM      5  N   LIG    1       -2.024  -1.229   0.239  0.00  0.00    -0.175 NA
ATOM      6  C   LIG    1       -2.647  -0.124   0.008  0.00  0.00    +0.159 A 
ATOM      7  C   LIG    1       -1.929   1.093  -0.266  0.00  0.00    +0.179 A 
ATOM      8  F   LIG    1       -2.568   2.256  -0.527  0.00  0.00    -0.200 F 
ENDROOT
BRANCH   2   9
ATOM      9  C   LIG    1        1.551  -0.185  -0.024  0.00  0.00    +0.248 C 
ATOM     10  O   LIG    1        2.109   1.060   0.252  0.00  0.00    -0.343 OA
ATOM     11  C   LIG    1        3.182   1.309  -0.648  0.00  0.00    +0.169 C 
ATOM     12  C   LIG    1        3.058   0.236  -1.709  0.00  0.00    +0.007 C 
ATOM     13  C   LIG    1        2.115  -0.636  -1.342  0.00  0.00    +0.025 C 
BRANCH  11  14
ATOM     14  C   LIG    1        3.032   2.730  -1.222  0.00  0.00    +0.191 C 
BRANCH  14  15
ATOM     15  O   LIG    1        3.285   3.701  -0.227  0.00  0.00    -0.392 OA
ATOM     16  H   LIG    1        3.176   4.572  -0.614  0.00  0.00    +0.210 HD
ENDBRANCH  14  15
ENDBRANCH  11  14
ENDBRANCH   2   9
BRANCH   6  17
ATOM     17  N   LIG    1       -3.988  -0.082   0.022  0.00  0.00    -0.341 N 
ATOM     18  H   LIG    1       -4.522  -0.917   0.214  0.00  0.00    +0.144 HD
ATOM     19  H   LIG    1       -4.476   0.784  -0.157  0.00  0.00    +0.144 HD
ENDBRANCH   6  17
TORSDOF 4
