REMARK  Name = DB12111
REMARK                            x       y       z     vdW  Elec       q    Type
REMARK                         _______ _______ _______ _____ _____    ______ ____
ROOT
ATOM      1  N   LIG    1        1.297   0.399   0.007  0.00  0.00    -0.318 N 
ATOM      2  C   LIG    1        1.939   1.304   0.987  0.00  0.00    +0.087 C 
ATOM      3  C   LIG    1        3.430   1.015   1.267  0.00  0.00    -0.063 C 
ATOM      4  N   LIG    1        4.216   1.031  -0.048  0.00  0.00    +0.381 N 
ATOM      5  H   LIG    1        4.173   1.950  -0.465  0.00  0.00    -0.086 HD
ATOM      6  H   LIG    1        5.188   0.814   0.123  0.00  0.00    -0.086 HD
ATOM      7  C   LIG    1        3.603  -0.004  -0.998  0.00  0.00    -0.063 C 
ATOM      8  C   LIG    1        2.111   0.324  -1.225  0.00  0.00    +0.087 C 
ENDROOT
BRANCH   1  15
ATOM      9  C   LIG    1       -0.712  -0.668  -0.924  0.00  0.00    +0.154 A 
ATOM     10  N   LIG    1       -2.058  -0.844  -0.952  0.00  0.00    -0.257 NA
ATOM     11  C   LIG    1       -2.800  -0.111  -0.084  0.00  0.00    +0.151 A 
ATOM     12  C   LIG    1       -2.207   0.784   0.807  0.00  0.00    +0.149 A 
ATOM     13 CL   LIG    1       -3.191   1.687   1.900  0.00  0.00    -0.060 Cl
ATOM     14  N   LIG    1       -0.859   0.954   0.828  0.00  0.00    -0.218 NA
ATOM     15  C   LIG    1       -0.091   0.242  -0.050  0.00  0.00    +0.141 A 
ENDBRANCH   1  15
TORSDOF 1
