REMARK  Name = DB12746
REMARK                            x       y       z     vdW  Elec       q    Type
REMARK                         _______ _______ _______ _____ _____    ______ ____
ROOT
ATOM      1  C   LIG    1        1.503   0.018  -0.029  0.00  0.00    +0.164 A 
ATOM      2  N   LIG    1        2.294   0.992   0.498  0.00  0.00    -0.227 NA
ATOM      3  C   LIG    1        3.586   0.702   0.822  0.00  0.00    +0.091 A 
ATOM      4  C   LIG    1        4.085  -0.587   0.601  0.00  0.00    +0.141 A 
ATOM      5  N   LIG    1        3.314  -1.573   0.077  0.00  0.00    -0.235 NA
ATOM      6  C   LIG    1        2.027  -1.274  -0.235  0.00  0.00    +0.157 A 
ENDROOT
BRANCH   3   7
ATOM      7  C   LIG    1        4.412   1.810   1.391  0.00  0.00    +0.005 A 
ATOM      8  C   LIG    1        4.137   3.158   1.101  0.00  0.00    +0.030 A 
ATOM      9  C   LIG    1        4.935   4.160   1.656  0.00  0.00    +0.111 A 
ATOM     10  N   LIG    1        5.981   3.898   2.478  0.00  0.00    -0.263 NA
ATOM     11  C   LIG    1        6.246   2.599   2.760  0.00  0.00    +0.111 A 
ATOM     12  C   LIG    1        5.496   1.541   2.244  0.00  0.00    +0.030 A 
ENDBRANCH   3   7
BRANCH   6  13
ATOM     13  N   LIG    1        1.269  -2.320  -0.771  0.00  0.00    -0.340 N 
ATOM     14  H   LIG    1        1.700  -3.224  -0.902  0.00  0.00    +0.144 HD
ATOM     15  H   LIG    1        0.305  -2.161  -1.024  0.00  0.00    +0.144 HD
ENDBRANCH   6  13
BRANCH   1  16
ATOM     16  N   LIG    1        0.162   0.305  -0.365  0.00  0.00    -0.297 N 
ATOM     17  H   LIG    1       -0.327  -0.500  -0.727  0.00  0.00    +0.154 HD
BRANCH  16  19
ATOM     18  C   LIG    1       -1.977   1.284  -0.737  0.00  0.00    +0.025 A 
ATOM     19  C   LIG    1       -0.655   1.451  -0.317  0.00  0.00    +0.033 A 
ATOM     20  C   LIG    1       -0.217   2.712   0.114  0.00  0.00    +0.033 A 
ATOM     21  C   LIG    1       -1.115   3.791   0.119  0.00  0.00    +0.001 A 
ATOM     22  C   LIG    1       -1.012   5.174   0.485  0.00  0.00    +0.027 A 
ATOM     23  C   LIG    1       -2.248   5.745   0.268  0.00  0.00    +0.083 A 
ATOM     24  N   LIG    1       -3.108   4.788  -0.211  0.00  0.00    -0.361 N 
ATOM     25  H   LIG    1       -4.070   4.991  -0.441  0.00  0.00    +0.165 HD
ATOM     26  C   LIG    1       -2.455   3.577  -0.317  0.00  0.00    +0.047 A 
ATOM     27  C   LIG    1       -2.904   2.327  -0.750  0.00  0.00    +0.028 A 
ENDBRANCH  16  19
ENDBRANCH   1  16
TORSDOF 4
