REMARK  Name = DB12378
REMARK                            x       y       z     vdW  Elec       q    Type
REMARK                         _______ _______ _______ _____ _____    ______ ____
ROOT
ATOM      1  C   LIG    1        1.358   0.171  -0.076  0.00  0.00    +0.054 A 
ATOM      2  N   LIG    1        2.107   1.159  -0.697  0.00  0.00    -0.316 N 
ATOM      3  C   LIG    1        3.434   0.863  -0.471  0.00  0.00    +0.095 A 
ATOM      4  C   LIG    1        3.574  -0.324   0.228  0.00  0.00    -0.032 A 
ATOM      5  C   LIG    1        4.852  -0.969   0.706  0.00  0.00    +0.045 C 
ATOM      6  C   LIG    1        2.261  -0.727   0.485  0.00  0.00    +0.031 A 
ENDROOT
BRANCH   1  10
ATOM      7  C   LIG    1       -2.931  -0.018   0.113  0.00  0.00    +0.121 A 
ATOM      8  C   LIG    1       -2.268   1.189   0.383  0.00  0.00    +0.046 A 
ATOM      9  C   LIG    1       -0.879   1.254   0.323  0.00  0.00    +0.013 A 
ATOM     10  C   LIG    1       -0.135   0.120  -0.016  0.00  0.00    -0.001 A 
ATOM     11  C   LIG    1       -0.792  -1.084  -0.276  0.00  0.00    +0.013 A 
ATOM     12  C   LIG    1       -2.181  -1.148  -0.216  0.00  0.00    +0.046 A 
BRANCH   7  13
ATOM     13  O   LIG    1       -4.303  -0.179   0.150  0.00  0.00    -0.492 OA
BRANCH  13  15
ATOM     14  C   LIG    1       -6.590   0.476   0.496  0.00  0.00    +0.048 C 
ATOM     15  C   LIG    1       -5.128   0.932   0.491  0.00  0.00    +0.225 C 
ENDBRANCH  13  15
ENDBRANCH   7  13
ENDBRANCH   1  10
BRANCH   2  16
ATOM     16  C   LIG    1        1.648   2.272  -1.436  0.00  0.00    +0.047 A 
ATOM     17  C   LIG    1        0.697   2.097  -2.446  0.00  0.00    +0.028 A 
ATOM     18  C   LIG    1        0.248   3.195  -3.174  0.00  0.00    +0.030 A 
ATOM     19  C   LIG    1        0.753   4.466  -2.893  0.00  0.00    +0.105 A 
ATOM     20  C   LIG    1        1.710   4.641  -1.892  0.00  0.00    +0.030 A 
ATOM     21  C   LIG    1        2.160   3.544  -1.164  0.00  0.00    +0.028 A 
BRANCH  19  22
ATOM     22  S   LIG    1        0.189   5.892  -3.815  0.00  0.00    +0.056 S 
ATOM     23  O   LIG    1       -0.872   5.454  -4.729  0.00  0.00    -0.153 OA
ATOM     24  O   LIG    1        1.389   6.570  -4.319  0.00  0.00    -0.153 OA
BRANCH  22  25
ATOM     25  N   LIG    1       -0.541   6.939  -2.612  0.00  0.00    -0.204 NA
ATOM     26  H   LIG    1        0.114   7.312  -1.920  0.00  0.00    +0.144 HD
ATOM     27  H   LIG    1       -1.403   6.572  -2.198  0.00  0.00    +0.144 HD
ENDBRANCH  22  25
ENDBRANCH  19  22
ENDBRANCH   2  16
TORSDOF 6
