REMARK  Name = DB12088
REMARK                            x       y       z     vdW  Elec       q    Type
REMARK                         _______ _______ _______ _____ _____    ______ ____
ROOT
ATOM      1  C   LIG    1        0.363  -0.520   0.165  0.00  0.00    +0.169 C 
ATOM      2  N   LIG    1        1.030  -0.923  -1.083  0.00  0.00    -0.302 N 
ATOM      3  H   LIG    1        1.839  -1.503  -0.915  0.00  0.00    +0.150 HD
ATOM      4  C   LIG    1        0.775  -0.652  -2.379  0.00  0.00    +0.234 C 
ATOM      5  O   LIG    1        1.513  -1.091  -3.260  0.00  0.00    -0.274 OA
ATOM      6  C   LIG    1       -0.428   0.217  -2.803  0.00  0.00    +0.159 C 
ATOM      7  N   LIG    1        0.076   1.279  -3.664  0.00  0.00    -0.302 N 
ATOM      8  H   LIG    1        0.951   1.080  -4.128  0.00  0.00    +0.150 HD
ATOM      9  C   LIG    1       -0.468   2.498  -3.789  0.00  0.00    +0.234 C 
ATOM     10  O   LIG    1       -1.534   2.848  -3.281  0.00  0.00    -0.274 OA
ATOM     11  C   LIG    1        0.347   3.486  -4.627  0.00  0.00    +0.163 C 
ATOM     12  N   LIG    1        0.426   4.761  -3.911  0.00  0.00    -0.302 N 
ATOM     13  H   LIG    1       -0.487   5.059  -3.599  0.00  0.00    +0.150 HD
ATOM     14  C   LIG    1        1.429   5.598  -3.567  0.00  0.00    +0.234 C 
ATOM     15  O   LIG    1        1.142   6.624  -2.953  0.00  0.00    -0.274 OA
ATOM     16  C   LIG    1        2.939   5.420  -3.911  0.00  0.00    +0.163 C 
ATOM     17  N   LIG    1        3.813   5.818  -2.799  0.00  0.00    -0.302 N 
ATOM     18  H   LIG    1        4.444   6.566  -3.049  0.00  0.00    +0.150 HD
ATOM     19  C   LIG    1        3.971   5.306  -1.561  0.00  0.00    +0.235 C 
ATOM     20  O   LIG    1        4.861   5.730  -0.824  0.00  0.00    -0.274 OA
ATOM     21  C   LIG    1        3.029   4.215  -0.998  0.00  0.00    +0.169 C 
ATOM     22  C   LIG    1        2.055   4.880   0.004  0.00  0.00    +0.112 C 
ATOM     23  S   LIG    1        0.984   3.861   1.063  0.00  0.00    -0.091 S 
ATOM     24  S   LIG    1        0.140   2.415  -0.097  0.00  0.00    -0.091 S 
ATOM     25  C   LIG    1        0.807   0.891   0.635  0.00  0.00    +0.112 C 
ENDROOT
BRANCH   1  28
ATOM     26  N   LIG    1       -1.502  -2.058  -0.176  0.00  0.00    -0.300 N 
ATOM     27  H   LIG    1       -0.782  -2.700  -0.474  0.00  0.00    +0.150 HD
ATOM     28  C   LIG    1       -1.145  -0.829   0.237  0.00  0.00    +0.235 C 
ATOM     29  O   LIG    1       -1.935   0.025   0.638  0.00  0.00    -0.274 OA
BRANCH  26  30
ATOM     30  C   LIG    1       -2.871  -2.578  -0.228  0.00  0.00    +0.187 C 
BRANCH  30  31
ATOM     31  C   LIG    1       -3.493  -2.732   1.181  0.00  0.00    +0.233 C 
ATOM     32  N   LIG    1       -4.738  -2.277   1.344  0.00  0.00    -0.328 N 
ATOM     33  H   LIG    1       -5.191  -2.356   2.243  0.00  0.00    +0.145 HD
ATOM     34  H   LIG    1       -5.229  -1.840   0.578  0.00  0.00    +0.145 HD
ATOM     35  O   LIG    1       -2.854  -3.270   2.086  0.00  0.00    -0.274 OA
ENDBRANCH  30  31
BRANCH  30  37
ATOM     36  C   LIG    1       -4.276  -4.631  -1.047  0.00  0.00    +0.040 C 
ATOM     37  C   LIG    1       -2.890  -3.970  -0.923  0.00  0.00    +0.141 C 
BRANCH  37  38
ATOM     38  O   LIG    1       -2.359  -3.852  -2.230  0.00  0.00    -0.390 OA
ATOM     39  H   LIG    1       -1.442  -3.575  -2.161  0.00  0.00    +0.210 HD
ENDBRANCH  37  38
ENDBRANCH  30  37
ENDBRANCH  26  30
ENDBRANCH   1  28
BRANCH  21  40
ATOM     40  N   LIG    1        3.848   3.216  -0.306  0.00  0.00    -0.305 N 
ATOM     41  H   LIG    1        4.273   3.527   0.556  0.00  0.00    +0.149 HD
ATOM     42  C   LIG    1        4.160   2.006  -0.802  0.00  0.00    +0.199 C 
ATOM     43  O   LIG    1        3.659   1.539  -1.831  0.00  0.00    -0.278 OA
BRANCH  42  44
ATOM     44  C   LIG    1        5.201   1.200   0.015  0.00  0.00    +0.017 C 
BRANCH  44  45
ATOM     45  N   LIG    1        6.230   0.728  -0.979  0.00  0.00    +0.386 N 
ATOM     46  H   LIG    1        6.816   0.034  -0.536  0.00  0.00    -0.089 HD
ATOM     47  H   LIG    1        5.756   0.317  -1.771  0.00  0.00    -0.089 HD
ATOM     48  H   LIG    1        6.792   1.513  -1.278  0.00  0.00    -0.089 HD
ENDBRANCH  44  45
BRANCH  44  49
ATOM     49  C   LIG    1        4.548   0.042   0.815  0.00  0.00    +0.028 C 
BRANCH  49  50
ATOM     50  C   LIG    1        5.496  -0.861   1.590  0.00  0.00    -0.048 A 
ATOM     51  C   LIG    1        6.054  -0.420   2.809  0.00  0.00    +0.003 A 
ATOM     52  C   LIG    1        6.981  -1.213   3.475  0.00  0.00    +0.000 A 
ATOM     53  C   LIG    1        7.382  -2.427   2.932  0.00  0.00    +0.000 A 
ATOM     54  C   LIG    1        6.869  -2.856   1.714  0.00  0.00    +0.000 A 
ATOM     55  C   LIG    1        5.942  -2.079   1.032  0.00  0.00    +0.003 A 
ENDBRANCH  49  50
ENDBRANCH  44  49
ENDBRANCH  42  44
ENDBRANCH  21  40
BRANCH   6  56
ATOM     56  C   LIG    1       -1.577  -0.547  -3.507  0.00  0.00    +0.032 C 
BRANCH  56  57
ATOM     57  C   LIG    1       -1.197  -1.386  -4.743  0.00  0.00    +0.000 C 
BRANCH  57  58
ATOM     58  C   LIG    1       -2.435  -1.953  -5.460  0.00  0.00    -0.019 C 
BRANCH  58  59
ATOM     59  C   LIG    1       -2.109  -2.837  -6.678  0.00  0.00    -0.086 C 
BRANCH  59  60
ATOM     60  N   LIG    1       -1.518  -4.134  -6.296  0.00  0.00    +0.378 N 
ATOM     61  H   LIG    1       -0.651  -3.977  -5.801  0.00  0.00    -0.090 HD
ATOM     62  H   LIG    1       -2.159  -4.634  -5.697  0.00  0.00    -0.090 HD
ATOM     63  H   LIG    1       -1.337  -4.681  -7.125  0.00  0.00    -0.090 HD
ENDBRANCH  59  60
ENDBRANCH  58  59
ENDBRANCH  57  58
ENDBRANCH  56  57
ENDBRANCH   6  56
BRANCH  11  64
ATOM     64  C   LIG    1       -0.287   3.701  -6.016  0.00  0.00    +0.069 C 
BRANCH  64  65
ATOM     65  C   LIG    1        0.496   4.566  -6.960  0.00  0.00    -0.020 A 
ATOM     66  C   LIG    1        1.610   4.189  -7.827  0.00  0.00    +0.003 A 
ATOM     67  C   LIG    1        2.277   2.975  -8.118  0.00  0.00    +0.010 A 
ATOM     68  C   LIG    1        3.361   2.933  -9.018  0.00  0.00    +0.001 A 
ATOM     69  C   LIG    1        3.806   4.109  -9.654  0.00  0.00    +0.002 A 
ATOM     70  C   LIG    1        3.167   5.334  -9.388  0.00  0.00    +0.026 A 
ATOM     71  C   LIG    1        2.089   5.364  -8.485  0.00  0.00    +0.047 A 
ATOM     72  N   LIG    1        1.282   6.375  -8.008  0.00  0.00    -0.360 N 
ATOM     73  H   LIG    1        1.348   7.350  -8.261  0.00  0.00    +0.165 HD
ATOM     74  C   LIG    1        0.353   5.904  -7.104  0.00  0.00    +0.087 A 
ENDBRANCH  64  65
ENDBRANCH  11  64
BRANCH  16  75
ATOM     75  C   LIG    1        3.474   4.119  -4.550  0.00  0.00    +0.067 C 
BRANCH  75  76
ATOM     76  C   LIG    1        4.947   4.142  -4.926  0.00  0.00    -0.045 A 
ATOM     77  C   LIG    1        5.361   4.809  -6.098  0.00  0.00    +0.007 A 
ATOM     78  C   LIG    1        6.722   4.827  -6.460  0.00  0.00    +0.045 A 
ATOM     79  C   LIG    1        7.675   4.179  -5.649  0.00  0.00    +0.117 A 
ATOM     80  C   LIG    1        7.265   3.515  -4.476  0.00  0.00    +0.045 A 
ATOM     81  C   LIG    1        5.904   3.495  -4.117  0.00  0.00    +0.007 A 
BRANCH  79  82
ATOM     82  O   LIG    1        8.994   4.194  -5.997  0.00  0.00    -0.507 OA
ATOM     83  H   LIG    1        9.164   4.668  -6.814  0.00  0.00    +0.292 HD
ENDBRANCH  79  82
ENDBRANCH  75  76
ENDBRANCH  16  75
TORSDOF 20
