REMARK  Name = DB12755
REMARK                            x       y       z     vdW  Elec       q    Type
REMARK                         _______ _______ _______ _____ _____    ______ ____
ROOT
ATOM      1  C   UNK    1        1.548   0.352   0.063  0.00  0.00    +0.159 C 
ENDROOT
BRANCH   1   2
ATOM      2  C   UNK    1        2.318   1.005  -1.101  0.00  0.00    +0.234 C 
ATOM      3  O   UNK    1        1.878   0.932  -2.249  0.00  0.00    -0.274 OA
ATOM      4  N   UNK    1        3.473   1.602  -0.766  0.00  0.00    -0.302 N 
ATOM      5  H   UNK    1        3.760   1.616   0.203  0.00  0.00    +0.150 HD
BRANCH   4   6
ATOM      6  C   UNK    1        4.414   2.197  -1.713  0.00  0.00    +0.159 C 
BRANCH   6   7
ATOM      7  C   UNK    1        5.418   1.120  -2.157  0.00  0.00    +0.234 C 
ATOM      8  N   UNK    1        4.995   0.313  -3.147  0.00  0.00    -0.302 N 
ATOM      9  H   UNK    1        4.078   0.475  -3.536  0.00  0.00    +0.150 HD
ATOM     10  O   UNK    1        6.506   1.021  -1.591  0.00  0.00    -0.274 OA
BRANCH   8  11
ATOM     11  C   UNK    1        5.731  -0.809  -3.737  0.00  0.00    +0.159 C 
BRANCH  11  12
ATOM     12  C   UNK    1        7.052  -0.338  -4.396  0.00  0.00    +0.237 C 
ATOM     13  N   UNK    1        8.229  -0.789  -3.889  0.00  0.00    -0.288 N 
ATOM     14  C   UNK    1        8.398  -1.593  -2.675  0.00  0.00    +0.109 C 
ATOM     15  C   UNK    1        9.853  -1.402  -2.278  0.00  0.00    +0.021 C 
ATOM     16  C   UNK    1       10.549  -1.254  -3.616  0.00  0.00    +0.033 C 
ATOM     17  C   UNK    1        9.545  -0.484  -4.495  0.00  0.00    +0.162 C 
ATOM     18  O   UNK    1        6.973   0.438  -5.350  0.00  0.00    -0.274 OA
BRANCH  17  19
ATOM     19  C   UNK    1        9.670  -0.885  -5.977  0.00  0.00    +0.234 C 
ATOM     20  N   UNK    1       10.056   0.089  -6.816  0.00  0.00    -0.305 N 
ATOM     21  H   UNK    1       10.244   1.010  -6.448  0.00  0.00    +0.149 HD
ATOM     22  O   UNK    1        9.404  -2.038  -6.320  0.00  0.00    -0.274 OA
BRANCH  20  23
ATOM     23  C   UNK    1       10.228  -0.087  -8.262  0.00  0.00    +0.199 C 
BRANCH  23  24
ATOM     24  C   UNK    1        8.918   0.004  -9.075  0.00  0.00    +0.228 C 
ATOM     25  O   UNK    1        8.956  -0.185 -10.289  0.00  0.00    -0.274 OA
ATOM     26  N   UNK    1        7.763   0.290  -8.463  0.00  0.00    -0.328 N 
ATOM     27  H   UNK    1        6.909   0.352  -8.998  0.00  0.00    +0.145 HD
ATOM     28  H   UNK    1        7.737   0.442  -7.465  0.00  0.00    +0.145 HD
ENDBRANCH  23  24
ENDBRANCH  20  23
ENDBRANCH  17  19
ENDBRANCH  11  12
BRANCH  11  29
ATOM     29  C   UNK    1        4.821  -1.470  -4.797  0.00  0.00    +0.033 C 
BRANCH  29  30
ATOM     30  C   UNK    1        3.519  -2.063  -4.229  0.00  0.00    +0.017 C 
BRANCH  30  31
ATOM     31  C   UNK    1        2.670  -2.739  -5.319  0.00  0.00    +0.084 C 
BRANCH  31  32
ATOM     32  N   UNK    1        1.351  -3.170  -4.825  0.00  0.00    -0.283 NA
ATOM     33  H   UNK    1        1.301  -4.130  -4.517  0.00  0.00    +0.125 HD
BRANCH  32  34
ATOM     34  C   UNK    1        0.238  -2.420  -4.702  0.00  0.00    +0.167 C 
BRANCH  34  35
ATOM     35  N   UNK    1       -0.880  -2.997  -4.240  0.00  0.00    -0.297 NA
ATOM     36  H   UNK    1       -0.881  -3.974  -3.986  0.00  0.00    +0.121 HD
ATOM     37  H   UNK    1       -1.728  -2.456  -4.144  0.00  0.00    +0.121 HD
ENDBRANCH  34  35
BRANCH  34  38
ATOM     38  N   UNK    1        0.206  -1.117  -5.027  0.00  0.00    -0.297 NA
ATOM     39  H   UNK    1       -0.644  -0.583  -4.915  0.00  0.00    +0.121 HD
ATOM     40  H   UNK    1        1.040  -0.661  -5.370  0.00  0.00    +0.121 HD
ENDBRANCH  34  38
ENDBRANCH  32  34
ENDBRANCH  31  32
ENDBRANCH  30  31
ENDBRANCH  29  30
ENDBRANCH  11  29
ENDBRANCH   8  11
ENDBRANCH   6   7
BRANCH   6  41
ATOM     41  C   UNK    1        5.105   3.413  -1.048  0.00  0.00    +0.034 C 
BRANCH  41  42
ATOM     42  C   UNK    1        4.155   4.580  -0.689  0.00  0.00    -0.015 C 
ATOM     43  C   UNK    1        4.897   5.670   0.114  0.00  0.00    +0.007 C 
ATOM     44  C   UNK    1        3.430   5.158  -1.924  0.00  0.00    +0.007 C 
ENDBRANCH  41  42
ENDBRANCH   6  41
ENDBRANCH   4   6
ENDBRANCH   1   2
BRANCH   1  45
ATOM     45  N   UNK    1        1.926  -1.058   0.203  0.00  0.00    -0.302 N 
ATOM     46  H   UNK    1        2.478  -1.266   1.023  0.00  0.00    +0.150 HD
ATOM     47  C   UNK    1        1.675  -2.061  -0.661  0.00  0.00    +0.234 C 
ATOM     48  O   UNK    1        1.010  -1.938  -1.689  0.00  0.00    -0.274 OA
BRANCH  47  49
ATOM     49  C   UNK    1        2.301  -3.427  -0.323  0.00  0.00    +0.163 C 
BRANCH  49  50
ATOM     50  N   UNK    1        2.265  -3.668   1.121  0.00  0.00    -0.302 N 
ATOM     51  H   UNK    1        1.386  -3.471   1.579  0.00  0.00    +0.150 HD
ATOM     52  C   UNK    1        3.305  -4.098   1.853  0.00  0.00    +0.236 C 
ATOM     53  O   UNK    1        4.420  -4.356   1.396  0.00  0.00    -0.274 OA
BRANCH  52  54
ATOM     54  C   UNK    1        3.048  -4.245   3.364  0.00  0.00    +0.184 C 
BRANCH  54  55
ATOM     55  N   UNK    1        3.677  -5.462   3.875  0.00  0.00    -0.301 N 
ATOM     56  H   UNK    1        4.575  -5.341   4.321  0.00  0.00    +0.150 HD
ATOM     57  C   UNK    1        3.200  -6.702   3.676  0.00  0.00    +0.234 C 
ATOM     58  O   UNK    1        2.116  -6.948   3.142  0.00  0.00    -0.274 OA
BRANCH  57  59
ATOM     59  C   UNK    1        4.118  -7.848   4.129  0.00  0.00    +0.163 C 
BRANCH  59  60
ATOM     60  N   UNK    1        3.379  -9.101   4.276  0.00  0.00    -0.302 N 
ATOM     61  H   UNK    1        3.429  -9.728   3.486  0.00  0.00    +0.150 HD
ATOM     62  C   UNK    1        2.665  -9.461   5.351  0.00  0.00    +0.234 C 
ATOM     63  O   UNK    1        2.540  -8.784   6.371  0.00  0.00    -0.274 OA
BRANCH  62  64
ATOM     64  C   UNK    1        1.938 -10.812   5.236  0.00  0.00    +0.161 C 
BRANCH  64  65
ATOM     65  N   UNK    1        2.239 -11.687   6.370  0.00  0.00    -0.302 N 
ATOM     66  H   UNK    1        1.486 -11.830   7.027  0.00  0.00    +0.150 HD
ATOM     67  C   UNK    1        3.430 -12.275   6.601  0.00  0.00    +0.234 C 
ATOM     68  O   UNK    1        4.388 -12.143   5.838  0.00  0.00    -0.274 OA
BRANCH  67  69
ATOM     69  C   UNK    1        3.597 -13.149   7.867  0.00  0.00    +0.159 C 
ATOM     70  N   UNK    1        2.413 -13.224   8.724  0.00  0.00    -0.304 N 
ATOM     71  H   UNK    1        1.956 -12.389   9.060  0.00  0.00    +0.149 HD
ATOM     72  C   UNK    1        2.171 -14.435   9.258  0.00  0.00    +0.214 C 
ATOM     73  O   UNK    1        1.315 -14.730  10.088  0.00  0.00    -0.276 OA
ATOM     74  C   UNK    1        3.185 -15.390   8.626  0.00  0.00    +0.098 C 
ATOM     75  C   UNK    1        3.859 -14.611   7.509  0.00  0.00    +0.041 C 
ENDBRANCH  67  69
ENDBRANCH  64  65
BRANCH  64  76
ATOM     76  C   UNK    1        0.411 -10.618   5.139  0.00  0.00    +0.057 C 
BRANCH  76  77
ATOM     77  C   UNK    1       -0.040  -9.772   3.970  0.00  0.00    +0.059 C 
ATOM     78  C   UNK    1       -0.034 -10.036   2.612  0.00  0.00    +0.096 C 
ATOM     79  N   UNK    1       -0.656  -8.973   1.978  0.00  0.00    -0.293 NA
ATOM     80  H   UNK    1       -0.796  -8.863   0.984  0.00  0.00    +0.124 HD
ATOM     81  C   UNK    1       -1.060  -8.140   2.934  0.00  0.00    +0.155 C 
ATOM     82  N   UNK    1       -0.741  -8.589   4.147  0.00  0.00    -0.290 NA
ATOM     83  H   UNK    1       -0.955  -8.143   5.028  0.00  0.00    +0.124 HD
ENDBRANCH  76  77
ENDBRANCH  64  76
ENDBRANCH  62  64
ENDBRANCH  59  60
BRANCH  59  84
ATOM     84  C   UNK    1        5.258  -8.069   3.113  0.00  0.00    +0.069 C 
BRANCH  84  85
ATOM     85  C   UNK    1        6.208  -9.186   3.437  0.00  0.00    -0.020 A 
ATOM     86  C   UNK    1        6.058 -10.618   3.179  0.00  0.00    +0.003 A 
ATOM     87  C   UNK    1        7.183 -11.297   3.739  0.00  0.00    +0.047 A 
ATOM     88  C   UNK    1        7.334 -12.693   3.663  0.00  0.00    +0.026 A 
ATOM     89  C   UNK    1        6.343 -13.456   3.020  0.00  0.00    +0.002 A 
ATOM     90  C   UNK    1        5.219 -12.818   2.460  0.00  0.00    +0.001 A 
ATOM     91  N   UNK    1        7.945 -10.292   4.299  0.00  0.00    -0.360 N 
ATOM     92  H   UNK    1        8.818 -10.420   4.791  0.00  0.00    +0.165 HD
ATOM     93  C   UNK    1        5.081 -11.418   2.539  0.00  0.00    +0.010 A 
ATOM     94  C   UNK    1        7.361  -9.054   4.130  0.00  0.00    +0.087 A 
ENDBRANCH  84  85
ENDBRANCH  59  84
ENDBRANCH  57  59
ENDBRANCH  54  55
BRANCH  54  95
ATOM     95  C   UNK    1        3.585  -3.037   4.159  0.00  0.00    +0.187 C 
BRANCH  95  96
ATOM     96  O   UNK    1        2.980  -1.825   3.748  0.00  0.00    -0.393 OA
ATOM     97  H   UNK    1        3.332  -1.112   4.287  0.00  0.00    +0.209 HD
ENDBRANCH  95  96
ENDBRANCH  54  95
ENDBRANCH  52  54
ENDBRANCH  49  50
BRANCH  49  98
ATOM     98  C   UNK    1        1.640  -4.608  -1.075  0.00  0.00    +0.067 C 
BRANCH  98  99
ATOM     99  C   UNK    1        2.329  -5.949  -0.889  0.00  0.00    -0.045 A 
ATOM    100  C   UNK    1        1.744  -6.948  -0.083  0.00  0.00    +0.007 A 
ATOM    101  C   UNK    1        2.396  -8.183   0.098  0.00  0.00    +0.045 A 
ATOM    102  C   UNK    1        3.634  -8.426  -0.528  0.00  0.00    +0.117 A 
ATOM    103  C   UNK    1        4.221  -7.431  -1.334  0.00  0.00    +0.045 A 
ATOM    104  C   UNK    1        3.569  -6.196  -1.515  0.00  0.00    +0.007 A 
BRANCH 102 105
ATOM    105  O   UNK    1        4.262  -9.624  -0.349  0.00  0.00    -0.507 OA
ATOM    106  H   UNK    1        5.101  -9.684  -0.812  0.00  0.00    +0.292 HD
ENDBRANCH 102 105
ENDBRANCH  98  99
ENDBRANCH  49  98
ENDBRANCH  47  49
ENDBRANCH   1  45
BRANCH   1 107
ATOM    107  C   UNK    1        0.016   0.585   0.003  0.00  0.00    +0.032 C 
BRANCH 107 108
ATOM    108  C   UNK    1       -0.404   2.068  -0.086  0.00  0.00    +0.004 C 
BRANCH 108 109
ATOM    109  C   UNK    1       -1.926   2.267   0.033  0.00  0.00    +0.019 C 
BRANCH 109 110
ATOM    110  C   UNK    1       -2.353   3.735  -0.156  0.00  0.00    +0.104 C 
BRANCH 110 113
ATOM    111  C   UNK    1       -4.522   4.100   1.014  0.00  0.00    +0.213 C 
ATOM    112  O   UNK    1       -4.035   4.117   2.145  0.00  0.00    -0.276 OA
ATOM    113  N   UNK    1       -3.800   3.929  -0.107  0.00  0.00    -0.315 N 
ATOM    114  H   UNK    1       -4.279   3.945  -0.996  0.00  0.00    +0.149 HD
BRANCH 111 115
ATOM    115  C   UNK    1       -6.036   4.275   0.831  0.00  0.00    +0.096 C 
BRANCH 115 116
ATOM    116  C   UNK    1       -6.471   5.742   0.621  0.00  0.00    +0.020 C 
BRANCH 116 117
ATOM    117  C   UNK    1       -6.247   6.661   1.843  0.00  0.00    +0.121 C 
BRANCH 117 118
ATOM    118  C   UNK    1       -6.639   8.121   1.591  0.00  0.00    +0.307 C 
ATOM    119  O   UNK    1       -5.840   9.038   1.788  0.00  0.00    -0.251 OA
BRANCH 118 120
ATOM    120  O   UNK    1       -7.906   8.256   1.141  0.00  0.00    -0.457 OA
BRANCH 120 121
ATOM    121  C   UNK    1       -8.429   9.541   0.815  0.00  0.00    +0.309 C 
BRANCH 121 122
ATOM    122  C   UNK    1       -9.822   9.424   0.167  0.00  0.00    +0.202 C 
ATOM    123  O   UNK    1      -10.411   8.338   0.143  0.00  0.00    -0.291 OA
BRANCH 122 138
ATOM    124  C   UNK    1      -10.190  14.145  -4.107  0.00  0.00    +0.078 A 
ATOM    125  C   UNK    1      -10.831  15.091  -3.271  0.00  0.00    +0.078 A 
ATOM    126  C   UNK    1      -11.235  16.448  -3.828  0.00  0.00    +0.202 C 
ATOM    127  O   UNK    1      -12.029  17.184  -3.240  0.00  0.00    -0.286 OA
ATOM    128  C   UNK    1      -10.491  16.921  -5.054  0.00  0.00    +0.075 A 
ATOM    129  C   UNK    1       -9.853  15.964  -5.880  0.00  0.00    +0.037 A 
ATOM    130  C   UNK    1       -9.169  16.387  -7.028  0.00  0.00    +0.012 A 
ATOM    131  C   UNK    1       -9.106  17.731  -7.366  0.00  0.00    +0.004 A 
ATOM    132  C   UNK    1       -9.721  18.676  -6.558  0.00  0.00    +0.046 A 
ATOM    133  C   UNK    1      -10.415  18.296  -5.397  0.00  0.00    +0.132 A 
ATOM    134  C   UNK    1      -11.079  14.746  -1.922  0.00  0.00    +0.134 A 
ATOM    135  C   UNK    1      -10.717  13.497  -1.388  0.00  0.00    +0.030 A 
ATOM    136  C   UNK    1      -11.120  13.137   0.061  0.00  0.00    +0.158 C 
ATOM    137  C   UNK    1      -10.407  11.873   0.587  0.00  0.00    +0.079 C 
ATOM    138  C   UNK    1      -10.452  10.716  -0.436  0.00  0.00    +0.134 C 
ATOM    139  C   UNK    1       -9.655  11.176  -1.679  0.00  0.00    +0.082 C 
ATOM    140  C   UNK    1      -10.096  12.549  -2.231  0.00  0.00    +0.007 A 
ATOM    141  C   UNK    1       -9.879  14.501  -5.550  0.00  0.00    +0.198 C 
ATOM    142  O   UNK    1       -9.517  13.663  -6.380  0.00  0.00    -0.286 OA
ATOM    143  C   UNK    1       -9.832  12.889  -3.568  0.00  0.00    +0.132 A 
BRANCH 133 144
ATOM    144  O   UNK    1      -11.018  19.232  -4.571  0.00  0.00    -0.494 OA
ATOM    145  C   UNK    1      -10.962  20.619  -4.889  0.00  0.00    +0.277 C 
ENDBRANCH 133 144
BRANCH 134 146
ATOM    146  O   UNK    1      -11.689  15.636  -1.064  0.00  0.00    -0.506 OA
ATOM    147  H   UNK    1      -11.799  15.286  -0.177  0.00  0.00    +0.292 HD
ENDBRANCH 134 146
BRANCH 143 148
ATOM    148  O   UNK    1       -9.183  11.947  -4.336  0.00  0.00    -0.506 OA
ATOM    149  H   UNK    1       -9.032  12.241  -5.238  0.00  0.00    +0.292 HD
ENDBRANCH 143 148
BRANCH 138 150
ATOM    150  O   UNK    1      -11.787  10.401  -0.824  0.00  0.00    -0.381 OA
ATOM    151  H   UNK    1      -11.755   9.708  -1.488  0.00  0.00    +0.211 HD
ENDBRANCH 138 150
BRANCH 136 152
ATOM    152  O   UNK    1      -12.546  13.009   0.106  0.00  0.00    -0.343 OA
BRANCH 152 153
ATOM    153  C   UNK    1      -13.200  13.459   1.260  0.00  0.00    +0.250 C 
ATOM    154  O   UNK    1      -12.988  12.620   2.375  0.00  0.00    -0.346 OA
ATOM    155  C   UNK    1      -13.536  11.296   2.274  0.00  0.00    +0.145 C 
ATOM    156  C   UNK    1      -13.099  10.481   3.503  0.00  0.00    +0.040 C 
ATOM    157  C   UNK    1      -15.066  11.309   2.036  0.00  0.00    +0.129 C 
ATOM    158  C   UNK    1      -15.346  12.195   0.799  0.00  0.00    -0.039 C 
ATOM    159  C   UNK    1      -14.695  13.585   0.939  0.00  0.00    +0.048 C 
BRANCH 158 160
ATOM    160  N   UNK    1      -16.860  12.375   0.580  0.00  0.00    +0.382 N 
ATOM    161  H   UNK    1      -17.028  12.950  -0.232  0.00  0.00    -0.090 HD
ATOM    162  H   UNK    1      -17.301  11.477   0.444  0.00  0.00    -0.090 HD
ATOM    163  H   UNK    1      -17.271  12.820   1.389  0.00  0.00    -0.090 HD
ENDBRANCH 158 160
BRANCH 157 164
ATOM    164  O   UNK    1      -15.773  11.698   3.208  0.00  0.00    -0.391 OA
ATOM    165  H   UNK    1      -15.637  11.029   3.884  0.00  0.00    +0.210 HD
ENDBRANCH 157 164
ENDBRANCH 152 153
ENDBRANCH 136 152
ENDBRANCH 122 138
ENDBRANCH 121 122
ENDBRANCH 120 121
ENDBRANCH 118 120
ENDBRANCH 117 118
ENDBRANCH 116 117
ENDBRANCH 115 116
ENDBRANCH 111 115
ENDBRANCH 110 113
ENDBRANCH 109 110
ENDBRANCH 108 109
ENDBRANCH 107 108
ENDBRANCH   1 107
TORSDOF 57
