REMARK  Name = DB12611
REMARK                            x       y       z     vdW  Elec       q    Type
REMARK                         _______ _______ _______ _____ _____    ______ ____
ROOT
ATOM      1  C   LIG    1       -4.498   1.576  -0.095  0.00  0.00    +0.059 A 
ATOM      2  N   LIG    1       -3.268   2.186  -0.028  0.00  0.00    -0.353 N 
ATOM      3  H   LIG    1       -3.170   3.191   0.000  0.00  0.00    +0.166 HD
ATOM      4  C   LIG    1       -2.258   1.251  -0.001  0.00  0.00    +0.050 A 
ATOM      5  C   LIG    1       -0.872   1.396   0.065  0.00  0.00    +0.049 A 
ATOM      6  C   LIG    1       -0.108   0.218   0.074  0.00  0.00    +0.036 A 
ATOM      7  C   LIG    1       -0.728  -1.034   0.015  0.00  0.00    +0.037 A 
ATOM      8  C   LIG    1       -2.124  -1.191  -0.049  0.00  0.00    +0.052 A 
ATOM      9  C   LIG    1       -2.672  -2.609  -0.100  0.00  0.00    +0.273 A 
ATOM     10  N   LIG    1       -4.013  -2.849  -0.166  0.00  0.00    -0.243 N 
ATOM     11  H   LIG    1       -4.274  -3.824  -0.192  0.00  0.00    +0.192 HD
ATOM     12  N   LIG    1       -5.175  -2.108  -0.221  0.00  0.00    -0.179 NA
ATOM     13  C   LIG    1       -5.294  -0.839  -0.203  0.00  0.00    +0.143 A 
ATOM     14  O   LIG    1       -1.892  -3.563  -0.080  0.00  0.00    -0.266 OA
ATOM     15  C   LIG    1       -2.891  -0.021  -0.057  0.00  0.00    +0.021 A 
ATOM     16  C   LIG    1       -4.292   0.199  -0.120  0.00  0.00    +0.029 A 
ENDROOT
BRANCH   1  21
ATOM     17  C   LIG    1       -9.113   3.420   0.568  0.00  0.00    +0.172 C 
ATOM     18  N   LIG    1       -7.735   3.196   0.170  0.00  0.00    -0.274 N 
ATOM     19  N   LIG    1       -7.127   4.088  -0.621  0.00  0.00    -0.179 NA
ATOM     20  C   LIG    1       -5.918   3.604  -0.792  0.00  0.00    +0.144 A 
ATOM     21  C   LIG    1       -5.706   2.387  -0.124  0.00  0.00    +0.036 A 
ATOM     22  C   LIG    1       -6.918   2.148   0.506  0.00  0.00    +0.118 A 
ENDBRANCH   1  21
BRANCH   6  23
ATOM     23  N   LIG    1        1.300   0.184   0.131  0.00  0.00    -0.287 N 
ATOM     24  H   LIG    1        1.688  -0.746   0.064  0.00  0.00    +0.155 HD
ATOM     25  C   LIG    1        2.193   1.191   0.257  0.00  0.00    +0.203 C 
ATOM     26  O   LIG    1        1.914   2.390   0.360  0.00  0.00    -0.277 OA
BRANCH  25  27
ATOM     27  C   LIG    1        3.676   0.727   0.217  0.00  0.00    +0.016 C 
BRANCH  27  28
ATOM     28  C   LIG    1        4.360   0.919  -1.179  0.00  0.00    -0.017 C 
ATOM     29  C   LIG    1        5.798   0.341  -1.233  0.00  0.00    +0.002 C 
ATOM     30  C   LIG    1        6.508   0.830  -2.513  0.00  0.00    +0.000 C 
ATOM     31  C   LIG    1        5.721   0.405  -3.779  0.00  0.00    +0.000 C 
ATOM     32  C   LIG    1        4.210   0.736  -3.699  0.00  0.00    +0.000 C 
ATOM     33  C   LIG    1        3.608   0.253  -2.362  0.00  0.00    +0.002 C 
ENDBRANCH  27  28
BRANCH  27  34
ATOM     34  N   LIG    1        4.365   1.457   1.342  0.00  0.00    +0.386 N 
ATOM     35  H   LIG    1        5.364   1.330   1.254  0.00  0.00    -0.089 HD
ATOM     36  H   LIG    1        4.140   2.440   1.276  0.00  0.00    -0.089 HD
ATOM     37  H   LIG    1        4.046   1.087   2.225  0.00  0.00    -0.089 HD
ENDBRANCH  27  34
ENDBRANCH  25  27
ENDBRANCH   6  23
TORSDOF 5
