REMARK  Name = DB12682
REMARK                            x       y       z     vdW  Elec       q    Type
REMARK                         _______ _______ _______ _____ _____    ______ ____
ROOT
ATOM      1  C   LIG    1        2.109   1.192   0.275  0.00  0.00    +0.287 C 
ENDROOT
BRANCH   1   2
ATOM      2  C   LIG    1        3.602   0.983   0.129  0.00  0.00    +0.117 A 
ATOM      3  N   LIG    1        4.459   1.746   0.789  0.00  0.00    -0.211 NA
ATOM      4  C   LIG    1        5.658   1.313   0.458  0.00  0.00    +0.220 A 
ATOM      5  O   LIG    1        5.625   0.273  -0.415  0.00  0.00    -0.444 OA
ATOM      6  C   LIG    1        4.308   0.059  -0.626  0.00  0.00    +0.224 A 
BRANCH   4   7
ATOM      7  C   LIG    1        6.954   1.789   0.901  0.00  0.00    +0.068 C 
ATOM      8  C   LIG    1        7.182   2.766   1.801  0.00  0.00    +0.013 C 
BRANCH   8   9
ATOM      9  C   LIG    1        8.498   3.263   2.260  0.00  0.00    -0.025 A 
ATOM     10  C   LIG    1        8.530   4.228   3.271  0.00  0.00    +0.008 A 
ATOM     11  C   LIG    1        9.743   4.723   3.739  0.00  0.00    +0.013 A 
ATOM     12  C   LIG    1       10.947   4.261   3.200  0.00  0.00    +0.055 A 
ATOM     13  C   LIG    1       10.922   3.296   2.188  0.00  0.00    +0.013 A 
ATOM     14  C   LIG    1        9.707   2.801   1.722  0.00  0.00    +0.008 A 
BRANCH  12  15
ATOM     15  C   LIG    1       12.270   4.817   3.725  0.00  0.00    +0.417 C 
ATOM     16  F   LIG    1       12.219   6.148   3.793  0.00  0.00    -0.166 F 
ATOM     17  F   LIG    1       13.304   4.484   2.949  0.00  0.00    -0.166 F 
ATOM     18  F   LIG    1       12.494   4.334   4.947  0.00  0.00    -0.166 F 
ENDBRANCH  12  15
ENDBRANCH   8   9
ENDBRANCH   4   7
ENDBRANCH   1   2
BRANCH   1  19
ATOM     19  O   LIG    1        1.420   0.149  -0.411  0.00  0.00    -0.486 OA
BRANCH  19  24
ATOM     20  C   LIG    1       -1.942  -1.174  -0.931  0.00  0.00    +0.007 A 
ATOM     21  C   LIG    1       -2.738  -0.233  -0.276  0.00  0.00    -0.047 A 
ATOM     22  C   LIG    1       -2.148   0.871   0.342  0.00  0.00    +0.007 A 
ATOM     23  C   LIG    1       -0.764   1.029   0.312  0.00  0.00    +0.046 A 
ATOM     24  C   LIG    1        0.042   0.081  -0.339  0.00  0.00    +0.121 A 
ATOM     25  C   LIG    1       -0.560  -1.013  -0.962  0.00  0.00    +0.046 A 
BRANCH  21  26
ATOM     26  C   LIG    1       -4.248  -0.417  -0.234  0.00  0.00    +0.035 C 
BRANCH  26  27
ATOM     27  C   LIG    1       -4.952   0.132  -1.488  0.00  0.00    +0.006 C 
BRANCH  27  28
ATOM     28  C   LIG    1       -6.473  -0.096  -1.462  0.00  0.00    +0.024 C 
BRANCH  28  29
ATOM     29  C   LIG    1       -7.180   0.442  -2.721  0.00  0.00    +0.145 C 
BRANCH  29  30
ATOM     30  N   LIG    1       -8.607   0.160  -2.678  0.00  0.00    -0.252 N 
ATOM     31  N   LIG    1       -9.429   0.918  -1.941  0.00  0.00    -0.066 NA
ATOM     32  N   LIG    1      -10.693   0.368  -2.066  0.00  0.00    -0.138 NA
ATOM     33  C   LIG    1      -10.599  -0.697  -2.842  0.00  0.00    +0.156 A 
ATOM     34  C   LIG    1       -9.288  -0.882  -3.253  0.00  0.00    +0.130 A 
ENDBRANCH  29  30
ENDBRANCH  28  29
ENDBRANCH  27  28
ENDBRANCH  26  27
ENDBRANCH  21  26
ENDBRANCH  19  24
ENDBRANCH   1  19
TORSDOF 11
