REMARK  Name = DB12724
REMARK                            x       y       z     vdW  Elec       q    Type
REMARK                         _______ _______ _______ _____ _____    ______ ____
ROOT
ATOM      1  C   LIG    1        3.622  -0.661  -0.214  0.00  0.00    +0.037 A 
ATOM      2  C   LIG    1        4.035   0.680  -0.213  0.00  0.00    +0.013 A 
ATOM      3  C   LIG    1        5.383   1.005  -0.093  0.00  0.00    +0.009 A 
ATOM      4  C   LIG    1        6.351   0.003   0.029  0.00  0.00    -0.014 A 
ATOM      5  C   LIG    1        5.942  -1.334   0.019  0.00  0.00    +0.009 A 
ATOM      6  C   LIG    1        4.595  -1.663  -0.101  0.00  0.00    +0.013 A 
ENDROOT
BRANCH   4   7
ATOM      7  C   LIG    1        7.797   0.347   0.154  0.00  0.00    +0.026 A 
ATOM      8  C   LIG    1        8.261   1.262   1.120  0.00  0.00    +0.138 A 
ATOM      9  C   LIG    1        9.635   1.553   1.178  0.00  0.00    +0.048 A 
ATOM     10  C   LIG    1       10.535   0.946   0.307  0.00  0.00    +0.027 A 
ATOM     11  C   LIG    1       10.082   0.020  -0.641  0.00  0.00    +0.034 A 
ATOM     12  C   LIG    1        8.717  -0.259  -0.712  0.00  0.00    +0.035 A 
BRANCH  11  13
ATOM     13  N   LIG    1       10.909  -0.636  -1.572  0.00  0.00    -0.285 N 
ATOM     14  H   LIG    1       10.419  -1.054  -2.349  0.00  0.00    +0.155 HD
ATOM     15  C   LIG    1       12.242  -0.846  -1.521  0.00  0.00    +0.220 C 
ATOM     16  O   LIG    1       12.970  -0.507  -0.585  0.00  0.00    -0.275 OA
BRANCH  15  17
ATOM     17  C   LIG    1       12.822  -1.591  -2.739  0.00  0.00    +0.075 C 
ATOM     18  C   LIG    1       14.234  -1.219  -3.143  0.00  0.00    +0.013 C 
ATOM     19  C   LIG    1       13.966  -2.544  -2.460  0.00  0.00    +0.013 C 
ENDBRANCH  15  17
ENDBRANCH  11  13
BRANCH   8  20
ATOM     20  O   LIG    1        7.326   1.819   1.978  0.00  0.00    -0.405 OA
BRANCH  20  21
ATOM     21  C   LIG    1        7.712   2.749   2.990  0.00  0.00    +0.575 C 
ATOM     22  F   LIG    1        8.241   3.857   2.467  0.00  0.00    -0.133 F 
ATOM     23  F   LIG    1        8.543   2.198   3.877  0.00  0.00    -0.133 F 
ATOM     24  F   LIG    1        6.606   3.103   3.642  0.00  0.00    -0.133 F 
ENDBRANCH  20  21
ENDBRANCH   8  20
ENDBRANCH   4   7
BRANCH   1  27
ATOM     25  N   LIG    1        1.274  -0.077  -0.016  0.00  0.00    -0.282 N 
ATOM     26  H   LIG    1        1.672   0.811   0.254  0.00  0.00    +0.155 HD
ATOM     27  C   LIG    1        2.162  -1.043  -0.348  0.00  0.00    +0.248 C 
ATOM     28  O   LIG    1        1.857  -2.177  -0.721  0.00  0.00    -0.270 OA
BRANCH  25  32
ATOM     29  C   LIG    1       -2.924   0.060   0.118  0.00  0.00    -0.033 A 
ATOM     30  C   LIG    1       -2.146   1.201   0.326  0.00  0.00    +0.007 A 
ATOM     31  C   LIG    1       -0.758   1.116   0.272  0.00  0.00    +0.023 A 
ATOM     32  C   LIG    1       -0.134  -0.105   0.005  0.00  0.00    +0.034 A 
ATOM     33  C   LIG    1       -0.919  -1.250  -0.206  0.00  0.00    +0.023 A 
ATOM     34  C   LIG    1       -2.308  -1.163  -0.152  0.00  0.00    +0.007 A 
BRANCH  29  35
ATOM     35  C   LIG    1       -4.444   0.151   0.180  0.00  0.00    +0.119 C 
BRANCH  35  39
ATOM     36  N   LIG    1       -6.644   0.180   3.809  0.00  0.00    -0.179 NA
ATOM     37  C   LIG    1       -6.841   1.301   2.860  0.00  0.00    +0.124 C 
ATOM     38  C   LIG    1       -6.356   0.870   1.456  0.00  0.00    +0.102 C 
ATOM     39  N   LIG    1       -4.935   0.481   1.522  0.00  0.00    -0.296 NA
ATOM     40  C   LIG    1       -4.760  -0.655   2.451  0.00  0.00    +0.102 C 
ATOM     41  C   LIG    1       -5.227  -0.245   3.868  0.00  0.00    +0.124 C 
BRANCH  36  42
ATOM     42  S   LIG    1       -7.495   0.310   5.357  0.00  0.00    +0.032 S 
ATOM     43  O   LIG    1       -7.005  -0.756   6.239  0.00  0.00    -0.158 OA
ATOM     44  O   LIG    1       -7.425   1.710   5.790  0.00  0.00    -0.158 OA
BRANCH  42  45
ATOM     45  C   LIG    1       -9.295  -0.075   4.909  0.00  0.00    +0.185 C 
BRANCH  45  47
ATOM     46  C   LIG    1      -10.864  -1.881   4.004  0.00  0.00    +0.005 C 
ATOM     47  C   LIG    1       -9.427  -1.520   4.399  0.00  0.00    +0.021 C 
ENDBRANCH  45  47
ENDBRANCH  42  45
ENDBRANCH  36  42
ENDBRANCH  35  39
ENDBRANCH  29  35
ENDBRANCH  25  32
ENDBRANCH   1  27
TORSDOF 12
