REMARK  Name = DB12941
REMARK                            x       y       z     vdW  Elec       q    Type
REMARK                         _______ _______ _______ _____ _____    ______ ____
ROOT
ATOM      1  C   LIG    1       -0.070  -0.162  -0.046  0.00  0.00    +0.092 C 
ATOM      2  C   LIG    1       -0.635  -0.999  -1.205  0.00  0.00    +0.030 C 
ENDROOT
BRANCH   1   3
ATOM      3  N   LIG    1        1.397  -0.122  -0.129  0.00  0.00    -0.306 N 
ATOM      4  H   LIG    1        1.847  -0.990  -0.381  0.00  0.00    +0.149 HD
ATOM      5  C   LIG    1        2.174   0.965   0.052  0.00  0.00    +0.264 C 
ATOM      6  O   LIG    1        1.729   2.096   0.262  0.00  0.00    -0.268 OA
BRANCH   5   7
ATOM      7  C   LIG    1        3.596   0.701   0.059  0.00  0.00    +0.147 A 
ATOM      8  C   LIG    1        4.234  -0.494  -0.342  0.00  0.00    +0.060 A 
ATOM      9  C   LIG    1        5.596  -0.309  -0.178  0.00  0.00    +0.065 A 
ATOM     10  N   LIG    1        5.680   0.973   0.298  0.00  0.00    -0.278 N 
ATOM     11  H   LIG    1        6.547   1.438   0.527  0.00  0.00    +0.189 HD
ATOM     12  N   LIG    1        4.500   1.586   0.430  0.00  0.00    -0.169 NA
BRANCH   9  13
ATOM     13  C   LIG    1        6.796  -1.208  -0.411  0.00  0.00    +0.159 C 
ATOM     14  C   LIG    1        7.650  -1.397   0.854  0.00  0.00    +0.044 C 
BRANCH  13  15
ATOM     15  O   LIG    1        7.603  -0.652  -1.429  0.00  0.00    -0.386 OA
ATOM     16  H   LIG    1        7.081  -0.594  -2.233  0.00  0.00    +0.210 HD
ENDBRANCH  13  15
ENDBRANCH   9  13
ENDBRANCH   5   7
ENDBRANCH   1   3
BRANCH   1  17
ATOM     17  C   LIG    1       -0.592  -0.676   1.326  0.00  0.00    +0.165 C 
BRANCH  17  21
ATOM     18  C   LIG    1        1.264   0.920   3.840  0.00  0.00    +0.093 A 
ATOM     19  C   LIG    1        0.103   1.703   3.957  0.00  0.00    +0.049 A 
ATOM     20  C   LIG    1       -0.790   1.199   3.031  0.00  0.00    +0.109 A 
ATOM     21  N   LIG    1       -0.140   0.143   2.448  0.00  0.00    -0.269 N 
ATOM     22  N   LIG    1        1.089  -0.039   2.952  0.00  0.00    -0.171 NA
BRANCH  18  28
ATOM     23  C   LIG    1        4.986   0.820   4.636  0.00  0.00    +0.059 A 
ATOM     24 CL   LIG    1        6.417   0.227   3.857  0.00  0.00    -0.082 Cl
ATOM     25  C   LIG    1        5.021   1.478   5.877  0.00  0.00    +0.070 A 
ATOM     26  C   LIG    1        3.829   1.939   6.445  0.00  0.00    +0.021 A 
ATOM     27  C   LIG    1        2.614   1.751   5.787  0.00  0.00    +0.011 A 
ATOM     28  C   LIG    1        2.567   1.096   4.552  0.00  0.00    +0.004 A 
ATOM     29  C   LIG    1        3.763   0.632   3.989  0.00  0.00    +0.031 A 
BRANCH  25  30
ATOM     30  C   LIG    1        6.270   1.702   6.597  0.00  0.00    +0.101 C 
ATOM     31  N   LIG    1        7.261   1.880   7.168  0.00  0.00    -0.191 NA
ENDBRANCH  25  30
ENDBRANCH  18  28
ENDBRANCH  17  21
ENDBRANCH   1  17
TORSDOF 8
