REMARK  Name = DB12072
REMARK                            x       y       z     vdW  Elec       q    Type
REMARK                         _______ _______ _______ _____ _____    ______ ____
ROOT
ATOM      1  C   LIG    1       -2.077  -0.523  -0.323  0.00  0.00    +0.043 A 
ATOM      2  N   LIG    1       -1.974   0.841  -0.336  0.00  0.00    -0.358 N 
ATOM      3  H   LIG    1       -2.752   1.471  -0.473  0.00  0.00    +0.166 HD
ATOM      4  C   LIG    1       -0.677   1.235  -0.176  0.00  0.00    +0.017 A 
ATOM      5  C   LIG    1       -0.318   2.704  -0.183  0.00  0.00    +0.063 C 
ATOM      6  C   LIG    1        0.091   0.080  -0.038  0.00  0.00    -0.023 A 
ATOM      7  C   LIG    1       -0.797  -1.022  -0.080  0.00  0.00    -0.022 A 
ATOM      8  C   LIG    1       -0.417  -2.485   0.007  0.00  0.00    +0.046 C 
ENDROOT
BRANCH   1  19
ATOM      9  C   LIG    1       -6.136  -2.890  -0.551  0.00  0.00    +0.010 A 
ATOM     10  C   LIG    1       -5.740  -1.701  -1.170  0.00  0.00    +0.008 A 
ATOM     11  C   LIG    1       -6.614  -1.033  -1.996  0.00  0.00    +0.042 A 
ATOM     12  N   LIG    1       -5.983   0.091  -2.474  0.00  0.00    -0.281 N 
ATOM     13  H   LIG    1       -6.407   0.747  -3.113  0.00  0.00    +0.155 HD
ATOM     14  C   LIG    1       -4.723   0.216  -2.018  0.00  0.00    +0.249 C 
ATOM     15  O   LIG    1       -3.961   1.129  -2.329  0.00  0.00    -0.270 OA
ATOM     16  C   LIG    1       -7.902  -1.510  -2.240  0.00  0.00    +0.024 A 
ATOM     17  C   LIG    1       -8.303  -2.699  -1.624  0.00  0.00    +0.002 A 
ATOM     18  C   LIG    1       -4.502  -0.927  -1.137  0.00  0.00    +0.048 C 
ATOM     19  C   LIG    1       -3.362  -1.205  -0.457  0.00  0.00    +0.039 C 
ATOM     20  C   LIG    1       -7.422  -3.387  -0.782  0.00  0.00    +0.001 A 
ENDBRANCH   1  19
BRANCH   6  21
ATOM     21  C   LIG    1        1.596   0.020   0.144  0.00  0.00    +0.048 C 
BRANCH  21  22
ATOM     22  C   LIG    1        1.989  -0.224   1.624  0.00  0.00    +0.125 C 
BRANCH  22  23
ATOM     23  C   LIG    1        3.510  -0.305   1.901  0.00  0.00    +0.305 C 
ATOM     24  O   LIG    1        3.840  -0.517   3.090  0.00  0.00    -0.251 OA
BRANCH  23  25
ATOM     25  O   LIG    1        4.330  -0.161   0.964  0.00  0.00    -0.481 OA
ATOM     26  H   LIG    1        5.250  -0.211   1.135  0.00  0.00    +0.295 HD
ENDBRANCH  23  25
ENDBRANCH  22  23
ENDBRANCH  21  22
ENDBRANCH   6  21
TORSDOF 5
