REMARK  Name = DB12243
REMARK                            x       y       z     vdW  Elec       q    Type
REMARK                         _______ _______ _______ _____ _____    ______ ____
ROOT
ATOM      1  O   LIG    1       -0.429   2.303   0.000  0.00  0.00    -0.273 OA
ATOM      2  C   LIG    1       -0.739   1.111   0.000  0.00  0.00    +0.245 C 
ATOM      3  C   LIG    1       -2.142   0.543   0.000  0.00  0.00    +0.150 C 
ATOM      4  C   LIG    1       -1.854  -0.930   0.000  0.00  0.00    +0.043 C 
ATOM      5  C   LIG    1       -2.945  -1.978   0.000  0.00  0.00    +0.063 C 
ATOM      6  N   LIG    1       -0.609  -1.158   0.000  0.00  0.00    -0.181 NA
ATOM      7  N   LIG    1        0.048   0.021   0.000  0.00  0.00    -0.161 N 
ENDROOT
BRANCH   7   8
ATOM      8  C   LIG    1        1.445   0.008   0.000  0.00  0.00    +0.060 A 
ATOM      9  C   LIG    1        2.137   0.003   1.215  0.00  0.00    +0.025 A 
ATOM     10  C   LIG    1        3.530  -0.002   1.212  0.00  0.00    +0.002 A 
ATOM     11  C   LIG    1        4.218  -0.004   0.000  0.00  0.00    +0.000 A 
ATOM     12  C   LIG    1        3.530  -0.002  -1.212  0.00  0.00    +0.002 A 
ATOM     13  C   LIG    1        2.137   0.003  -1.215  0.00  0.00    +0.025 A 
ENDBRANCH   7   8
TORSDOF 1
