REMARK  Name = DB12972
REMARK                            x       y       z     vdW  Elec       q    Type
REMARK                         _______ _______ _______ _____ _____    ______ ____
ROOT
ATOM      1  C   LIG    1       -4.357  -2.520   6.661  0.00  0.00    +0.032 C 
ATOM      2  C   LIG    1       -3.524  -1.751   5.613  0.00  0.00    +0.010 C 
ATOM      3  C   LIG    1       -3.337  -2.511   4.261  0.00  0.00    -0.026 C 
ATOM      4  C   LIG    1       -2.524  -3.823   4.490  0.00  0.00    +0.012 C 
ATOM      5  C   LIG    1       -2.632  -1.572   3.201  0.00  0.00    -0.001 C 
ATOM      6  C   LIG    1       -1.230  -1.032   3.640  0.00  0.00    +0.005 C 
ATOM      7  C   LIG    1       -0.542  -0.160   2.561  0.00  0.00    +0.008 C 
ATOM      8  C   LIG    1       -0.441  -0.899   1.201  0.00  0.00    -0.019 C 
ATOM      9  C   LIG    1        0.486  -2.156   1.311  0.00  0.00    +0.012 C 
ATOM     10  C   LIG    1       -0.066   0.007  -0.012  0.00  0.00    +0.061 C 
ATOM     11  C   LIG    1       -0.654  -0.724  -1.250  0.00  0.00    +0.012 C 
ATOM     12  C   LIG    1       -1.810  -1.591  -0.714  0.00  0.00    +0.005 C 
ATOM     13  C   LIG    1       -1.892  -1.236   0.778  0.00  0.00    -0.001 C 
ATOM     14  C   LIG    1       -2.595  -2.208   1.765  0.00  0.00    -0.004 C 
ATOM     15  C   LIG    1       -4.031  -2.552   1.299  0.00  0.00    +0.004 C 
ATOM     16  C   LIG    1       -4.756  -3.450   2.314  0.00  0.00    +0.004 C 
ATOM     17  C   LIG    1       -4.785  -2.798   3.718  0.00  0.00    -0.002 C 
ATOM     18  C   LIG    1       -5.633  -3.621   4.722  0.00  0.00    +0.035 C 
ATOM     19  C   LIG    1       -5.734  -2.951   6.109  0.00  0.00    +0.115 C 
ENDROOT
BRANCH  10  20
ATOM     20  C   LIG    1        1.442   0.328  -0.137  0.00  0.00    +0.134 C 
ATOM     21  C   LIG    1        1.971   1.509   0.670  0.00  0.00    +0.086 C 
ATOM     22  O   LIG    1        2.194  -0.300  -0.882  0.00  0.00    -0.297 OA
ENDBRANCH  10  20
BRANCH  19  23
ATOM     23  O   LIG    1       -6.395  -3.799   7.026  0.00  0.00    -0.392 OA
ATOM     24  H   LIG    1       -7.195  -3.361   7.325  0.00  0.00    +0.210 HD
ENDBRANCH  19  23
TORSDOF 2
