REMARK  Name = DB12388
REMARK                            x       y       z     vdW  Elec       q    Type
REMARK                         _______ _______ _______ _____ _____    ______ ____
ROOT
ATOM      1  C   LIG    1        1.602   0.330   0.101  0.00  0.00    -0.052 C 
ATOM      2  C   LIG    1        2.047   1.104  -1.153  0.00  0.00    +0.089 C 
ATOM      3  N   LIG    1        3.238   0.482  -1.745  0.00  0.00    -0.331 N 
ATOM      4  C   LIG    1        3.793  -0.240  -0.600  0.00  0.00    +0.103 C 
ATOM      5  C   LIG    1        2.613  -0.797   0.191  0.00  0.00    +0.005 C 
ENDROOT
BRANCH   3   6
ATOM      6  C   LIG    1        3.218  -0.168  -2.988  0.00  0.00    +0.030 A 
ATOM      7  C   LIG    1        4.401  -0.237  -3.729  0.00  0.00    +0.023 A 
ATOM      8  C   LIG    1        4.413  -0.831  -4.989  0.00  0.00    +0.006 A 
ATOM      9  C   LIG    1        3.235  -1.356  -5.524  0.00  0.00    -0.037 A 
ATOM     10  C   LIG    1        2.049  -1.290  -4.791  0.00  0.00    +0.006 A 
ATOM     11  C   LIG    1        2.039  -0.694  -3.535  0.00  0.00    +0.023 A 
BRANCH   9  12
ATOM     12  C   LIG    1        3.244  -2.010  -6.908  0.00  0.00    +0.155 C 
BRANCH  12  13
ATOM     13  C   LIG    1        2.626  -1.113  -8.006  0.00  0.00    +0.309 C 
ATOM     14  O   LIG    1        1.881  -1.673  -8.841  0.00  0.00    -0.251 OA
BRANCH  13  15
ATOM     15  O   LIG    1        2.922   0.105  -8.032  0.00  0.00    -0.480 OA
ATOM     16  H   LIG    1        3.486   0.464  -7.376  0.00  0.00    +0.295 HD
ENDBRANCH  13  15
ENDBRANCH  12  13
ENDBRANCH   9  12
ENDBRANCH   3   6
BRANCH   1  17
ATOM     17  N   LIG    1        0.120  -0.056   0.279  0.00  0.00    +0.386 N 
ATOM     18  H   LIG    1       -0.116  -0.780  -0.385  0.00  0.00    -0.085 HD
ATOM     19  H   LIG    1        0.029  -0.454   1.202  0.00  0.00    -0.085 HD
BRANCH  17  21
ATOM     20  C   LIG    1       -2.194   0.648   0.907  0.00  0.00    -0.009 C 
ATOM     21  C   LIG    1       -0.917   1.083   0.166  0.00  0.00    -0.043 C 
BRANCH  21  22
ATOM     22  C   LIG    1       -1.204   1.513  -1.282  0.00  0.00    -0.054 A 
ATOM     23  C   LIG    1       -1.182   2.895  -1.678  0.00  0.00    -0.016 A 
ATOM     24  C   LIG    1       -0.956   3.980  -0.778  0.00  0.00    +0.009 A 
ATOM     25  C   LIG    1       -0.932   5.296  -1.230  0.00  0.00    +0.001 A 
ATOM     26  C   LIG    1       -1.132   5.587  -2.572  0.00  0.00    +0.001 A 
ATOM     27  C   LIG    1       -1.367   4.566  -3.485  0.00  0.00    +0.008 A 
ATOM     28  C   LIG    1       -1.401   3.214  -3.060  0.00  0.00    -0.018 A 
ATOM     29  C   LIG    1       -1.650   2.176  -3.988  0.00  0.00    +0.008 A 
ATOM     30  C   LIG    1       -1.694   0.853  -3.571  0.00  0.00    +0.001 A 
ATOM     31  C   LIG    1       -1.480   0.529  -2.239  0.00  0.00    +0.002 A 
ENDBRANCH  21  22
ENDBRANCH  17  21
ENDBRANCH   1  17
TORSDOF 7
