REMARK  Name = DB12183
REMARK                            x       y       z     vdW  Elec       q    Type
REMARK                         _______ _______ _______ _____ _____    ______ ____
ROOT
ATOM      1  C   LIG    1        1.679  -0.060  -0.065  0.00  0.00    +0.163 A 
ATOM      2  C   LIG    1        2.203  -1.359  -0.065  0.00  0.00    +0.164 A 
ATOM      3  C   LIG    1        3.589  -1.560   0.053  0.00  0.00    +0.078 A 
ATOM      4  C   LIG    1        4.475  -0.466   0.170  0.00  0.00    +0.080 A 
ATOM      5  N   LIG    1        5.814  -0.700   0.288  0.00  0.00    -0.235 NA
ATOM      6  C   LIG    1        6.614   0.389   0.396  0.00  0.00    +0.223 A 
ATOM      7  N   LIG    1        6.226   1.686   0.396  0.00  0.00    -0.220 NA
ATOM      8  C   LIG    1        4.895   1.922   0.278  0.00  0.00    +0.134 A 
ATOM      9  C   LIG    1        3.949   0.858   0.161  0.00  0.00    +0.044 A 
ATOM     10  C   LIG    1        2.549   1.033   0.044  0.00  0.00    +0.062 A 
ENDROOT
BRANCH   2  11
ATOM     11  O   LIG    1        1.293  -2.396  -0.183  0.00  0.00    -0.491 OA
ATOM     12  C   LIG    1        1.756  -3.743  -0.192  0.00  0.00    +0.277 C 
ENDBRANCH   2  11
BRANCH   8  13
ATOM     13  N   LIG    1        4.432   3.252   0.242  0.00  0.00    -0.297 N 
ATOM     14  H   LIG    1        3.442   3.304   0.052  0.00  0.00    +0.154 HD
BRANCH  13  15
ATOM     15  C   LIG    1        4.998   4.526   0.435  0.00  0.00    +0.070 A 
ATOM     16  C   LIG    1        4.190   5.637   0.148  0.00  0.00    +0.163 A 
ATOM     17  F   LIG    1        2.929   5.460  -0.321  0.00  0.00    -0.202 F 
ATOM     18  C   LIG    1        4.674   6.934   0.340  0.00  0.00    +0.078 A 
ATOM     19 CL   LIG    1        3.669   8.300   0.005  0.00  0.00    -0.081 Cl
ATOM     20  C   LIG    1        5.973   7.131   0.806  0.00  0.00    +0.023 A 
ATOM     21  C   LIG    1        6.787   6.034   1.083  0.00  0.00    +0.003 A 
ATOM     22  C   LIG    1        6.304   4.738   0.900  0.00  0.00    +0.026 A 
ENDBRANCH  13  15
ENDBRANCH   8  13
BRANCH   1  23
ATOM     23  O   LIG    1        0.298   0.058  -0.174  0.00  0.00    -0.485 OA
BRANCH  23  28
ATOM     24  N   LIG    1       -0.369   4.255   0.017  0.00  0.00    +0.386 N 
ATOM     25  H   LIG    1        0.640   4.257   0.080  0.00  0.00    -0.081 HD
ATOM     26  C   LIG    1       -0.954   3.443   1.197  0.00  0.00    -0.075 C 
ATOM     27  C   LIG    1       -0.300   2.052   1.216  0.00  0.00    +0.026 C 
ATOM     28  C   LIG    1       -0.385   1.320  -0.151  0.00  0.00    +0.170 C 
ATOM     29  C   LIG    1       -0.121   2.197  -1.406  0.00  0.00    +0.026 C 
ATOM     30  C   LIG    1       -0.767   3.591  -1.321  0.00  0.00    -0.075 C 
BRANCH  24  31
ATOM     31  C   LIG    1       -0.851   5.731   0.057  0.00  0.00    +0.019 C 
BRANCH  31  35
ATOM     32  C   LIG    1        0.287   8.880   1.940  0.00  0.00    +0.128 C 
ATOM     33  N   LIG    1       -0.361   7.878   1.099  0.00  0.00    -0.320 N 
ATOM     34  H   LIG    1       -1.117   8.208   0.517  0.00  0.00    +0.148 HD
ATOM     35  C   LIG    1       -0.023   6.579   1.043  0.00  0.00    +0.196 C 
ATOM     36  O   LIG    1        0.885   6.087   1.718  0.00  0.00    -0.278 OA
ENDBRANCH  31  35
ENDBRANCH  24  31
ENDBRANCH  23  28
ENDBRANCH   1  23
TORSDOF 7
