REMARK  Name = DB12198
REMARK                            x       y       z     vdW  Elec       q    Type
REMARK                         _______ _______ _______ _____ _____    ______ ____
ROOT
ATOM      1  C   LIG    1        1.403  -0.012   0.067  0.00  0.00    +0.037 A 
ATOM      2  C   LIG    1        2.129  -1.166  -0.244  0.00  0.00    +0.013 A 
ATOM      3  C   LIG    1        3.518  -1.145  -0.258  0.00  0.00    +0.005 A 
ATOM      4  C   LIG    1        4.254   0.018   0.024  0.00  0.00    -0.037 A 
ATOM      5  C   LIG    1        3.523   1.185   0.371  0.00  0.00    -0.043 A 
ATOM      6  C   LIG    1        4.212   2.478   0.814  0.00  0.00    +0.036 C 
ATOM      7  C   LIG    1        5.706   2.512   0.479  0.00  0.00    +0.009 C 
ATOM      8  C   LIG    1        6.362   1.162   0.825  0.00  0.00    +0.003 C 
ATOM      9  C   LIG    1        7.912   1.264   0.844  0.00  0.00    +0.049 C 
ATOM     10  C   LIG    1        8.659  -0.056   1.196  0.00  0.00    +0.175 C 
ATOM     11  C   LIG    1        8.011  -1.290   0.494  0.00  0.00    +0.045 C 
ATOM     12  C   LIG    1        6.464  -1.281   0.445  0.00  0.00    +0.015 C 
ATOM     13  C   LIG    1        5.807   0.025  -0.112  0.00  0.00    +0.003 C 
ATOM     14  C   LIG    1        2.123   1.148   0.372  0.00  0.00    +0.017 A 
ENDROOT
BRANCH   1  17
ATOM     15  N   LIG    1       -0.709  -1.207   0.129  0.00  0.00    -0.280 N 
ATOM     16  H   LIG    1       -0.089  -1.999   0.209  0.00  0.00    +0.155 HD
ATOM     17  C   LIG    1       -0.112   0.006   0.075  0.00  0.00    +0.248 C 
ATOM     18  O   LIG    1       -0.717   1.080   0.065  0.00  0.00    -0.270 OA
BRANCH  15  22
ATOM     19  N   LIG    1       -3.738  -3.274   0.534  0.00  0.00    -0.258 NA
ATOM     20  C   LIG    1       -2.446  -2.851   0.502  0.00  0.00    +0.059 A 
ATOM     21  C   LIG    1       -1.419  -3.907   0.892  0.00  0.00    +0.067 C 
ATOM     22  C   LIG    1       -2.080  -1.540   0.140  0.00  0.00    +0.055 A 
ATOM     23  C   LIG    1       -3.112  -0.653  -0.217  0.00  0.00    +0.026 A 
ATOM     24  C   LIG    1       -4.440  -1.080  -0.187  0.00  0.00    +0.021 A 
ATOM     25  C   LIG    1       -4.710  -2.392   0.196  0.00  0.00    +0.111 A 
ENDBRANCH  15  22
ENDBRANCH   1  17
BRANCH  10  26
ATOM     26  C   LIG    1        8.711  -0.284   2.739  0.00  0.00    +0.419 C 
ATOM     27  F   LIG    1        9.265   0.748   3.380  0.00  0.00    -0.168 F 
ATOM     28  F   LIG    1        9.426  -1.367   3.053  0.00  0.00    -0.168 F 
ATOM     29  F   LIG    1        7.504  -0.459   3.278  0.00  0.00    -0.168 F 
ENDBRANCH  10  26
BRANCH  10  30
ATOM     30  O   LIG    1       10.036   0.145   0.864  0.00  0.00    -0.271 OA
BRANCH  30  31
ATOM     31  P   LIG    1       10.818  -0.246  -0.675  0.00  0.00    +0.473 P 
ATOM     32  O   LIG    1       12.236   0.341  -0.570  0.00  0.00    -0.227 OA
BRANCH  31  33
ATOM     33  O   LIG    1        9.975   0.429  -1.772  0.00  0.00    -0.303 OA
ATOM     34  H   LIG    1       10.009   1.392  -1.660  0.00  0.00    +0.222 HD
ENDBRANCH  31  33
BRANCH  31  35
ATOM     35  O   LIG    1       10.818  -1.783  -0.777  0.00  0.00    -0.303 OA
ATOM     36  H   LIG    1       11.362  -2.155  -0.065  0.00  0.00    +0.222 HD
ENDBRANCH  31  35
ENDBRANCH  30  31
ENDBRANCH  10  30
BRANCH  13  37
ATOM     37  C   LIG    1        6.215   0.282  -1.614  0.00  0.00    +0.047 C 
BRANCH  37  38
ATOM     38  C   LIG    1        5.734  -0.750  -2.636  0.00  0.00    -0.047 A 
ATOM     39  C   LIG    1        4.501  -0.576  -3.275  0.00  0.00    +0.003 A 
ATOM     40  C   LIG    1        4.058  -1.509  -4.208  0.00  0.00    +0.000 A 
ATOM     41  C   LIG    1        4.854  -2.610  -4.513  0.00  0.00    +0.000 A 
ATOM     42  C   LIG    1        6.091  -2.784  -3.895  0.00  0.00    +0.000 A 
ATOM     43  C   LIG    1        6.533  -1.852  -2.960  0.00  0.00    +0.003 A 
ENDBRANCH  37  38
ENDBRANCH  13  37
TORSDOF 9
