REMARK  Name = DB12245
REMARK                            x       y       z     vdW  Elec       q    Type
REMARK                         _______ _______ _______ _____ _____    ______ ____
ROOT
ATOM      1  C   LIG    1       -4.248   0.914  -0.576  0.00  0.00    +0.167 A 
ATOM      2  N   LIG    1       -3.123   1.578  -0.436  0.00  0.00    -0.222 NA
ATOM      3  C   LIG    1       -2.156   0.618  -0.290  0.00  0.00    +0.094 A 
ATOM      4  C   LIG    1       -2.715  -0.679  -0.347  0.00  0.00    +0.068 A 
ATOM      5  C   LIG    1       -1.940  -1.834  -0.227  0.00  0.00    +0.051 A 
ATOM      6  C   LIG    1       -0.566  -1.653  -0.042  0.00  0.00    +0.085 A 
ATOM      7 CL   LIG    1        0.427  -3.062   0.105  0.00  0.00    -0.080 Cl
ATOM      8  C   LIG    1        0.015  -0.378   0.028  0.00  0.00    +0.149 A 
ATOM      9  C   LIG    1       -0.777   0.772  -0.106  0.00  0.00    +0.077 A 
ATOM     10  N   LIG    1       -4.058  -0.448  -0.531  0.00  0.00    -0.333 N 
ATOM     11  H   LIG    1       -4.809  -1.116  -0.622  0.00  0.00    +0.168 HD
ENDROOT
BRANCH   1  13
ATOM     12  C   LIG    1       -5.413   3.401  -0.781  0.00  0.00    +0.093 C 
ATOM     13  S   LIG    1       -5.844   1.635  -0.798  0.00  0.00    -0.091 S 
ENDBRANCH   1  13
BRANCH   8  14
ATOM     14  O   LIG    1        1.378  -0.278   0.217  0.00  0.00    -0.453 OA
BRANCH  14  15
ATOM     15  C   LIG    1        1.867   0.601   1.157  0.00  0.00    +0.148 A 
ATOM     16  C   LIG    1        1.747   0.365   2.537  0.00  0.00    +0.101 A 
ATOM     17 CL   LIG    1        0.961  -1.070   3.111  0.00  0.00    -0.078 Cl
ATOM     18  C   LIG    1        2.277   1.292   3.448  0.00  0.00    +0.063 A 
ATOM     19 CL   LIG    1        2.145   1.053   5.157  0.00  0.00    -0.082 Cl
ATOM     20  C   LIG    1        2.928   2.434   2.982  0.00  0.00    +0.022 A 
ATOM     21  C   LIG    1        3.062   2.657   1.613  0.00  0.00    +0.005 A 
ATOM     22  C   LIG    1        2.538   1.740   0.705  0.00  0.00    +0.048 A 
ENDBRANCH  14  15
ENDBRANCH   8  14
TORSDOF 3
