REMARK  Name = DB12445
REMARK                            x       y       z     vdW  Elec       q    Type
REMARK                         _______ _______ _______ _____ _____    ______ ____
ROOT
ATOM      1  O   LIG    1        0.064   0.246   0.063  0.00  0.00    -0.422 OA
ENDROOT
BRANCH   1   2
ATOM      2  C   LIG    1        1.437   0.142   0.038  0.00  0.00    +0.132 A 
ATOM      3  C   LIG    1        2.136   0.141  -1.175  0.00  0.00    +0.053 A 
ATOM      4  C   LIG    1        3.531   0.018  -1.193  0.00  0.00    -0.004 A 
ATOM      5  C   LIG    1        4.219  -0.125   0.017  0.00  0.00    +0.007 A 
ATOM      6  C   LIG    1        3.526  -0.138   1.227  0.00  0.00    +0.004 A 
ATOM      7  C   LIG    1        2.138  -0.008   1.238  0.00  0.00    +0.046 A 
BRANCH   4   8
ATOM      8  C   LIG    1        4.317   0.018  -2.498  0.00  0.00    +0.303 C 
BRANCH   8   9
ATOM      9  O   LIG    1        3.526   0.532  -3.577  0.00  0.00    -0.350 OA
BRANCH   9  10
ATOM     10  N   LIG    1        4.189   0.552  -4.846  0.00  0.00    +0.171 N 
ATOM     11  O   LIG    1        3.484   0.982  -5.726  0.00  0.00    -0.094 OA
BRANCH  10  12
ATOM     12  O   LIG    1        5.332   0.154  -4.893  0.00  0.00    -0.370 OA
ATOM     13  H   LIG    1        5.754  -0.154  -4.115  0.00  0.00    +0.332 HD
ENDBRANCH  10  12
ENDBRANCH   9  10
ENDBRANCH   8   9
ENDBRANCH   4   8
ENDBRANCH   1   2
BRANCH   1  14
ATOM     14  C   LIG    1       -0.538   1.463  -0.129  0.00  0.00    +0.348 C 
ATOM     15  O   LIG    1        0.089   2.513  -0.301  0.00  0.00    -0.244 OA
BRANCH  14  17
ATOM     16  C   LIG    1       -2.849   2.556   0.051  0.00  0.00    +0.146 A 
ATOM     17  C   LIG    1       -2.046   1.393  -0.050  0.00  0.00    +0.102 A 
ATOM     18  C   LIG    1       -2.693   0.143  -0.093  0.00  0.00    +0.019 A 
ATOM     19  C   LIG    1       -4.082   0.044  -0.046  0.00  0.00    +0.001 A 
ATOM     20  C   LIG    1       -4.859   1.194   0.039  0.00  0.00    +0.004 A 
ATOM     21  C   LIG    1       -4.245   2.442   0.082  0.00  0.00    +0.047 A 
BRANCH  16  22
ATOM     22  O   LIG    1       -2.312   3.828   0.089  0.00  0.00    -0.425 OA
BRANCH  22  24
ATOM     23  C   LIG    1       -1.502   5.821   1.136  0.00  0.00    +0.136 C 
ATOM     24  C   LIG    1       -2.121   4.438   1.291  0.00  0.00    +0.309 C 
ATOM     25  O   LIG    1       -2.388   3.980   2.404  0.00  0.00    -0.251 OA
ENDBRANCH  22  24
ENDBRANCH  16  22
ENDBRANCH  14  17
ENDBRANCH   1  14
TORSDOF 9
