REMARK  Name = DB12046
REMARK                            x       y       z     vdW  Elec       q    Type
REMARK                         _______ _______ _______ _____ _____    ______ ____
ROOT
ATOM      1  C   LIG    1        1.701   0.001   0.347  0.00  0.00    +0.316 C 
ENDROOT
BRANCH   1   8
ATOM      2  C   LIG    1       -4.428  -0.487   0.108  0.00  0.00    +0.165 A 
ATOM      3  C   LIG    1       -4.357   0.898  -0.104  0.00  0.00    +0.198 A 
ATOM      4  C   LIG    1       -3.119   1.550  -0.141  0.00  0.00    +0.184 A 
ATOM      5  F   LIG    1       -3.075   2.889  -0.340  0.00  0.00    -0.201 F 
ATOM      6  C   LIG    1       -1.941   0.812   0.026  0.00  0.00    +0.107 A 
ATOM      7  C   LIG    1       -0.532   1.182   0.036  0.00  0.00    +0.274 C 
ATOM      8  N   LIG    1        0.222   0.081   0.223  0.00  0.00    -0.251 N 
ATOM      9  C   LIG    1       -0.619  -1.110   0.391  0.00  0.00    +0.273 C 
ATOM     10  C   LIG    1       -2.003  -0.558   0.235  0.00  0.00    +0.015 A 
ATOM     11  C   LIG    1       -3.234  -1.211   0.281  0.00  0.00    +0.058 A 
BRANCH   7  12
ATOM     12  N   LIG    1       -0.080   2.427  -0.117  0.00  0.00    -0.249 N 
ATOM     13  H   LIG    1        0.912   2.610  -0.091  0.00  0.00    +0.288 HD
ATOM     14  H   LIG    1       -0.736   3.184  -0.250  0.00  0.00    +0.288 HD
ENDBRANCH   7  12
BRANCH   2  15
ATOM     15  O   LIG    1       -5.688  -1.057   0.136  0.00  0.00    -0.488 OA
BRANCH  15  17
ATOM     16  C   LIG    1       -7.302  -2.834   0.125  0.00  0.00    +0.048 C 
ATOM     17  C   LIG    1       -5.818  -2.472   0.228  0.00  0.00    +0.226 C 
ENDBRANCH  15  17
ENDBRANCH   2  15
BRANCH   3  18
ATOM     18  O   LIG    1       -5.510   1.629  -0.257  0.00  0.00    -0.486 OA
BRANCH  18  19
ATOM     19  C   LIG    1       -5.975   1.718  -1.598  0.00  0.00    +0.226 C 
ATOM     20  C   LIG    1       -7.323   2.445  -1.604  0.00  0.00    +0.048 C 
ENDBRANCH  18  19
ENDBRANCH   3  18
ENDBRANCH   1   8
BRANCH   1  21
ATOM     21  C   LIG    1        2.346  -1.151  -0.452  0.00  0.00    +0.204 C 
ATOM     22  O   LIG    1        2.775  -2.113   0.187  0.00  0.00    -0.288 OA
BRANCH  21  23
ATOM     23  C   LIG    1        2.421  -1.065  -1.952  0.00  0.00    +0.024 A 
ATOM     24  C   LIG    1        2.919  -2.149  -2.677  0.00  0.00    +0.038 A 
ATOM     25  C   LIG    1        3.007  -2.128  -4.075  0.00  0.00    +0.073 A 
ATOM     26  C   LIG    1        2.606  -0.958  -4.762  0.00  0.00    +0.145 A 
ATOM     27  C   LIG    1        2.052   0.140  -4.061  0.00  0.00    +0.002 A 
ATOM     28  C   LIG    1        1.996   0.063  -2.659  0.00  0.00    +0.019 A 
BRANCH  25  29
ATOM     29  N   LIG    1        3.437  -3.261  -4.769  0.00  0.00    -0.323 N 
ATOM     30  C   LIG    1        2.464  -3.930  -5.651  0.00  0.00    +0.133 C 
ATOM     31  C   LIG    1        3.143  -4.882  -6.659  0.00  0.00    +0.178 C 
ATOM     32  O   LIG    1        3.927  -5.843  -5.965  0.00  0.00    -0.377 OA
ATOM     33  C   LIG    1        4.928  -5.236  -5.160  0.00  0.00    +0.178 C 
ATOM     34  C   LIG    1        4.271  -4.295  -4.129  0.00  0.00    +0.133 C 
ENDBRANCH  25  29
BRANCH  27  35
ATOM     35  C   LIG    1        1.506   1.402  -4.806  0.00  0.00    -0.009 C 
ATOM     36  C   LIG    1        0.386   1.001  -5.803  0.00  0.00    +0.015 C 
ATOM     37  C   LIG    1        0.866   2.453  -3.853  0.00  0.00    +0.015 C 
ATOM     38  C   LIG    1        2.646   2.136  -5.557  0.00  0.00    +0.015 C 
ENDBRANCH  27  35
BRANCH  26  39
ATOM     39  O   LIG    1        2.735  -0.875  -6.133  0.00  0.00    -0.493 OA
ATOM     40  C   LIG    1        4.069  -0.865  -6.639  0.00  0.00    +0.277 C 
ENDBRANCH  26  39
ENDBRANCH  21  23
ENDBRANCH   1  21
TORSDOF 11
