REMARK  Name = DB12011
REMARK                            x       y       z     vdW  Elec       q    Type
REMARK                         _______ _______ _______ _____ _____    ______ ____
ROOT
ATOM      1  C   LIG    1       -0.243   2.537  -0.047  0.00  0.00    +0.064 C 
ATOM      2  C   LIG    1       -0.857   1.150  -0.089  0.00  0.00    +0.022 A 
ATOM      3  N   LIG    1       -0.061   0.014  -0.044  0.00  0.00    -0.325 N 
ATOM      4  C   LIG    1       -0.876  -1.104  -0.047  0.00  0.00    +0.141 A 
ATOM      5  N   LIG    1       -0.484  -2.385   0.015  0.00  0.00    -0.237 NA
ATOM      6  C   LIG    1       -1.490  -3.299  -0.008  0.00  0.00    +0.113 A 
ATOM      7  C   LIG    1       -2.845  -2.979  -0.087  0.00  0.00    +0.020 A 
ATOM      8  C   LIG    1       -3.229  -1.639  -0.146  0.00  0.00    +0.013 A 
ATOM      9  C   LIG    1       -2.221  -0.657  -0.125  0.00  0.00    +0.023 A 
ATOM     10  C   LIG    1       -2.198   0.777  -0.155  0.00  0.00    -0.007 A 
ENDROOT
BRANCH   3  11
ATOM     11  C   LIG    1        1.402  -0.005   0.088  0.00  0.00    +0.159 C 
BRANCH  11  12
ATOM     12  C   LIG    1        1.965  -0.054   1.520  0.00  0.00    -0.016 A 
ATOM     13  C   LIG    1        3.358   0.021   1.754  0.00  0.00    +0.061 A 
ATOM     14  C   LIG    1        3.833  -0.016   3.074  0.00  0.00    +0.039 A 
ATOM     15  C   LIG    1        2.957  -0.129   4.153  0.00  0.00    +0.088 A 
ATOM     16  C   LIG    1        1.587  -0.204   3.922  0.00  0.00    +0.027 A 
ATOM     17  C   LIG    1        1.098  -0.167   2.620  0.00  0.00    +0.008 A 
BRANCH  13  18
ATOM     18  C   LIG    1        4.369   0.142   0.603  0.00  0.00    +0.418 C 
ATOM     19  F   LIG    1        4.177   1.287  -0.054  0.00  0.00    -0.166 F 
ATOM     20  F   LIG    1        4.230  -0.874  -0.248  0.00  0.00    -0.166 F 
ATOM     21  F   LIG    1        5.635   0.134   1.026  0.00  0.00    -0.166 F 
ENDBRANCH  13  18
BRANCH  15  22
ATOM     22  S   LIG    1        3.585  -0.160   5.830  0.00  0.00    -0.006 S 
ATOM     23  C   LIG    1        3.513   1.652   6.346  0.00  0.00    +0.200 C 
ATOM     24  O   LIG    1        4.992  -0.572   5.770  0.00  0.00    -0.170 OA
ATOM     25  O   LIG    1        2.628  -0.915   6.645  0.00  0.00    -0.170 OA
ENDBRANCH  15  22
ENDBRANCH  11  12
ENDBRANCH   3  11
BRANCH  10  26
ATOM     26  C   LIG    1       -3.424   1.684  -0.220  0.00  0.00    +0.158 C 
BRANCH  26  27
ATOM     27  C   LIG    1       -4.215   1.796   1.107  0.00  0.00    +0.309 C 
ATOM     28  O   LIG    1       -5.403   2.177   1.013  0.00  0.00    -0.251 OA
BRANCH  27  29
ATOM     29  O   LIG    1       -3.649   1.532   2.195  0.00  0.00    -0.480 OA
ATOM     30  H   LIG    1       -2.756   1.250   2.202  0.00  0.00    +0.295 HD
ENDBRANCH  27  29
ENDBRANCH  26  27
ENDBRANCH  10  26
TORSDOF 7
