REMARK  Name = DB12882
REMARK                            x       y       z     vdW  Elec       q    Type
REMARK                         _______ _______ _______ _____ _____    ______ ____
ROOT
ATOM      1  C   LIG    1       -2.836  -0.213   0.423  0.00  0.00    +0.141 A 
ATOM      2  C   LIG    1       -2.186   1.005   0.156  0.00  0.00    +0.076 A 
ATOM      3  C   LIG    1       -0.792   1.024  -0.011  0.00  0.00    +0.035 A 
ATOM      4  C   LIG    1       -0.039  -0.153   0.030  0.00  0.00    -0.023 A 
ATOM      5  C   LIG    1       -0.688  -1.354   0.317  0.00  0.00    +0.011 A 
ATOM      6  C   LIG    1       -2.066  -1.385   0.517  0.00  0.00    +0.048 A 
ENDROOT
BRANCH   2   7
ATOM      7  N   LIG    1       -2.993   2.152  -0.005  0.00  0.00    -0.284 N 
ATOM      8  H   LIG    1       -3.966   1.947  -0.179  0.00  0.00    +0.155 HD
ATOM      9  C   LIG    1       -2.646   3.459   0.000  0.00  0.00    +0.205 C 
ATOM     10  O   LIG    1       -1.523   3.885   0.292  0.00  0.00    -0.277 OA
BRANCH   9  11
ATOM     11  CA  LIG    1       -3.812   4.415  -0.406  0.00  0.00    +0.039 C 
BRANCH  11  12
ATOM     12  N   LIG    1       -3.443   5.820  -0.001  0.00  0.00    +0.387 N 
ATOM     13  H1  LIG    1       -2.615   6.102  -0.507  0.00  0.00    -0.089 HD
ATOM     14  H2  LIG    1       -4.209   6.439  -0.224  0.00  0.00    -0.089 HD
ATOM     15  H3  LIG    1       -3.267   5.840   0.994  0.00  0.00    -0.089 HD
ENDBRANCH  11  12
BRANCH  11  16
ATOM     16  C   LIG    1       -4.156   4.364  -1.920  0.00  0.00    +0.149 C 
BRANCH  16  17
ATOM     17  O   LIG    1       -4.678   3.110  -2.314  0.00  0.00    -0.396 OA
ATOM     18  H   LIG    1       -4.859   3.135  -3.258  0.00  0.00    +0.209 HD
ENDBRANCH  16  17
ENDBRANCH  11  16
ENDBRANCH   9  11
ENDBRANCH   2   7
BRANCH   1  20
ATOM     19  C   LIG    1       -4.908  -1.408   0.845  0.00  0.00    +0.277 C 
ATOM     20  O   LIG    1       -4.214  -0.194   0.576  0.00  0.00    -0.493 OA
ENDBRANCH   1  20
BRANCH   4  21
ATOM     21  C   LIG    1        1.415  -0.168  -0.249  0.00  0.00    +0.008 C 
ATOM     22  C   LIG    1        2.130   0.611  -1.094  0.00  0.00    +0.009 C 
BRANCH  22  23
ATOM     23  C   LIG    1        1.651   1.629  -2.054  0.00  0.00    -0.018 A 
ATOM     24  C   LIG    1        2.389   2.803  -2.221  0.00  0.00    +0.057 A 
ATOM     25  C   LIG    1        1.950   3.821  -3.082  0.00  0.00    +0.166 A 
ATOM     26  C   LIG    1        0.748   3.645  -3.782  0.00  0.00    +0.204 A 
ATOM     27  C   LIG    1       -0.011   2.478  -3.629  0.00  0.00    +0.166 A 
ATOM     28  C   LIG    1        0.470   1.465  -2.785  0.00  0.00    +0.057 A 
BRANCH  25  29
ATOM     29  O   LIG    1        2.627   5.011  -3.281  0.00  0.00    -0.491 OA
ATOM     30  C   LIG    1        3.851   5.242  -2.593  0.00  0.00    +0.277 C 
ENDBRANCH  25  29
BRANCH  26  31
ATOM     31  O   LIG    1        0.288   4.646  -4.604  0.00  0.00    -0.488 OA
ATOM     32  C   LIG    1        0.749   4.551  -5.945  0.00  0.00    +0.277 C 
ENDBRANCH  26  31
BRANCH  27  33
ATOM     33  O   LIG    1       -1.207   2.402  -4.320  0.00  0.00    -0.491 OA
ATOM     34  C   LIG    1       -2.065   1.286  -4.107  0.00  0.00    +0.277 C 
ENDBRANCH  27  33
ENDBRANCH  22  23
ENDBRANCH   4  21
TORSDOF 11
