REMARK  Name = DB12079
REMARK                            x       y       z     vdW  Elec       q    Type
REMARK                         _______ _______ _______ _____ _____    ______ ____
ROOT
ATOM      1  C   LIG    1       -0.104   0.811   0.009  0.00  0.00    +0.038 C 
ENDROOT
BRANCH   1   3
ATOM      2  C   LIG    1        1.858  -0.720   0.684  0.00  0.00    -0.076 C 
ATOM      3  C   LIG    1        1.354   0.394   0.110  0.00  0.00    -0.027 C 
ATOM      4  C   LIG    1        1.018  -1.767   1.406  0.00  0.00    +0.039 C 
BRANCH   2   5
ATOM      5  C   LIG    1        3.358  -0.998   0.678  0.00  0.00    +0.034 C 
BRANCH   5   6
ATOM      6  C   LIG    1        3.773  -2.197  -0.193  0.00  0.00    +0.031 C 
BRANCH   6   8
ATOM      7  C   LIG    1        5.996  -3.377   0.389  0.00  0.00    -0.076 C 
ATOM      8  C   LIG    1        5.277  -2.417  -0.233  0.00  0.00    -0.028 C 
ATOM      9  C   LIG    1        5.403  -4.448   1.298  0.00  0.00    +0.039 C 
BRANCH   7  10
ATOM     10  C   LIG    1        7.508  -3.463   0.194  0.00  0.00    +0.034 C 
BRANCH  10  11
ATOM     11  C   LIG    1        8.348  -2.630   1.183  0.00  0.00    +0.031 C 
BRANCH  11  14
ATOM     12  C   LIG    1        8.880  -4.181   4.787  0.00  0.00    +0.038 C 
ATOM     13  C   LIG    1        9.110  -3.850   3.322  0.00  0.00    -0.080 C 
ATOM     14  C   LIG    1        8.248  -3.069   2.636  0.00  0.00    -0.028 C 
ATOM     15  C   LIG    1       10.359  -4.487   2.729  0.00  0.00    +0.038 C 
ENDBRANCH  11  14
ENDBRANCH  10  11
ENDBRANCH   7  10
ENDBRANCH   6   8
ENDBRANCH   5   6
ENDBRANCH   2   5
ENDBRANCH   1   3
BRANCH   1  16
ATOM     16  C   LIG    1       -0.467   1.955   0.971  0.00  0.00    +0.124 C 
BRANCH  16  17
ATOM     17  C   LIG    1       -1.932   2.374   0.851  0.00  0.00    +0.308 C 
ATOM     18  O   LIG    1       -2.267   3.335   0.157  0.00  0.00    -0.251 OA
BRANCH  17  19
ATOM     19  O   LIG    1       -2.756   1.580   1.567  0.00  0.00    -0.460 OA
BRANCH  19  20
ATOM     20  C   LIG    1       -4.159   1.800   1.560  0.00  0.00    +0.259 C 
BRANCH  20  21
ATOM     21  C   LIG    1       -4.840   0.813   2.492  0.00  0.00    +0.012 C 
ATOM     22  C   LIG    1       -5.812  -0.076   2.193  0.00  0.00    -0.073 C 
ATOM     23  C   LIG    1       -6.442  -0.236   0.813  0.00  0.00    +0.039 C 
BRANCH  22  24
ATOM     24  C   LIG    1       -6.383  -1.000   3.264  0.00  0.00    +0.034 C 
BRANCH  24  25
ATOM     25  C   LIG    1       -6.031  -2.486   3.071  0.00  0.00    +0.031 C 
BRANCH  25  26
ATOM     26  C   LIG    1       -6.590  -3.382   4.164  0.00  0.00    -0.028 C 
ATOM     27  C   LIG    1       -5.930  -3.914   5.215  0.00  0.00    -0.080 C 
ATOM     28  C   LIG    1       -4.459  -3.671   5.528  0.00  0.00    +0.038 C 
ATOM     29  C   LIG    1       -6.634  -4.818   6.212  0.00  0.00    +0.038 C 
ENDBRANCH  25  26
ENDBRANCH  24  25
ENDBRANCH  22  24
ENDBRANCH  20  21
ENDBRANCH  19  20
ENDBRANCH  17  19
ENDBRANCH  16  17
ENDBRANCH   1  16
TORSDOF 15
