REMARK  Name = DB12973
REMARK                            x       y       z     vdW  Elec       q    Type
REMARK                         _______ _______ _______ _____ _____    ______ ____
ROOT
ATOM      1  C   LIG    1        1.806   0.408   1.393  0.00  0.00    +0.127 C 
ATOM      2  C   LIG    1        3.320   0.742   1.225  0.00  0.00    +0.053 C 
ATOM      3  C   LIG    1        3.931   1.222   2.570  0.00  0.00    +0.021 C 
ATOM      4  C   LIG    1        5.439   1.505   2.643  0.00  0.00    +0.109 C 
ATOM      5  N   LIG    1        5.728   1.283   4.070  0.00  0.00    -0.329 N 
ATOM      6  C   LIG    1        4.567   0.727   4.773  0.00  0.00    +0.109 C 
ATOM      7  C   LIG    1        3.711   0.173   3.644  0.00  0.00    +0.012 C 
ATOM      8  C   LIG    1        2.206  -0.015   3.895  0.00  0.00    +0.008 C 
ATOM      9  C   LIG    1        1.533  -0.536   2.604  0.00  0.00    +0.032 C 
ENDROOT
BRANCH   2  10
ATOM     10  C   LIG    1        3.602   1.706   0.068  0.00  0.00    -0.041 A 
ATOM     11  C   LIG    1        4.254   1.249  -1.083  0.00  0.00    +0.007 A 
ATOM     12  C   LIG    1        4.510   2.124  -2.136  0.00  0.00    +0.038 A 
ATOM     13  C   LIG    1        4.116   3.456  -2.039  0.00  0.00    +0.123 A 
ATOM     14  F   LIG    1        4.365   4.306  -3.061  0.00  0.00    -0.205 F 
ATOM     15  C   LIG    1        3.465   3.920  -0.898  0.00  0.00    +0.038 A 
ATOM     16  C   LIG    1        3.203   3.045   0.152  0.00  0.00    +0.007 A 
ENDBRANCH   2  10
BRANCH   5  17
ATOM     17  C   LIG    1        6.692   2.011   4.747  0.00  0.00    +0.029 C 
ATOM     18  C   LIG    1        7.660   2.767   4.189  0.00  0.00    +0.004 C 
ATOM     19  C   LIG    1        8.508   3.432   5.244  0.00  0.00    +0.102 C 
ATOM     20  C   LIG    1        7.845   2.934   6.495  0.00  0.00    +0.100 C 
ATOM     21  C   LIG    1        6.816   2.135   6.192  0.00  0.00    +0.064 C 
BRANCH  20  22
ATOM     22  O   LIG    1        8.361   3.354   7.680  0.00  0.00    -0.511 OA
ATOM     23  H   LIG    1        9.110   3.931   7.516  0.00  0.00    +0.292 HD
ENDBRANCH  20  22
ENDBRANCH   5  17
BRANCH   1  24
ATOM     24  O   LIG    1        1.309  -0.133   0.165  0.00  0.00    -0.368 OA
BRANCH  24  26
ATOM     25  C   LIG    1       -0.388  -1.055  -1.243  0.00  0.00    +0.043 C 
ATOM     26  C   LIG    1       -0.107  -0.158  -0.027  0.00  0.00    +0.146 C 
BRANCH  26  27
ATOM     27  C   LIG    1       -0.658   1.254  -0.225  0.00  0.00    -0.018 A 
ATOM     28  C   LIG    1       -1.762   1.684   0.517  0.00  0.00    +0.018 A 
ATOM     29  C   LIG    1       -2.276   2.975   0.354  0.00  0.00    +0.056 A 
ATOM     30  C   LIG    1       -1.672   3.835  -0.570  0.00  0.00    +0.024 A 
ATOM     31  C   LIG    1       -0.569   3.422  -1.326  0.00  0.00    +0.056 A 
ATOM     32  C   LIG    1       -0.064   2.129  -1.141  0.00  0.00    +0.018 A 
BRANCH  29  33
ATOM     33  C   LIG    1       -3.480   3.437   1.173  0.00  0.00    +0.417 C 
ATOM     34  F   LIG    1       -4.192   4.357   0.520  0.00  0.00    -0.166 F 
ATOM     35  F   LIG    1       -3.046   3.971   2.315  0.00  0.00    -0.166 F 
ATOM     36  F   LIG    1       -4.291   2.418   1.464  0.00  0.00    -0.166 F 
ENDBRANCH  29  33
BRANCH  31  37
ATOM     37  C   LIG    1        0.053   4.383  -2.337  0.00  0.00    +0.417 C 
ATOM     38  F   LIG    1       -0.892   4.870  -3.143  0.00  0.00    -0.166 F 
ATOM     39  F   LIG    1        0.978   3.793  -3.097  0.00  0.00    -0.166 F 
ATOM     40  F   LIG    1        0.626   5.396  -1.689  0.00  0.00    -0.166 F 
ENDBRANCH  31  37
ENDBRANCH  26  27
ENDBRANCH  24  26
ENDBRANCH   1  24
TORSDOF 8
