REMARK  Name = DB12385
REMARK                            x       y       z     vdW  Elec       q    Type
REMARK                         _______ _______ _______ _____ _____    ______ ____
ROOT
ATOM      1  C   LIG    1        1.541  -0.002  -0.030  0.00  0.00    +0.188 C 
ATOM      2  C   LIG    1        2.037   0.603  -1.372  0.00  0.00    +0.344 C 
ATOM      3  O   LIG    1        2.087   0.036  -2.464  0.00  0.00    -0.247 OA
ATOM      4  O   LIG    1        2.526   1.880  -1.349  0.00  0.00    -0.457 OA
ATOM      5  C   LIG    1        2.494   2.712  -0.179  0.00  0.00    +0.273 C 
ATOM      6  C   LIG    1        2.572   1.955   1.149  0.00  0.00    +0.061 A 
ATOM      7  C   LIG    1        3.130   2.676   2.307  0.00  0.00    +0.259 A 
ATOM      8  O   LIG    1        3.543   3.836   2.237  0.00  0.00    -0.267 OA
ATOM      9  N   LIG    1        3.152   1.964   3.479  0.00  0.00    -0.302 N 
ATOM     10  C   LIG    1        3.661   2.503   4.739  0.00  0.00    +0.162 C 
ATOM     11  C   LIG    1        3.449   1.339   5.665  0.00  0.00    +0.000 A 
ATOM     12  C   LIG    1        3.724   1.184   7.022  0.00  0.00    +0.017 A 
ATOM     13  C   LIG    1        3.416  -0.054   7.646  0.00  0.00    +0.004 A 
ATOM     14  C   LIG    1        3.666  -0.298   9.019  0.00  0.00    +0.055 A 
ATOM     15  C   LIG    1        3.346  -1.533   9.580  0.00  0.00    +0.118 A 
ATOM     16  C   LIG    1        2.780  -2.539   8.801  0.00  0.00    +0.047 A 
ATOM     17  C   LIG    1        2.520  -2.331   7.448  0.00  0.00    +0.032 A 
ATOM     18  C   LIG    1        2.833  -1.088   6.846  0.00  0.00    +0.072 A 
ATOM     19  N   LIG    1        2.569  -0.914   5.519  0.00  0.00    -0.245 NA
ATOM     20  C   LIG    1        2.883   0.285   4.970  0.00  0.00    +0.093 A 
ATOM     21  C   LIG    1        2.689   0.671   3.568  0.00  0.00    +0.071 A 
ATOM     22  C   LIG    1        2.184  -0.003   2.517  0.00  0.00    +0.035 A 
ATOM     23  C   LIG    1        2.129   0.668   1.219  0.00  0.00    +0.008 A 
ENDROOT
BRANCH   1  25
ATOM     24  C   LIG    1       -0.694   1.407   0.013  0.00  0.00    +0.007 C 
ATOM     25  C   LIG    1       -0.020   0.020   0.022  0.00  0.00    +0.048 C 
ENDBRANCH   1  25
BRANCH   1  26
ATOM     26  O   LIG    1        1.877  -1.383  -0.046  0.00  0.00    -0.373 OA
ATOM     27  H   LIG    1        2.834  -1.463  -0.076  0.00  0.00    +0.211 HD
ENDBRANCH   1  26
BRANCH  15  28
ATOM     28  O   LIG    1        3.592  -1.760  10.908  0.00  0.00    -0.507 OA
ATOM     29  H   LIG    1        3.984  -1.005  11.352  0.00  0.00    +0.292 HD
ENDBRANCH  15  28
TORSDOF 3
