REMARK  Name = DB12066
REMARK                            x       y       z     vdW  Elec       q    Type
REMARK                         _______ _______ _______ _____ _____    ______ ____
ROOT
ATOM      1  C   LIG    1        1.408  -0.099   0.196  0.00  0.00    +0.037 A 
ATOM      2  C   LIG    1        2.167  -1.260   0.404  0.00  0.00    +0.021 A 
ATOM      3  C   LIG    1        3.582  -1.213   0.427  0.00  0.00    -0.017 A 
ATOM      4  C   LIG    1        4.363  -2.376   0.625  0.00  0.00    +0.009 A 
ATOM      5  C   LIG    1        5.752  -2.296   0.639  0.00  0.00    +0.007 A 
ATOM      6  C   LIG    1        6.417  -1.076   0.471  0.00  0.00    -0.014 A 
ATOM      7  C   LIG    1        5.657   0.083   0.261  0.00  0.00    +0.015 A 
ATOM      8  C   LIG    1        4.241   0.037   0.241  0.00  0.00    -0.017 A 
ATOM      9  C   LIG    1        3.460   1.199   0.040  0.00  0.00    +0.009 A 
ATOM     10  C   LIG    1        2.071   1.121   0.024  0.00  0.00    +0.013 A 
ENDROOT
BRANCH   6  11
ATOM     11  C   LIG    1        7.957  -1.046   0.466  0.00  0.00    +0.114 C 
ATOM     12  C   LIG    1        8.649   0.310   0.483  0.00  0.00    +0.096 C 
ATOM     13  C   LIG    1        8.580   1.603   1.002  0.00  0.00    +0.099 C 
ATOM     14  N   LIG    1        9.629   2.322   0.449  0.00  0.00    -0.293 NA
ATOM     15  H   LIG    1        9.844   3.290   0.647  0.00  0.00    +0.124 HD
ATOM     16  C   LIG    1       10.344   1.503  -0.397  0.00  0.00    +0.158 C 
ATOM     17  N   LIG    1        9.729   0.271  -0.385  0.00  0.00    -0.273 NA
ATOM     18  C   LIG    1        9.982  -1.051  -0.912  0.00  0.00    +0.090 C 
ATOM     19  C   LIG    1        8.570  -1.639  -0.822  0.00  0.00    +0.057 C 
BRANCH  11  20
ATOM     20  O   LIG    1        8.406  -1.741   1.620  0.00  0.00    -0.382 OA
ATOM     21  H   LIG    1        8.147  -1.242   2.398  0.00  0.00    +0.211 HD
ENDBRANCH  11  20
ENDBRANCH   6  11
BRANCH   1  25
ATOM     22  C   LIG    1       -2.096  -1.559  -0.265  0.00  0.00    +0.128 C 
ATOM     23  N   LIG    1       -0.662  -1.310  -0.182  0.00  0.00    -0.314 N 
ATOM     24  H   LIG    1       -0.057  -2.076  -0.441  0.00  0.00    +0.149 HD
ATOM     25  C   LIG    1       -0.104  -0.140   0.179  0.00  0.00    +0.244 C 
ATOM     26  O   LIG    1       -0.762   0.864   0.460  0.00  0.00    -0.270 OA
ENDBRANCH   1  25
TORSDOF 3
