REMARK  Name = DB12579
REMARK                            x       y       z     vdW  Elec       q    Type
REMARK                         _______ _______ _______ _____ _____    ______ ____
ROOT
ATOM      1  N   LIG    1       -2.426  -1.393  -0.193  0.00  0.00    +0.382 N 
ATOM      2  H   LIG    1       -1.964  -2.287  -0.284  0.00  0.00    -0.081 HD
ATOM      3  C   LIG    1       -2.060  -0.540  -1.434  0.00  0.00    -0.077 C 
ATOM      4  C   LIG    1       -0.535  -0.341  -1.480  0.00  0.00    +0.003 C 
ATOM      5  C   LIG    1       -0.017   0.310  -0.184  0.00  0.00    +0.068 C 
ATOM      6  C   LIG    1       -0.406  -0.541   1.043  0.00  0.00    +0.003 C 
ATOM      7  C   LIG    1       -1.930  -0.739   1.120  0.00  0.00    -0.077 C 
ENDROOT
BRANCH   5   8
ATOM      8  N   LIG    1        1.440   0.424  -0.261  0.00  0.00    -0.325 N 
ATOM      9  H   LIG    1        1.947  -0.414  -0.510  0.00  0.00    +0.148 HD
BRANCH   8  10
ATOM     10  C   LIG    1        2.148   1.342   0.536  0.00  0.00    +0.141 A 
ATOM     11  N   LIG    1        1.490   2.352   1.175  0.00  0.00    -0.134 NA
ATOM     12  N   LIG    1        2.166   3.238   1.927  0.00  0.00    -0.143 NA
ATOM     13  C   LIG    1        3.518   3.134   2.054  0.00  0.00    +0.166 A 
ATOM     14  C   LIG    1        4.238   2.118   1.419  0.00  0.00    +0.037 A 
ATOM     15  C   LIG    1        3.533   1.202   0.640  0.00  0.00    +0.047 A 
BRANCH  13  16
ATOM     16  C   LIG    1        4.191   4.192   2.925  0.00  0.00    +0.436 C 
ATOM     17  F   LIG    1        3.669   4.171   4.152  0.00  0.00    -0.164 F 
ATOM     18  F   LIG    1        3.995   5.401   2.397  0.00  0.00    -0.164 F 
ATOM     19  F   LIG    1        5.506   3.992   3.030  0.00  0.00    -0.164 F 
ENDBRANCH  13  16
ENDBRANCH   8  10
ENDBRANCH   5   8
BRANCH   1  20
ATOM     20  C   LIG    1       -3.953  -1.634  -0.112  0.00  0.00    -0.043 C 
BRANCH  20  22
ATOM     21  C   LIG    1       -4.423  -3.871  -1.199  0.00  0.00    +0.005 A 
ATOM     22  C   LIG    1       -4.521  -2.476  -1.244  0.00  0.00    -0.061 A 
ATOM     23  C   LIG    1       -5.178  -1.867  -2.319  0.00  0.00    +0.043 A 
ATOM     24  C   LIG    1       -5.715  -2.643  -3.347  0.00  0.00    +0.159 A 
ATOM     25  F   LIG    1       -6.343  -2.045  -4.385  0.00  0.00    -0.202 F 
ATOM     26  C   LIG    1       -5.606  -4.034  -3.301  0.00  0.00    +0.158 A 
ATOM     27  F   LIG    1       -6.126  -4.790  -4.295  0.00  0.00    -0.202 F 
ATOM     28  C   LIG    1       -4.961  -4.647  -2.227  0.00  0.00    +0.041 A 
ENDBRANCH  20  22
ENDBRANCH   1  20
TORSDOF 5
