REMARK  Name = DB12036
REMARK                            x       y       z     vdW  Elec       q    Type
REMARK                         _______ _______ _______ _____ _____    ______ ____
ROOT
ATOM      1  C   LIG    1       -2.613   0.652   0.834  0.00  0.00    +0.103 A 
ATOM      2  N   LIG    1       -1.875   1.779   0.668  0.00  0.00    -0.238 NA
ATOM      3  C   LIG    1       -0.704   1.699  -0.030  0.00  0.00    +0.166 A 
ATOM      4  C   LIG    1       -0.274   0.460  -0.564  0.00  0.00    +0.158 A 
ATOM      5  N   LIG    1       -1.035  -0.657  -0.400  0.00  0.00    -0.194 NA
ATOM      6  C   LIG    1       -2.200  -0.571   0.298  0.00  0.00    +0.239 A 
ENDROOT
BRANCH   3   7
ATOM      7  C   LIG    1        0.086   2.986  -0.163  0.00  0.00    +0.263 C 
ATOM      8  N   LIG    1       -0.616   4.123  -0.246  0.00  0.00    -0.324 N 
ATOM      9  H   LIG    1       -0.138   5.007  -0.343  0.00  0.00    +0.145 HD
ATOM     10  H   LIG    1       -1.624   4.104  -0.199  0.00  0.00    +0.145 HD
ATOM     11  O   LIG    1        1.316   2.991  -0.201  0.00  0.00    -0.269 OA
ENDBRANCH   3   7
BRANCH   1  13
ATOM     12  C   LIG    1       -5.110   1.106   0.704  0.00  0.00    +0.010 C 
ATOM     13  C   LIG    1       -3.912   0.804   1.615  0.00  0.00    +0.057 C 
ENDBRANCH   1  13
BRANCH   4  14
ATOM     14  N   LIG    1        0.914   0.340  -1.311  0.00  0.00    -0.297 N 
ATOM     15  H   LIG    1        1.396   1.215  -1.464  0.00  0.00    +0.154 HD
BRANCH  14  16
ATOM     16  C   LIG    1        1.589  -0.787  -1.809  0.00  0.00    +0.033 A 
ATOM     17  C   LIG    1        1.622  -2.001  -1.117  0.00  0.00    +0.025 A 
ATOM     18  C   LIG    1        2.316  -3.087  -1.643  0.00  0.00    +0.025 A 
ATOM     19  C   LIG    1        2.998  -2.978  -2.864  0.00  0.00    +0.030 A 
ATOM     20  C   LIG    1        2.967  -1.752  -3.541  0.00  0.00    +0.025 A 
ATOM     21  C   LIG    1        2.275  -0.664  -3.016  0.00  0.00    +0.025 A 
BRANCH  19  22
ATOM     22  N   LIG    1        3.693  -4.050  -3.422  0.00  0.00    -0.330 N 
ATOM     23  C   LIG    1        4.085  -5.213  -2.607  0.00  0.00    +0.103 C 
ATOM     24  C   LIG    1        5.229  -6.038  -3.232  0.00  0.00    +0.004 C 
ATOM     25  C   LIG    1        4.929  -6.502  -4.677  0.00  0.00    -0.066 C 
ATOM     26  C   LIG    1        4.415  -5.293  -5.490  0.00  0.00    +0.004 C 
ATOM     27  C   LIG    1        3.305  -4.501  -4.770  0.00  0.00    +0.103 C 
BRANCH  25  28
ATOM     28  N   LIG    1        6.192  -7.101  -5.372  0.00  0.00    +0.383 N 
ATOM     29  H   LIG    1        6.809  -6.343  -5.629  0.00  0.00    -0.081 HD
ATOM     30  C   LIG    1        6.994  -8.077  -4.469  0.00  0.00    -0.063 C 
ATOM     31  C   LIG    1        8.203  -8.644  -5.253  0.00  0.00    +0.065 C 
ATOM     32  N   LIG    1        7.811  -9.333  -6.486  0.00  0.00    -0.309 NA
ATOM     33  C   LIG    1        7.148 -10.616  -6.260  0.00  0.00    +0.104 C 
ATOM     34  C   LIG    1        7.062  -8.421  -7.355  0.00  0.00    +0.065 C 
ATOM     35  C   LIG    1        5.795  -7.850  -6.673  0.00  0.00    -0.063 C 
ENDBRANCH  25  28
ENDBRANCH  19  22
ENDBRANCH  14  16
ENDBRANCH   4  14
BRANCH   6  36
ATOM     36  O   LIG    1       -2.983  -1.702   0.466  0.00  0.00    -0.470 OA
BRANCH  36  37
ATOM     37  C   LIG    1       -2.550  -2.973  -0.040  0.00  0.00    +0.194 C 
ATOM     38  C   LIG    1       -1.446  -3.549   0.853  0.00  0.00    +0.152 C 
ATOM     39  N   LIG    1       -2.153  -4.317   1.883  0.00  0.00    -0.294 N 
ATOM     40  C   LIG    1       -1.494  -4.868   2.936  0.00  0.00    +0.239 C 
ATOM     41  O   LIG    1       -0.274  -4.732   3.076  0.00  0.00    -0.271 OA
ATOM     42  C   LIG    1       -3.581  -4.471   1.565  0.00  0.00    +0.112 C 
ATOM     43  C   LIG    1       -3.685  -3.971   0.122  0.00  0.00    +0.065 C 
BRANCH  40  44
ATOM     44  C   LIG    1       -2.286  -5.609   3.902  0.00  0.00    +0.060 C 
ATOM     45  C   LIG    1       -1.738  -6.274   4.937  0.00  0.00    +0.013 C 
ENDBRANCH  40  44
ENDBRANCH  36  37
ENDBRANCH   6  36
TORSDOF 9
